MODEL 1
REMARK VINA RESULT:      -7.3      0.000      0.000
REMARK  Name = 
REMARK  6 active torsions:
REMARK  status: ('A' for Active; 'I' for Inactive)
REMARK    1  A    between atoms: C_1  and  C_2
REMARK    2  A    between atoms: N_9  and  C_10
REMARK    3  A    between atoms: C_10  and  C_11
REMARK    4  A    between atoms: C_11  and  C_12
REMARK    5  A    between atoms: N_20  and  C_21
REMARK    6  A    between atoms: C_21  and  C_22
REMARK                            x       y       z     vdW  Elec       q    Type
REMARK                         _______ _______ _______ _____ _____    ______ ____
ROOT
ATOM      1  C   UNL     1       1.209   3.441  20.823  0.00  0.00    +0.000 C 
ATOM      2  C   UNL     1       2.157   3.304  19.676  0.00  0.00    +0.000 A 
ATOM      3  C   UNL     1       2.617   2.089  19.198  0.00  0.00    +0.000 A 
ATOM      4  S   UNL     1       3.683   2.263  17.877  0.00  0.00    +0.000 S 
ATOM      5  C   UNL     1       3.545   3.948  17.929  0.00  0.00    +0.000 A 
ATOM      6  C   UNL     1       2.717   4.398  18.917  0.00  0.00    +0.000 A 
ATOM      7  C   UNL     1       2.512   5.828  19.066  0.00  0.00    +0.000 A 
ATOM      8  O   UNL     1       1.809   6.281  19.962  0.00  0.00    +0.000 OA
ATOM      9  N   UNL     1       3.183   6.625  18.125  0.00  0.00    +0.000 N 
ATOM     10  C   UNL     1       4.154   6.134  17.237  0.00  0.00    +0.000 A 
ATOM     11  O   UNL     1       4.920   6.866  16.610  0.00  0.00    +0.000 OA
ATOM     12  N   UNL     1       4.239   4.755  17.050  0.00  0.00    +0.000 N 
ENDROOT
BRANCH   9  13
ATOM     13  C   UNL     1       3.014   8.090  18.291  0.00  0.00    +0.000 C 
BRANCH  13  14
ATOM     14  C   UNL     1       1.761   8.710  17.642  0.00  0.00    +0.000 C 
BRANCH  14  15
ATOM     15  C   UNL     1       0.825   9.520  18.513  0.00  0.00    +0.000 A 
ATOM     16  C   UNL     1      -0.332  10.045  17.904  0.00  0.00    +0.000 A 
ATOM     17  C   UNL     1      -1.270  10.770  18.636  0.00  0.00    +0.000 A 
ATOM     18  C   UNL     1      -1.069  10.975  19.996  0.00  0.00    +0.000 A 
ATOM     19  C   UNL     1       0.063  10.451  20.619  0.00  0.00    +0.000 A 
ATOM     20  C   UNL     1       1.006   9.722  19.884  0.00  0.00    +0.000 A 
ENDBRANCH  14  15
ENDBRANCH  13  14
ENDBRANCH   9  13
BRANCH  12  21
ATOM     21  C   UNL     1       5.117   4.282  15.972  0.00  0.00    +0.000 C 
BRANCH  21  22
ATOM     22  C   UNL     1       6.549   4.328  16.313  0.00  0.00    +0.000 C 
ATOM     23  N   UNL     1       7.681   4.402  16.562  0.00  0.00    +0.000 NA
ENDBRANCH  21  22
ENDBRANCH  12  21
TORSDOF 5
ENDMDL
MODEL 2
REMARK VINA RESULT:      -7.3      0.153      1.014
REMARK  Name = 
REMARK  6 active torsions:
REMARK  status: ('A' for Active; 'I' for Inactive)
REMARK    1  A    between atoms: C_1  and  C_2
REMARK    2  A    between atoms: N_9  and  C_10
REMARK    3  A    between atoms: C_10  and  C_11
REMARK    4  A    between atoms: C_11  and  C_12
REMARK    5  A    between atoms: N_20  and  C_21
REMARK    6  A    between atoms: C_21  and  C_22
REMARK                            x       y       z     vdW  Elec       q    Type
REMARK                         _______ _______ _______ _____ _____    ______ ____
ROOT
ATOM      1  C   UNL     1       1.163   3.271  20.771  0.00  0.00    +0.000 C 
ATOM      2  C   UNL     1       2.136   3.212  19.639  0.00  0.00    +0.000 A 
ATOM      3  C   UNL     1       2.641   2.033  19.118  0.00  0.00    +0.000 A 
ATOM      4  S   UNL     1       3.727   2.296  17.828  0.00  0.00    +0.000 S 
ATOM      5  C   UNL     1       3.538   3.972  17.950  0.00  0.00    +0.000 A 
ATOM      6  C   UNL     1       2.678   4.354  18.939  0.00  0.00    +0.000 A 
ATOM      7  C   UNL     1       2.427   5.770  19.146  0.00  0.00    +0.000 A 
ATOM      8  O   UNL     1       1.694   6.163  20.046  0.00  0.00    +0.000 OA
ATOM      9  N   UNL     1       3.093   6.627  18.254  0.00  0.00    +0.000 N 
ATOM     10  C   UNL     1       4.095   6.203  17.366  0.00  0.00    +0.000 A 
ATOM     11  O   UNL     1       4.850   6.984  16.787  0.00  0.00    +0.000 OA
ATOM     12  N   UNL     1       4.224   4.837  17.121  0.00  0.00    +0.000 N 
ENDROOT
BRANCH   9  13
ATOM     13  C   UNL     1       2.876   8.077  18.481  0.00  0.00    +0.000 C 
BRANCH  13  14
ATOM     14  C   UNL     1       1.694   8.717  17.725  0.00  0.00    +0.000 C 
BRANCH  14  15
ATOM     15  C   UNL     1       0.688   9.526  18.515  0.00  0.00    +0.000 A 
ATOM     16  C   UNL     1       0.898   9.640  19.903  0.00  0.00    +0.000 A 
ATOM     17  C   UNL     1       0.046  10.397  20.705  0.00  0.00    +0.000 A 
ATOM     18  C   UNL     1      -1.030  11.061  20.126  0.00  0.00    +0.000 A 
ATOM     19  C   UNL     1      -1.245  10.971  18.751  0.00  0.00    +0.000 A 
ATOM     20  C   UNL     1      -0.388  10.211  17.946  0.00  0.00    +0.000 A 
ENDBRANCH  14  15
ENDBRANCH  13  14
ENDBRANCH   9  13
BRANCH  12  21
ATOM     21  C   UNL     1       5.136   4.438  16.042  0.00  0.00    +0.000 C 
BRANCH  21  22
ATOM     22  C   UNL     1       6.555   4.439  16.436  0.00  0.00    +0.000 C 
ATOM     23  N   UNL     1       7.682   4.410  16.717  0.00  0.00    +0.000 NA
ENDBRANCH  21  22
ENDBRANCH  12  21
TORSDOF 5
ENDMDL
MODEL 3
REMARK VINA RESULT:      -7.1      0.983      1.036
REMARK  Name = 
REMARK  6 active torsions:
REMARK  status: ('A' for Active; 'I' for Inactive)
REMARK    1  A    between atoms: C_1  and  C_2
REMARK    2  A    between atoms: N_9  and  C_10
REMARK    3  A    between atoms: C_10  and  C_11
REMARK    4  A    between atoms: C_11  and  C_12
REMARK    5  A    between atoms: N_20  and  C_21
REMARK    6  A    between atoms: C_21  and  C_22
REMARK                            x       y       z     vdW  Elec       q    Type
REMARK                         _______ _______ _______ _____ _____    ______ ____
ROOT
ATOM      1  C   UNL     1       1.176   2.927  20.971  0.00  0.00    +0.000 C 
ATOM      2  C   UNL     1       2.127   2.959  19.819  0.00  0.00    +0.000 A 
ATOM      3  C   UNL     1       2.677   1.827  19.243  0.00  0.00    +0.000 A 
ATOM      4  S   UNL     1       3.721   2.191  17.943  0.00  0.00    +0.000 S 
ATOM      5  C   UNL     1       3.454   3.850  18.133  0.00  0.00    +0.000 A 
ATOM      6  C   UNL     1       2.598   4.152  19.153  0.00  0.00    +0.000 A 
ATOM      7  C   UNL     1       2.283   5.545  19.420  0.00  0.00    +0.000 A 
ATOM      8  O   UNL     1       1.551   5.867  20.348  0.00  0.00    +0.000 OA
ATOM      9  N   UNL     1       2.887   6.466  18.548  0.00  0.00    +0.000 N 
ATOM     10  C   UNL     1       3.890   6.126  17.625  0.00  0.00    +0.000 A 
ATOM     11  O   UNL     1       4.594   6.964  17.062  0.00  0.00    +0.000 OA
ATOM     12  N   UNL     1       4.079   4.778  17.325  0.00  0.00    +0.000 N 
ENDROOT
BRANCH   9  13
ATOM     13  C   UNL     1       2.606   7.895  18.835  0.00  0.00    +0.000 C 
BRANCH  13  14
ATOM     14  C   UNL     1       1.744   8.641  17.797  0.00  0.00    +0.000 C 
BRANCH  14  15
ATOM     15  C   UNL     1       1.222  10.017  18.152  0.00  0.00    +0.000 A 
ATOM     16  C   UNL     1      -0.153  10.133  18.435  0.00  0.00    +0.000 A 
ATOM     17  C   UNL     1      -0.715  11.352  18.808  0.00  0.00    +0.000 A 
ATOM     18  C   UNL     1       0.094  12.477  18.913  0.00  0.00    +0.000 A 
ATOM     19  C   UNL     1       1.460  12.379  18.650  0.00  0.00    +0.000 A 
ATOM     20  C   UNL     1       2.025  11.153  18.275  0.00  0.00    +0.000 A 
ENDBRANCH  14  15
ENDBRANCH  13  14
ENDBRANCH   9  13
BRANCH  12  21
ATOM     21  C   UNL     1       4.987   4.465  16.214  0.00  0.00    +0.000 C 
BRANCH  21  22
ATOM     22  C   UNL     1       6.411   4.495  16.587  0.00  0.00    +0.000 C 
ATOM     23  N   UNL     1       7.544   4.509  16.840  0.00  0.00    +0.000 NA
ENDBRANCH  21  22
ENDBRANCH  12  21
TORSDOF 5
ENDMDL
MODEL 4
REMARK VINA RESULT:      -6.8      2.624      5.593
REMARK  Name = 
REMARK  6 active torsions:
REMARK  status: ('A' for Active; 'I' for Inactive)
REMARK    1  A    between atoms: C_1  and  C_2
REMARK    2  A    between atoms: N_9  and  C_10
REMARK    3  A    between atoms: C_10  and  C_11
REMARK    4  A    between atoms: C_11  and  C_12
REMARK    5  A    between atoms: N_20  and  C_21
REMARK    6  A    between atoms: C_21  and  C_22
REMARK                            x       y       z     vdW  Elec       q    Type
REMARK                         _______ _______ _______ _____ _____    ______ ____
ROOT
ATOM      1  C   UNL     1       1.924   8.198  19.717  0.00  0.00    +0.000 C 
ATOM      2  C   UNL     1       2.127   6.725  19.866  0.00  0.00    +0.000 A 
ATOM      3  C   UNL     1       1.620   5.980  20.917  0.00  0.00    +0.000 A 
ATOM      4  S   UNL     1       2.017   4.325  20.802  0.00  0.00    +0.000 S 
ATOM      5  C   UNL     1       2.864   4.581  19.360  0.00  0.00    +0.000 A 
ATOM      6  C   UNL     1       2.864   5.884  18.951  0.00  0.00    +0.000 A 
ATOM      7  C   UNL     1       3.556   6.236  17.724  0.00  0.00    +0.000 A 
ATOM      8  O   UNL     1       3.617   7.397  17.337  0.00  0.00    +0.000 OA
ATOM      9  N   UNL     1       4.145   5.157  17.044  0.00  0.00    +0.000 N 
ATOM     10  C   UNL     1       4.266   3.867  17.585  0.00  0.00    +0.000 A 
ATOM     11  O   UNL     1       5.006   3.007  17.107  0.00  0.00    +0.000 OA
ATOM     12  N   UNL     1       3.498   3.546  18.703  0.00  0.00    +0.000 N 
ENDROOT
BRANCH   9  13
ATOM     13  C   UNL     1       4.889   5.510  15.809  0.00  0.00    +0.000 C 
BRANCH  13  14
ATOM     14  C   UNL     1       6.422   5.368  15.873  0.00  0.00    +0.000 C 
BRANCH  14  15
ATOM     15  C   UNL     1       7.161   6.045  17.008  0.00  0.00    +0.000 A 
ATOM     16  C   UNL     1       7.389   7.431  16.895  0.00  0.00    +0.000 A 
ATOM     17  C   UNL     1       8.026   8.144  17.908  0.00  0.00    +0.000 A 
ATOM     18  C   UNL     1       8.439   7.482  19.059  0.00  0.00    +0.000 A 
ATOM     19  C   UNL     1       8.209   6.114  19.194  0.00  0.00    +0.000 A 
ATOM     20  C   UNL     1       7.568   5.396  18.176  0.00  0.00    +0.000 A 
ENDBRANCH  14  15
ENDBRANCH  13  14
ENDBRANCH   9  13
BRANCH  12  21
ATOM     21  C   UNL     1       3.488   2.139  19.122  0.00  0.00    +0.000 C 
BRANCH  21  22
ATOM     22  C   UNL     1       4.468   1.830  20.178  0.00  0.00    +0.000 C 
ATOM     23  N   UNL     1       5.255   1.554  20.986  0.00  0.00    +0.000 NA
ENDBRANCH  21  22
ENDBRANCH  12  21
TORSDOF 5
ENDMDL
MODEL 5
REMARK VINA RESULT:      -6.8      2.685      7.112
REMARK  Name = 
REMARK  6 active torsions:
REMARK  status: ('A' for Active; 'I' for Inactive)
REMARK    1  A    between atoms: C_1  and  C_2
REMARK    2  A    between atoms: N_9  and  C_10
REMARK    3  A    between atoms: C_10  and  C_11
REMARK    4  A    between atoms: C_11  and  C_12
REMARK    5  A    between atoms: N_20  and  C_21
REMARK    6  A    between atoms: C_21  and  C_22
REMARK                            x       y       z     vdW  Elec       q    Type
REMARK                         _______ _______ _______ _____ _____    ______ ____
ROOT
ATOM      1  C   UNL     1       2.627   9.033  17.565  0.00  0.00    +0.000 C 
ATOM      2  C   UNL     1       2.495   7.924  18.558  0.00  0.00    +0.000 A 
ATOM      3  C   UNL     1       1.604   7.942  19.617  0.00  0.00    +0.000 A 
ATOM      4  S   UNL     1       1.687   6.529  20.569  0.00  0.00    +0.000 S 
ATOM      5  C   UNL     1       2.903   5.883  19.588  0.00  0.00    +0.000 A 
ATOM      6  C   UNL     1       3.260   6.699  18.553  0.00  0.00    +0.000 A 
ATOM      7  C   UNL     1       4.295   6.258  17.633  0.00  0.00    +0.000 A 
ATOM      8  O   UNL     1       4.676   6.972  16.713  0.00  0.00    +0.000 OA
ATOM      9  N   UNL     1       4.814   4.980  17.894  0.00  0.00    +0.000 N 
ATOM     10  C   UNL     1       4.540   4.249  19.061  0.00  0.00    +0.000 A 
ATOM     11  O   UNL     1       5.195   3.264  19.404  0.00  0.00    +0.000 OA
ATOM     12  N   UNL     1       3.468   4.652  19.855  0.00  0.00    +0.000 N 
ENDROOT
BRANCH   9  13
ATOM     13  C   UNL     1       5.899   4.534  16.985  0.00  0.00    +0.000 C 
BRANCH  13  14
ATOM     14  C   UNL     1       5.466   3.704  15.760  0.00  0.00    +0.000 C 
BRANCH  14  15
ATOM     15  C   UNL     1       6.097   4.016  14.420  0.00  0.00    +0.000 A 
ATOM     16  C   UNL     1       7.124   4.980  14.398  0.00  0.00    +0.000 A 
ATOM     17  C   UNL     1       7.789   5.303  13.217  0.00  0.00    +0.000 A 
ATOM     18  C   UNL     1       7.441   4.657  12.036  0.00  0.00    +0.000 A 
ATOM     19  C   UNL     1       6.437   3.690  12.041  0.00  0.00    +0.000 A 
ATOM     20  C   UNL     1       5.769   3.365  13.228  0.00  0.00    +0.000 A 
ENDBRANCH  14  15
ENDBRANCH  13  14
ENDBRANCH   9  13
BRANCH  12  21
ATOM     21  C   UNL     1       3.079   3.757  20.953  0.00  0.00    +0.000 C 
BRANCH  21  22
ATOM     22  C   UNL     1       1.920   2.905  20.638  0.00  0.00    +0.000 C 
ATOM     23  N   UNL     1       1.011   2.242  20.348  0.00  0.00    +0.000 NA
ENDBRANCH  21  22
ENDBRANCH  12  21
TORSDOF 5
ENDMDL
MODEL 6
REMARK VINA RESULT:      -6.7      2.499      6.106
REMARK  Name = 
REMARK  6 active torsions:
REMARK  status: ('A' for Active; 'I' for Inactive)
REMARK    1  A    between atoms: C_1  and  C_2
REMARK    2  A    between atoms: N_9  and  C_10
REMARK    3  A    between atoms: C_10  and  C_11
REMARK    4  A    between atoms: C_11  and  C_12
REMARK    5  A    between atoms: N_20  and  C_21
REMARK    6  A    between atoms: C_21  and  C_22
REMARK                            x       y       z     vdW  Elec       q    Type
REMARK                         _______ _______ _______ _____ _____    ______ ____
ROOT
ATOM      1  C   UNL     1       2.634   8.989  18.232  0.00  0.00    +0.000 C 
ATOM      2  C   UNL     1       2.456   7.638  18.846  0.00  0.00    +0.000 A 
ATOM      3  C   UNL     1       1.729   7.407  20.001  0.00  0.00    +0.000 A 
ATOM      4  S   UNL     1       1.707   5.759  20.444  0.00  0.00    +0.000 S 
ATOM      5  C   UNL     1       2.659   5.339  19.112  0.00  0.00    +0.000 A 
ATOM      6  C   UNL     1       3.004   6.405  18.330  0.00  0.00    +0.000 A 
ATOM      7  C   UNL     1       3.820   6.177  17.150  0.00  0.00    +0.000 A 
ATOM      8  O   UNL     1       4.187   7.106  16.440  0.00  0.00    +0.000 OA
ATOM      9  N   UNL     1       4.154   4.834  16.910  0.00  0.00    +0.000 N 
ATOM     10  C   UNL     1       3.923   3.797  17.827  0.00  0.00    +0.000 A 
ATOM     11  O   UNL     1       4.448   2.687  17.730  0.00  0.00    +0.000 OA
ATOM     12  N   UNL     1       3.047   4.034  18.884  0.00  0.00    +0.000 N 
ENDROOT
BRANCH   9  13
ATOM     13  C   UNL     1       5.022   4.593  15.730  0.00  0.00    +0.000 C 
BRANCH  13  14
ATOM     14  C   UNL     1       6.529   4.441  16.012  0.00  0.00    +0.000 C 
BRANCH  14  15
ATOM     15  C   UNL     1       7.163   5.348  17.045  0.00  0.00    +0.000 A 
ATOM     16  C   UNL     1       7.300   6.710  16.712  0.00  0.00    +0.000 A 
ATOM     17  C   UNL     1       7.836   7.626  17.615  0.00  0.00    +0.000 A 
ATOM     18  C   UNL     1       8.238   7.193  18.874  0.00  0.00    +0.000 A 
ATOM     19  C   UNL     1       8.098   5.851  19.225  0.00  0.00    +0.000 A 
ATOM     20  C   UNL     1       7.558   4.931  18.318  0.00  0.00    +0.000 A 
ENDBRANCH  14  15
ENDBRANCH  13  14
ENDBRANCH   9  13
BRANCH  12  21
ATOM     21  C   UNL     1       2.666   2.878  19.707  0.00  0.00    +0.000 C 
BRANCH  21  22
ATOM     22  C   UNL     1       1.373   2.284  19.329  0.00  0.00    +0.000 C 
ATOM     23  N   UNL     1       0.338   1.855  19.022  0.00  0.00    +0.000 NA
ENDBRANCH  21  22
ENDBRANCH  12  21
TORSDOF 5
ENDMDL
MODEL 7
REMARK VINA RESULT:      -6.5      2.519      6.195
REMARK  Name = 
REMARK  6 active torsions:
REMARK  status: ('A' for Active; 'I' for Inactive)
REMARK    1  A    between atoms: C_1  and  C_2
REMARK    2  A    between atoms: N_9  and  C_10
REMARK    3  A    between atoms: C_10  and  C_11
REMARK    4  A    between atoms: C_11  and  C_12
REMARK    5  A    between atoms: N_20  and  C_21
REMARK    6  A    between atoms: C_21  and  C_22
REMARK                            x       y       z     vdW  Elec       q    Type
REMARK                         _______ _______ _______ _____ _____    ______ ____
ROOT
ATOM      1  C   UNL     1       2.727   9.026  18.008  0.00  0.00    +0.000 C 
ATOM      2  C   UNL     1       2.519   7.712  18.687  0.00  0.00    +0.000 A 
ATOM      3  C   UNL     1       1.778   7.552  19.845  0.00  0.00    +0.000 A 
ATOM      4  S   UNL     1       1.722   5.930  20.372  0.00  0.00    +0.000 S 
ATOM      5  C   UNL     1       2.678   5.426  19.072  0.00  0.00    +0.000 A 
ATOM      6  C   UNL     1       3.049   6.444  18.240  0.00  0.00    +0.000 A 
ATOM      7  C   UNL     1       3.872   6.143  17.082  0.00  0.00    +0.000 A 
ATOM      8  O   UNL     1       4.261   7.027  16.329  0.00  0.00    +0.000 OA
ATOM      9  N   UNL     1       4.183   4.783  16.913  0.00  0.00    +0.000 N 
ATOM     10  C   UNL     1       3.926   3.798  17.880  0.00  0.00    +0.000 A 
ATOM     11  O   UNL     1       4.432   2.676  17.845  0.00  0.00    +0.000 OA
ATOM     12  N   UNL     1       3.044   4.105  18.915  0.00  0.00    +0.000 N 
ENDROOT
BRANCH   9  13
ATOM     13  C   UNL     1       5.057   4.467  15.756  0.00  0.00    +0.000 C 
BRANCH  13  14
ATOM     14  C   UNL     1       6.574   4.457  16.029  0.00  0.00    +0.000 C 
BRANCH  14  15
ATOM     15  C   UNL     1       7.132   5.446  17.029  0.00  0.00    +0.000 A 
ATOM     16  C   UNL     1       7.536   4.941  18.281  0.00  0.00    +0.000 A 
ATOM     17  C   UNL     1       8.097   5.770  19.250  0.00  0.00    +0.000 A 
ATOM     18  C   UNL     1       8.271   7.122  18.978  0.00  0.00    +0.000 A 
ATOM     19  C   UNL     1       7.889   7.638  17.740  0.00  0.00    +0.000 A 
ATOM     20  C   UNL     1       7.326   6.805  16.766  0.00  0.00    +0.000 A 
ENDBRANCH  14  15
ENDBRANCH  13  14
ENDBRANCH   9  13
BRANCH  12  21
ATOM     21  C   UNL     1       2.636   2.999  19.792  0.00  0.00    +0.000 C 
BRANCH  21  22
ATOM     22  C   UNL     1       1.357   2.380  19.406  0.00  0.00    +0.000 C 
ATOM     23  N   UNL     1       0.369   1.855  19.094  0.00  0.00    +0.000 NA
ENDBRANCH  21  22
ENDBRANCH  12  21
TORSDOF 5
ENDMDL
MODEL 8
REMARK VINA RESULT:      -6.4      2.066      4.053
REMARK  Name = 
REMARK  6 active torsions:
REMARK  status: ('A' for Active; 'I' for Inactive)
REMARK    1  A    between atoms: C_1  and  C_2
REMARK    2  A    between atoms: N_9  and  C_10
REMARK    3  A    between atoms: C_10  and  C_11
REMARK    4  A    between atoms: C_11  and  C_12
REMARK    5  A    between atoms: N_20  and  C_21
REMARK    6  A    between atoms: C_21  and  C_22
REMARK                            x       y       z     vdW  Elec       q    Type
REMARK                         _______ _______ _______ _____ _____    ______ ____
ROOT
ATOM      1  C   UNL     1       5.195   6.684  15.637  0.00  0.00    +0.000 C 
ATOM      2  C   UNL     1       4.801   5.661  16.654  0.00  0.00    +0.000 A 
ATOM      3  C   UNL     1       5.270   4.359  16.657  0.00  0.00    +0.000 A 
ATOM      4  S   UNL     1       4.641   3.438  17.949  0.00  0.00    +0.000 S 
ATOM      5  C   UNL     1       3.743   4.755  18.513  0.00  0.00    +0.000 A 
ATOM      6  C   UNL     1       3.895   5.883  17.757  0.00  0.00    +0.000 A 
ATOM      7  C   UNL     1       3.178   7.087  18.138  0.00  0.00    +0.000 A 
ATOM      8  O   UNL     1       3.252   8.111  17.470  0.00  0.00    +0.000 OA
ATOM      9  N   UNL     1       2.401   6.971  19.302  0.00  0.00    +0.000 N 
ATOM     10  C   UNL     1       2.140   5.752  19.949  0.00  0.00    +0.000 A 
ATOM     11  O   UNL     1       1.257   5.619  20.797  0.00  0.00    +0.000 OA
ATOM     12  N   UNL     1       2.929   4.651  19.622  0.00  0.00    +0.000 N 
ENDROOT
BRANCH   9  13
ATOM     13  C   UNL     1       1.631   8.183  19.680  0.00  0.00    +0.000 C 
BRANCH  13  14
ATOM     14  C   UNL     1       1.453   8.435  21.190  0.00  0.00    +0.000 C 
BRANCH  14  15
ATOM     15  C   UNL     1       0.598   9.605  21.628  0.00  0.00    +0.000 A 
ATOM     16  C   UNL     1      -0.232   9.413  22.750  0.00  0.00    +0.000 A 
ATOM     17  C   UNL     1      -1.024  10.445  23.249  0.00  0.00    +0.000 A 
ATOM     18  C   UNL     1      -0.992  11.693  22.636  0.00  0.00    +0.000 A 
ATOM     19  C   UNL     1      -0.166  11.905  21.533  0.00  0.00    +0.000 A 
ATOM     20  C   UNL     1       0.630  10.868  21.032  0.00  0.00    +0.000 A 
ENDBRANCH  14  15
ENDBRANCH  13  14
ENDBRANCH   9  13
BRANCH  12  21
ATOM     21  C   UNL     1       2.772   3.450  20.453  0.00  0.00    +0.000 C 
BRANCH  21  22
ATOM     22  C   UNL     1       1.875   2.440  19.868  0.00  0.00    +0.000 C 
ATOM     23  N   UNL     1       1.198   1.633  19.378  0.00  0.00    +0.000 NA
ENDBRANCH  21  22
ENDBRANCH  12  21
TORSDOF 5
ENDMDL
MODEL 9
REMARK VINA RESULT:      -6.4      1.891      2.332
REMARK  Name = 
REMARK  6 active torsions:
REMARK  status: ('A' for Active; 'I' for Inactive)
REMARK    1  A    between atoms: C_1  and  C_2
REMARK    2  A    between atoms: N_9  and  C_10
REMARK    3  A    between atoms: C_10  and  C_11
REMARK    4  A    between atoms: C_11  and  C_12
REMARK    5  A    between atoms: N_20  and  C_21
REMARK    6  A    between atoms: C_21  and  C_22
REMARK                            x       y       z     vdW  Elec       q    Type
REMARK                         _______ _______ _______ _____ _____    ______ ____
ROOT
ATOM      1  C   UNL     1       2.638   2.745  21.103  0.00  0.00    +0.000 C 
ATOM      2  C   UNL     1       3.346   3.371  19.945  0.00  0.00    +0.000 A 
ATOM      3  C   UNL     1       4.310   2.725  19.191  0.00  0.00    +0.000 A 
ATOM      4  S   UNL     1       4.926   3.702  17.935  0.00  0.00    +0.000 S 
ATOM      5  C   UNL     1       3.923   4.988  18.380  0.00  0.00    +0.000 A 
ATOM      6  C   UNL     1       3.128   4.713  19.456  0.00  0.00    +0.000 A 
ATOM      7  C   UNL     1       2.216   5.737  19.938  0.00  0.00    +0.000 A 
ATOM      8  O   UNL     1       1.511   5.550  20.922  0.00  0.00    +0.000 OA
ATOM      9  N   UNL     1       2.225   6.932  19.201  0.00  0.00    +0.000 N 
ATOM     10  C   UNL     1       3.175   7.233  18.212  0.00  0.00    +0.000 A 
ATOM     11  O   UNL     1       3.340   8.368  17.764  0.00  0.00    +0.000 OA
ATOM     12  N   UNL     1       3.953   6.193  17.707  0.00  0.00    +0.000 N 
ENDROOT
BRANCH   9  13
ATOM     13  C   UNL     1       1.327   8.001  19.707  0.00  0.00    +0.000 C 
BRANCH  13  14
ATOM     14  C   UNL     1       1.551   8.445  21.166  0.00  0.00    +0.000 C 
BRANCH  14  15
ATOM     15  C   UNL     1       0.669   9.539  21.728  0.00  0.00    +0.000 A 
ATOM     16  C   UNL     1       0.673  10.780  21.060  0.00  0.00    +0.000 A 
ATOM     17  C   UNL     1      -0.136  11.832  21.483  0.00  0.00    +0.000 A 
ATOM     18  C   UNL     1      -0.972  11.657  22.580  0.00  0.00    +0.000 A 
ATOM     19  C   UNL     1      -0.999  10.432  23.245  0.00  0.00    +0.000 A 
ATOM     20  C   UNL     1      -0.187   9.374  22.820  0.00  0.00    +0.000 A 
ENDBRANCH  14  15
ENDBRANCH  13  14
ENDBRANCH   9  13
BRANCH  12  21
ATOM     21  C   UNL     1       4.790   6.494  16.538  0.00  0.00    +0.000 C 
BRANCH  21  22
ATOM     22  C   UNL     1       6.171   6.871  16.881  0.00  0.00    +0.000 C 
ATOM     23  N   UNL     1       7.246   7.185  17.189  0.00  0.00    +0.000 NA
ENDBRANCH  21  22
ENDBRANCH  12  21
TORSDOF 5
ENDMDL
