MODEL 1
REMARK VINA RESULT:      -8.6      0.000      0.000
REMARK  Name = 
REMARK  6 active torsions:
REMARK  status: ('A' for Active; 'I' for Inactive)
REMARK    1  A    between atoms: C_1  and  C_2
REMARK    2  A    between atoms: C_2  and  C_3
REMARK    3  A    between atoms: C_3  and  C_4
REMARK    4  A    between atoms: N_6  and  C_7
REMARK    5  A    between atoms: N_17  and  N_18
REMARK    6  A    between atoms: C_19  and  C_21
REMARK                            x       y       z     vdW  Elec       q    Type
REMARK                         _______ _______ _______ _____ _____    ______ ____
ROOT
ATOM      1  C   UNL     1       3.585   4.369  19.679  0.00  0.00    +0.000 C 
ENDROOT
BRANCH   1   2
ATOM      2  C   UNL     1       2.473   5.375  19.947  0.00  0.00    +0.000 C 
ATOM      3  O   UNL     1       1.321   5.021  20.174  0.00  0.00    +0.000 OA
ATOM      4  N   UNL     1       2.894   6.702  19.905  0.00  0.00    +0.000 N 
ATOM      5  H   UNL     1       3.709   6.897  19.338  0.00  0.00    +0.000 HD
BRANCH   4   6
ATOM      6  C   UNL     1       1.995   7.782  20.098  0.00  0.00    +0.000 A 
ATOM      7  C   UNL     1       1.694   8.602  19.007  0.00  0.00    +0.000 A 
ATOM      8  C   UNL     1       0.789   9.656  19.144  0.00  0.00    +0.000 A 
ATOM      9  C   UNL     1       0.217   9.969  20.392  0.00  0.00    +0.000 A 
ATOM     10  C   UNL     1      -0.669  11.045  20.543  0.00  0.00    +0.000 A 
ATOM     11  C   UNL     1      -1.198  11.371  21.791  0.00  0.00    +0.000 A 
ATOM     12  C   UNL     1      -0.851  10.611  22.905  0.00  0.00    +0.000 A 
ATOM     13  C   UNL     1       0.016   9.519  22.765  0.00  0.00    +0.000 A 
ATOM     14  C   UNL     1       0.557   9.174  21.513  0.00  0.00    +0.000 A 
ATOM     15  C   UNL     1       1.426   8.069  21.343  0.00  0.00    +0.000 A 
ENDBRANCH   4   6
ENDBRANCH   1   2
BRANCH   1  17
ATOM     16  C   UNL     1       3.456   3.099  17.404  0.00  0.00    +0.000 C 
ATOM     17  C   UNL     1       4.009   4.249  18.216  0.00  0.00    +0.000 C 
ATOM     18  N   UNL     1       4.865   5.112  17.741  0.00  0.00    +0.000 NA
BRANCH  18  19
ATOM     19  N   UNL     1       5.267   4.973  16.437  0.00  0.00    +0.000 N 
ATOM     20  C   UNL     1       6.607   4.845  16.103  0.00  0.00    +0.000 C 
ATOM     21  O   UNL     1       7.551   4.842  16.886  0.00  0.00    +0.000 OA
ATOM     22  H   UNL     1       4.599   4.962  15.672  0.00  0.00    +0.000 HD
BRANCH  20  23
ATOM     23  C   UNL     1       6.851   4.698  14.635  0.00  0.00    +0.000 A 
ATOM     24  C   UNL     1       6.092   3.806  13.890  0.00  0.00    +0.000 A 
ATOM     25  N   UNL     1       6.267   3.637  12.552  0.00  0.00    +0.000 NA
ATOM     26  C   UNL     1       7.234   4.401  11.993  0.00  0.00    +0.000 A 
ATOM     27  C   UNL     1       7.997   5.293  12.734  0.00  0.00    +0.000 A 
ATOM     28  N   UNL     1       7.830   5.471  14.071  0.00  0.00    +0.000 NA
ENDBRANCH  20  23
ENDBRANCH  18  19
ENDBRANCH   1  17
TORSDOF 5
ENDMDL
MODEL 2
REMARK VINA RESULT:      -7.9      0.639      1.646
REMARK  Name = 
REMARK  6 active torsions:
REMARK  status: ('A' for Active; 'I' for Inactive)
REMARK    1  A    between atoms: C_1  and  C_2
REMARK    2  A    between atoms: C_2  and  C_3
REMARK    3  A    between atoms: C_3  and  C_4
REMARK    4  A    between atoms: N_6  and  C_7
REMARK    5  A    between atoms: N_17  and  N_18
REMARK    6  A    between atoms: C_19  and  C_21
REMARK                            x       y       z     vdW  Elec       q    Type
REMARK                         _______ _______ _______ _____ _____    ______ ____
ROOT
ATOM      1  C   UNL     1       3.583   4.675  19.769  0.00  0.00    +0.000 C 
ENDROOT
BRANCH   1   2
ATOM      2  C   UNL     1       2.432   5.638  20.026  0.00  0.00    +0.000 C 
ATOM      3  O   UNL     1       1.288   5.241  20.225  0.00  0.00    +0.000 OA
ATOM      4  N   UNL     1       2.806   6.979  20.007  0.00  0.00    +0.000 N 
ATOM      5  H   UNL     1       3.625   7.209  19.459  0.00  0.00    +0.000 HD
BRANCH   4   6
ATOM      6  C   UNL     1       1.867   8.025  20.193  0.00  0.00    +0.000 A 
ATOM      7  C   UNL     1       1.426   8.302  21.491  0.00  0.00    +0.000 A 
ATOM      8  C   UNL     1       0.528   9.345  21.724  0.00  0.00    +0.000 A 
ATOM      9  C   UNL     1      -0.017  10.090  20.661  0.00  0.00    +0.000 A 
ATOM     10  C   UNL     1      -0.944  11.118  20.885  0.00  0.00    +0.000 A 
ATOM     11  C   UNL     1      -1.506  11.824  19.822  0.00  0.00    +0.000 A 
ATOM     12  C   UNL     1      -1.136  11.511  18.517  0.00  0.00    +0.000 A 
ATOM     13  C   UNL     1      -0.195  10.501  18.279  0.00  0.00    +0.000 A 
ATOM     14  C   UNL     1       0.385   9.782  19.339  0.00  0.00    +0.000 A 
ATOM     15  C   UNL     1       1.347   8.764  19.126  0.00  0.00    +0.000 A 
ENDBRANCH   4   6
ENDBRANCH   1   2
BRANCH   1  17
ATOM     16  C   UNL     1       3.362   3.448  17.477  0.00  0.00    +0.000 C 
ATOM     17  C   UNL     1       4.000   4.541  18.305  0.00  0.00    +0.000 C 
ATOM     18  N   UNL     1       4.922   5.341  17.842  0.00  0.00    +0.000 NA
BRANCH  18  19
ATOM     19  N   UNL     1       5.315   5.189  16.537  0.00  0.00    +0.000 N 
ATOM     20  C   UNL     1       6.602   4.790  16.212  0.00  0.00    +0.000 C 
ATOM     21  O   UNL     1       7.505   4.540  17.003  0.00  0.00    +0.000 OA
ATOM     22  H   UNL     1       4.678   5.364  15.765  0.00  0.00    +0.000 HD
BRANCH  20  23
ATOM     23  C   UNL     1       6.843   4.673  14.740  0.00  0.00    +0.000 A 
ATOM     24  C   UNL     1       6.099   3.779  13.983  0.00  0.00    +0.000 A 
ATOM     25  N   UNL     1       6.272   3.636  12.642  0.00  0.00    +0.000 NA
ATOM     26  C   UNL     1       7.222   4.428  12.092  0.00  0.00    +0.000 A 
ATOM     27  C   UNL     1       7.971   5.322  12.845  0.00  0.00    +0.000 A 
ATOM     28  N   UNL     1       7.805   5.475  14.186  0.00  0.00    +0.000 NA
ENDBRANCH  20  23
ENDBRANCH  18  19
ENDBRANCH   1  17
TORSDOF 5
ENDMDL
MODEL 3
REMARK VINA RESULT:      -7.8      2.214      8.860
REMARK  Name = 
REMARK  6 active torsions:
REMARK  status: ('A' for Active; 'I' for Inactive)
REMARK    1  A    between atoms: C_1  and  C_2
REMARK    2  A    between atoms: C_2  and  C_3
REMARK    3  A    between atoms: C_3  and  C_4
REMARK    4  A    between atoms: N_6  and  C_7
REMARK    5  A    between atoms: N_17  and  N_18
REMARK    6  A    between atoms: C_19  and  C_21
REMARK                            x       y       z     vdW  Elec       q    Type
REMARK                         _______ _______ _______ _____ _____    ______ ____
ROOT
ATOM      1  C   UNL     1       3.325   3.522  20.036  0.00  0.00    +0.000 C 
ENDROOT
BRANCH   1   2
ATOM      2  C   UNL     1       4.446   3.666  19.014  0.00  0.00    +0.000 C 
ATOM      3  O   UNL     1       5.592   3.300  19.255  0.00  0.00    +0.000 OA
ATOM      4  N   UNL     1       4.041   4.244  17.814  0.00  0.00    +0.000 N 
ATOM      5  H   UNL     1       3.234   4.852  17.858  0.00  0.00    +0.000 HD
BRANCH   4   6
ATOM      6  C   UNL     1       4.950   4.489  16.753  0.00  0.00    +0.000 A 
ATOM      7  C   UNL     1       5.946   5.453  16.937  0.00  0.00    +0.000 A 
ATOM      8  C   UNL     1       6.883   5.702  15.933  0.00  0.00    +0.000 A 
ATOM      9  C   UNL     1       6.805   5.053  14.686  0.00  0.00    +0.000 A 
ATOM     10  C   UNL     1       7.724   5.321  13.661  0.00  0.00    +0.000 A 
ATOM     11  C   UNL     1       7.615   4.701  12.417  0.00  0.00    +0.000 A 
ATOM     12  C   UNL     1       6.583   3.793  12.189  0.00  0.00    +0.000 A 
ATOM     13  C   UNL     1       5.671   3.499  13.211  0.00  0.00    +0.000 A 
ATOM     14  C   UNL     1       5.769   4.112  14.473  0.00  0.00    +0.000 A 
ATOM     15  C   UNL     1       4.866   3.823  15.525  0.00  0.00    +0.000 A 
ENDBRANCH   4   6
ENDBRANCH   1   2
BRANCH   1  17
ATOM     16  C   UNL     1       0.963   4.543  20.464  0.00  0.00    +0.000 C 
ATOM     17  C   UNL     1       2.437   4.755  20.198  0.00  0.00    +0.000 C 
ATOM     18  N   UNL     1       2.973   5.936  20.052  0.00  0.00    +0.000 NA
BRANCH  18  19
ATOM     19  N   UNL     1       2.159   7.034  20.163  0.00  0.00    +0.000 N 
ATOM     20  C   UNL     1       2.102   7.995  19.166  0.00  0.00    +0.000 C 
ATOM     21  O   UNL     1       2.738   7.990  18.118  0.00  0.00    +0.000 OA
ATOM     22  H   UNL     1       1.571   7.182  20.979  0.00  0.00    +0.000 HD
BRANCH  20  23
ATOM     23  C   UNL     1       1.155   9.115  19.461  0.00  0.00    +0.000 A 
ATOM     24  C   UNL     1       0.785   9.385  20.772  0.00  0.00    +0.000 A 
ATOM     25  N   UNL     1      -0.067  10.394  21.097  0.00  0.00    +0.000 NA
ATOM     26  C   UNL     1      -0.532  11.119  20.053  0.00  0.00    +0.000 A 
ATOM     27  C   UNL     1      -0.167  10.852  18.741  0.00  0.00    +0.000 A 
ATOM     28  N   UNL     1       0.685   9.848  18.404  0.00  0.00    +0.000 NA
ENDBRANCH  20  23
ENDBRANCH  18  19
ENDBRANCH   1  17
TORSDOF 5
ENDMDL
MODEL 4
REMARK VINA RESULT:      -7.8      2.062      9.033
REMARK  Name = 
REMARK  6 active torsions:
REMARK  status: ('A' for Active; 'I' for Inactive)
REMARK    1  A    between atoms: C_1  and  C_2
REMARK    2  A    between atoms: C_2  and  C_3
REMARK    3  A    between atoms: C_3  and  C_4
REMARK    4  A    between atoms: N_6  and  C_7
REMARK    5  A    between atoms: N_17  and  N_18
REMARK    6  A    between atoms: C_19  and  C_21
REMARK                            x       y       z     vdW  Elec       q    Type
REMARK                         _______ _______ _______ _____ _____    ______ ____
ROOT
ATOM      1  C   UNL     1       3.296   3.106  19.789  0.00  0.00    +0.000 C 
ENDROOT
BRANCH   1   2
ATOM      2  C   UNL     1       4.447   3.429  18.845  0.00  0.00    +0.000 C 
ATOM      3  O   UNL     1       5.618   3.321  19.192  0.00  0.00    +0.000 OA
ATOM      4  N   UNL     1       4.036   3.851  17.583  0.00  0.00    +0.000 N 
ATOM      5  H   UNL     1       3.122   4.280  17.528  0.00  0.00    +0.000 HD
BRANCH   4   6
ATOM      6  C   UNL     1       4.963   4.228  16.578  0.00  0.00    +0.000 A 
ATOM      7  C   UNL     1       5.862   5.262  16.854  0.00  0.00    +0.000 A 
ATOM      8  C   UNL     1       6.814   5.642  15.906  0.00  0.00    +0.000 A 
ATOM      9  C   UNL     1       6.845   5.055  14.627  0.00  0.00    +0.000 A 
ATOM     10  C   UNL     1       7.778   5.453  13.659  0.00  0.00    +0.000 A 
ATOM     11  C   UNL     1       7.774   4.892  12.383  0.00  0.00    +0.000 A 
ATOM     12  C   UNL     1       6.836   3.913  12.064  0.00  0.00    +0.000 A 
ATOM     13  C   UNL     1       5.912   3.489  13.028  0.00  0.00    +0.000 A 
ATOM     14  C   UNL     1       5.904   4.042  14.322  0.00  0.00    +0.000 A 
ATOM     15  C   UNL     1       4.988   3.623  15.317  0.00  0.00    +0.000 A 
ENDBRANCH   4   6
ENDBRANCH   1   2
BRANCH   1  17
ATOM     16  C   UNL     1       1.023   4.054  20.650  0.00  0.00    +0.000 C 
ATOM     17  C   UNL     1       2.448   4.305  20.209  0.00  0.00    +0.000 C 
ATOM     18  N   UNL     1       2.968   5.499  20.124  0.00  0.00    +0.000 NA
BRANCH  18  19
ATOM     19  N   UNL     1       2.186   6.572  20.468  0.00  0.00    +0.000 N 
ATOM     20  C   UNL     1       2.084   7.685  19.648  0.00  0.00    +0.000 C 
ATOM     21  O   UNL     1       2.650   7.846  18.573  0.00  0.00    +0.000 OA
ATOM     22  H   UNL     1       1.656   6.589  21.335  0.00  0.00    +0.000 HD
BRANCH  20  23
ATOM     23  C   UNL     1       1.181   8.749  20.186  0.00  0.00    +0.000 A 
ATOM     24  C   UNL     1       0.703   9.745  19.346  0.00  0.00    +0.000 A 
ATOM     25  N   UNL     1      -0.125  10.732  19.780  0.00  0.00    +0.000 NA
ATOM     26  C   UNL     1      -0.453  10.679  21.092  0.00  0.00    +0.000 A 
ATOM     27  C   UNL     1       0.024   9.687  21.937  0.00  0.00    +0.000 A 
ATOM     28  N   UNL     1       0.850   8.694  21.514  0.00  0.00    +0.000 NA
ENDBRANCH  20  23
ENDBRANCH  18  19
ENDBRANCH   1  17
TORSDOF 5
ENDMDL
MODEL 5
REMARK VINA RESULT:      -7.7      2.148      9.201
REMARK  Name = 
REMARK  6 active torsions:
REMARK  status: ('A' for Active; 'I' for Inactive)
REMARK    1  A    between atoms: C_1  and  C_2
REMARK    2  A    between atoms: C_2  and  C_3
REMARK    3  A    between atoms: C_3  and  C_4
REMARK    4  A    between atoms: N_6  and  C_7
REMARK    5  A    between atoms: N_17  and  N_18
REMARK    6  A    between atoms: C_19  and  C_21
REMARK                            x       y       z     vdW  Elec       q    Type
REMARK                         _______ _______ _______ _____ _____    ______ ____
ROOT
ATOM      1  C   UNL     1       3.366   3.067  19.611  0.00  0.00    +0.000 C 
ENDROOT
BRANCH   1   2
ATOM      2  C   UNL     1       3.855   3.384  18.203  0.00  0.00    +0.000 C 
ATOM      3  O   UNL     1       3.159   3.174  17.215  0.00  0.00    +0.000 OA
ATOM      4  N   UNL     1       5.140   3.917  18.161  0.00  0.00    +0.000 N 
ATOM      5  H   UNL     1       5.750   3.679  18.932  0.00  0.00    +0.000 HD
BRANCH   4   6
ATOM      6  C   UNL     1       5.778   4.245  16.938  0.00  0.00    +0.000 A 
ATOM      7  C   UNL     1       6.698   5.297  16.927  0.00  0.00    +0.000 A 
ATOM      8  C   UNL     1       7.375   5.631  15.752  0.00  0.00    +0.000 A 
ATOM      9  C   UNL     1       7.095   4.977  14.537  0.00  0.00    +0.000 A 
ATOM     10  C   UNL     1       7.748   5.328  13.348  0.00  0.00    +0.000 A 
ATOM     11  C   UNL     1       7.435   4.700  12.143  0.00  0.00    +0.000 A 
ATOM     12  C   UNL     1       6.466   3.700  12.120  0.00  0.00    +0.000 A 
ATOM     13  C   UNL     1       5.821   3.323  13.305  0.00  0.00    +0.000 A 
ATOM     14  C   UNL     1       6.127   3.944  14.530  0.00  0.00    +0.000 A 
ATOM     15  C   UNL     1       5.497   3.573  15.743  0.00  0.00    +0.000 A 
ENDBRANCH   4   6
ENDBRANCH   1   2
BRANCH   1  17
ATOM     16  C   UNL     1       1.927   3.929  21.610  0.00  0.00    +0.000 C 
ATOM     17  C   UNL     1       2.680   4.227  20.332  0.00  0.00    +0.000 C 
ATOM     18  N   UNL     1       2.731   5.415  19.795  0.00  0.00    +0.000 NA
BRANCH  18  19
ATOM     19  N   UNL     1       2.082   6.442  20.432  0.00  0.00    +0.000 N 
ATOM     20  C   UNL     1       1.949   7.689  19.842  0.00  0.00    +0.000 C 
ATOM     21  O   UNL     1       2.374   8.018  18.740  0.00  0.00    +0.000 OA
ATOM     22  H   UNL     1       1.678   6.324  21.357  0.00  0.00    +0.000 HD
BRANCH  20  23
ATOM     23  C   UNL     1       1.206   8.678  20.684  0.00  0.00    +0.000 A 
ATOM     24  C   UNL     1       1.448   8.749  22.049  0.00  0.00    +0.000 A 
ATOM     25  N   UNL     1       0.807   9.633  22.859  0.00  0.00    +0.000 NA
ATOM     26  C   UNL     1      -0.087  10.441  22.244  0.00  0.00    +0.000 A 
ATOM     27  C   UNL     1      -0.334  10.373  20.880  0.00  0.00    +0.000 A 
ATOM     28  N   UNL     1       0.303   9.495  20.060  0.00  0.00    +0.000 NA
ENDBRANCH  20  23
ENDBRANCH  18  19
ENDBRANCH   1  17
TORSDOF 5
ENDMDL
MODEL 6
REMARK VINA RESULT:      -7.5      6.148      8.217
REMARK  Name = 
REMARK  6 active torsions:
REMARK  status: ('A' for Active; 'I' for Inactive)
REMARK    1  A    between atoms: C_1  and  C_2
REMARK    2  A    between atoms: C_2  and  C_3
REMARK    3  A    between atoms: C_3  and  C_4
REMARK    4  A    between atoms: N_6  and  C_7
REMARK    5  A    between atoms: N_17  and  N_18
REMARK    6  A    between atoms: C_19  and  C_21
REMARK                            x       y       z     vdW  Elec       q    Type
REMARK                         _______ _______ _______ _____ _____    ______ ____
ROOT
ATOM      1  C   UNL     1       7.909   7.035  17.758  0.00  0.00    +0.000 C 
ENDROOT
BRANCH   1   2
ATOM      2  C   UNL     1       8.011   8.533  18.019  0.00  0.00    +0.000 C 
ATOM      3  O   UNL     1       7.252   9.335  17.485  0.00  0.00    +0.000 OA
ATOM      4  N   UNL     1       9.031   8.881  18.900  0.00  0.00    +0.000 N 
ATOM      5  H   UNL     1       9.813   8.243  18.957  0.00  0.00    +0.000 HD
BRANCH   4   6
ATOM      6  C   UNL     1       9.301  10.231  19.241  0.00  0.00    +0.000 A 
ATOM      7  C   UNL     1       9.196  10.615  20.580  0.00  0.00    +0.000 A 
ATOM      8  C   UNL     1       9.486  11.925  20.965  0.00  0.00    +0.000 A 
ATOM      9  C   UNL     1       9.813  12.909  20.013  0.00  0.00    +0.000 A 
ATOM     10  C   UNL     1      10.076  14.234  20.389  0.00  0.00    +0.000 A 
ATOM     11  C   UNL     1      10.360  15.209  19.434  0.00  0.00    +0.000 A 
ATOM     12  C   UNL     1      10.395  14.863  18.085  0.00  0.00    +0.000 A 
ATOM     13  C   UNL     1      10.157  13.537  17.697  0.00  0.00    +0.000 A 
ATOM     14  C   UNL     1       9.872  12.540  18.648  0.00  0.00    +0.000 A 
ATOM     15  C   UNL     1       9.639  11.192  18.282  0.00  0.00    +0.000 A 
ENDBRANCH   4   6
ENDBRANCH   1   2
BRANCH   1  17
ATOM     16  C   UNL     1       5.574   6.608  16.675  0.00  0.00    +0.000 C 
ATOM     17  C   UNL     1       6.499   6.455  17.862  0.00  0.00    +0.000 C 
ATOM     18  N   UNL     1       6.134   5.897  18.984  0.00  0.00    +0.000 NA
BRANCH  18  19
ATOM     19  N   UNL     1       4.855   5.412  19.079  0.00  0.00    +0.000 N 
ATOM     20  C   UNL     1       4.606   4.069  19.315  0.00  0.00    +0.000 C 
ATOM     21  O   UNL     1       5.449   3.191  19.457  0.00  0.00    +0.000 OA
ATOM     22  H   UNL     1       4.046   6.020  18.978  0.00  0.00    +0.000 HD
BRANCH  20  23
ATOM     23  C   UNL     1       3.151   3.730  19.393  0.00  0.00    +0.000 A 
ATOM     24  C   UNL     1       2.474   3.307  18.258  0.00  0.00    +0.000 A 
ATOM     25  N   UNL     1       1.154   2.980  18.274  0.00  0.00    +0.000 NA
ATOM     26  C   UNL     1       0.542   3.096  19.475  0.00  0.00    +0.000 A 
ATOM     27  C   UNL     1       1.214   3.521  20.613  0.00  0.00    +0.000 A 
ATOM     28  N   UNL     1       2.533   3.848  20.609  0.00  0.00    +0.000 NA
ENDBRANCH  20  23
ENDBRANCH  18  19
ENDBRANCH   1  17
TORSDOF 5
ENDMDL
MODEL 7
REMARK VINA RESULT:      -7.5      1.062      1.387
REMARK  Name = 
REMARK  6 active torsions:
REMARK  status: ('A' for Active; 'I' for Inactive)
REMARK    1  A    between atoms: C_1  and  C_2
REMARK    2  A    between atoms: C_2  and  C_3
REMARK    3  A    between atoms: C_3  and  C_4
REMARK    4  A    between atoms: N_6  and  C_7
REMARK    5  A    between atoms: N_17  and  N_18
REMARK    6  A    between atoms: C_19  and  C_21
REMARK                            x       y       z     vdW  Elec       q    Type
REMARK                         _______ _______ _______ _____ _____    ______ ____
ROOT
ATOM      1  C   UNL     1       2.859   3.675  20.284  0.00  0.00    +0.000 C 
ENDROOT
BRANCH   1   2
ATOM      2  C   UNL     1       1.925   4.875  20.378  0.00  0.00    +0.000 C 
ATOM      3  O   UNL     1       0.711   4.743  20.490  0.00  0.00    +0.000 OA
ATOM      4  N   UNL     1       2.580   6.102  20.321  0.00  0.00    +0.000 N 
ATOM      5  H   UNL     1       3.471   6.114  19.841  0.00  0.00    +0.000 HD
BRANCH   4   6
ATOM      6  C   UNL     1       1.877   7.333  20.360  0.00  0.00    +0.000 A 
ATOM      7  C   UNL     1       1.878   8.139  19.219  0.00  0.00    +0.000 A 
ATOM      8  C   UNL     1       1.170   9.342  19.202  0.00  0.00    +0.000 A 
ATOM      9  C   UNL     1       0.505   9.813  20.350  0.00  0.00    +0.000 A 
ATOM     10  C   UNL     1      -0.182  11.035  20.351  0.00  0.00    +0.000 A 
ATOM     11  C   UNL     1      -0.804  11.510  21.505  0.00  0.00    +0.000 A 
ATOM     12  C   UNL     1      -0.752  10.756  22.674  0.00  0.00    +0.000 A 
ATOM     13  C   UNL     1      -0.089   9.522  22.683  0.00  0.00    +0.000 A 
ATOM     14  C   UNL     1       0.542   9.026  21.527  0.00  0.00    +0.000 A 
ATOM     15  C   UNL     1       1.209   7.777  21.507  0.00  0.00    +0.000 A 
ENDBRANCH   4   6
ENDBRANCH   1   2
BRANCH   1  17
ATOM     16  C   UNL     1       3.604   2.098  18.344  0.00  0.00    +0.000 C 
ATOM     17  C   UNL     1       3.541   3.491  18.929  0.00  0.00    +0.000 C 
ATOM     18  N   UNL     1       4.083   4.531  18.356  0.00  0.00    +0.000 NA
BRANCH  18  19
ATOM     19  N   UNL     1       4.725   4.348  17.158  0.00  0.00    +0.000 N 
ATOM     20  C   UNL     1       5.265   5.415  16.457  0.00  0.00    +0.000 C 
ATOM     21  O   UNL     1       5.237   6.593  16.797  0.00  0.00    +0.000 OA
ATOM     22  H   UNL     1       4.825   3.426  16.742  0.00  0.00    +0.000 HD
BRANCH  20  23
ATOM     23  C   UNL     1       5.930   5.021  15.177  0.00  0.00    +0.000 A 
ATOM     24  C   UNL     1       7.145   5.590  14.821  0.00  0.00    +0.000 A 
ATOM     25  N   UNL     1       7.796   5.263  13.673  0.00  0.00    +0.000 NA
ATOM     26  C   UNL     1       7.178   4.342  12.897  0.00  0.00    +0.000 A 
ATOM     27  C   UNL     1       5.962   3.772  13.247  0.00  0.00    +0.000 A 
ATOM     28  N   UNL     1       5.303   4.089  14.393  0.00  0.00    +0.000 NA
ENDBRANCH  20  23
ENDBRANCH  18  19
ENDBRANCH   1  17
TORSDOF 5
ENDMDL
MODEL 8
REMARK VINA RESULT:      -7.5      6.078      7.910
REMARK  Name = 
REMARK  6 active torsions:
REMARK  status: ('A' for Active; 'I' for Inactive)
REMARK    1  A    between atoms: C_1  and  C_2
REMARK    2  A    between atoms: C_2  and  C_3
REMARK    3  A    between atoms: C_3  and  C_4
REMARK    4  A    between atoms: N_6  and  C_7
REMARK    5  A    between atoms: N_17  and  N_18
REMARK    6  A    between atoms: C_19  and  C_21
REMARK                            x       y       z     vdW  Elec       q    Type
REMARK                         _______ _______ _______ _____ _____    ______ ____
ROOT
ATOM      1  C   UNL     1       7.941   7.014  17.874  0.00  0.00    +0.000 C 
ENDROOT
BRANCH   1   2
ATOM      2  C   UNL     1       8.026   8.524  18.054  0.00  0.00    +0.000 C 
ATOM      3  O   UNL     1       7.277   9.290  17.455  0.00  0.00    +0.000 OA
ATOM      4  N   UNL     1       9.019   8.929  18.942  0.00  0.00    +0.000 N 
ATOM      5  H   UNL     1       9.803   8.301  19.056  0.00  0.00    +0.000 HD
BRANCH   4   6
ATOM      6  C   UNL     1       9.271  10.298  19.214  0.00  0.00    +0.000 A 
ATOM      7  C   UNL     1       9.694  11.119  18.165  0.00  0.00    +0.000 A 
ATOM      8  C   UNL     1       9.921  12.480  18.381  0.00  0.00    +0.000 A 
ATOM      9  C   UNL     1       9.808  13.044  19.666  0.00  0.00    +0.000 A 
ATOM     10  C   UNL     1      10.065  14.403  19.895  0.00  0.00    +0.000 A 
ATOM     11  C   UNL     1       9.987  14.942  21.179  0.00  0.00    +0.000 A 
ATOM     12  C   UNL     1       9.640  14.123  22.250  0.00  0.00    +0.000 A 
ATOM     13  C   UNL     1       9.359  12.767  22.032  0.00  0.00    +0.000 A 
ATOM     14  C   UNL     1       9.429  12.207  20.743  0.00  0.00    +0.000 A 
ATOM     15  C   UNL     1       9.139  10.844  20.495  0.00  0.00    +0.000 A 
ENDBRANCH   4   6
ENDBRANCH   1   2
BRANCH   1  17
ATOM     16  C   UNL     1       5.621   6.640  16.739  0.00  0.00    +0.000 C 
ATOM     17  C   UNL     1       6.528   6.435  17.933  0.00  0.00    +0.000 C 
ATOM     18  N   UNL     1       6.145   5.831  19.024  0.00  0.00    +0.000 NA
BRANCH  18  19
ATOM     19  N   UNL     1       4.863   5.347  19.080  0.00  0.00    +0.000 N 
ATOM     20  C   UNL     1       4.606   4.007  19.322  0.00  0.00    +0.000 C 
ATOM     21  O   UNL     1       5.443   3.130  19.503  0.00  0.00    +0.000 OA
ATOM     22  H   UNL     1       4.058   5.953  18.944  0.00  0.00    +0.000 HD
BRANCH  20  23
ATOM     23  C   UNL     1       3.149   3.668  19.352  0.00  0.00    +0.000 A 
ATOM     24  C   UNL     1       2.472   3.403  18.170  0.00  0.00    +0.000 A 
ATOM     25  N   UNL     1       1.150   3.084  18.141  0.00  0.00    +0.000 NA
ATOM     26  C   UNL     1       0.537   3.042  19.347  0.00  0.00    +0.000 A 
ATOM     27  C   UNL     1       1.209   3.308  20.532  0.00  0.00    +0.000 A 
ATOM     28  N   UNL     1       2.530   3.626  20.573  0.00  0.00    +0.000 NA
ENDBRANCH  20  23
ENDBRANCH  18  19
ENDBRANCH   1  17
TORSDOF 5
ENDMDL
MODEL 9
REMARK VINA RESULT:      -7.5      4.761     10.059
REMARK  Name = 
REMARK  6 active torsions:
REMARK  status: ('A' for Active; 'I' for Inactive)
REMARK    1  A    between atoms: C_1  and  C_2
REMARK    2  A    between atoms: C_2  and  C_3
REMARK    3  A    between atoms: C_3  and  C_4
REMARK    4  A    between atoms: N_6  and  C_7
REMARK    5  A    between atoms: N_17  and  N_18
REMARK    6  A    between atoms: C_19  and  C_21
REMARK                            x       y       z     vdW  Elec       q    Type
REMARK                         _______ _______ _______ _____ _____    ______ ____
ROOT
ATOM      1  C   UNL     1       1.311  10.353  18.475  0.00  0.00    +0.000 C 
ENDROOT
BRANCH   1   2
ATOM      2  C   UNL     1       1.715   8.923  18.812  0.00  0.00    +0.000 C 
ATOM      3  O   UNL     1       1.598   8.470  19.946  0.00  0.00    +0.000 OA
ATOM      4  N   UNL     1       2.218   8.211  17.728  0.00  0.00    +0.000 N 
ATOM      5  H   UNL     1       2.637   8.757  16.987  0.00  0.00    +0.000 HD
BRANCH   4   6
ATOM      6  C   UNL     1       2.676   6.874  17.854  0.00  0.00    +0.000 A 
ATOM      7  C   UNL     1       4.047   6.626  17.749  0.00  0.00    +0.000 A 
ATOM      8  C   UNL     1       4.545   5.331  17.901  0.00  0.00    +0.000 A 
ATOM      9  C   UNL     1       3.681   4.234  18.083  0.00  0.00    +0.000 A 
ATOM     10  C   UNL     1       4.171   2.927  18.205  0.00  0.00    +0.000 A 
ATOM     11  C   UNL     1       3.304   1.844  18.346  0.00  0.00    +0.000 A 
ATOM     12  C   UNL     1       1.929   2.063  18.377  0.00  0.00    +0.000 A 
ATOM     13  C   UNL     1       1.426   3.367  18.279  0.00  0.00    +0.000 A 
ATOM     14  C   UNL     1       2.286   4.471  18.139  0.00  0.00    +0.000 A 
ATOM     15  C   UNL     1       1.803   5.799  18.049  0.00  0.00    +0.000 A 
ENDBRANCH   4   6
ENDBRANCH   1   2
BRANCH   1  17
ATOM     16  C   UNL     1      -0.573  11.230  20.053  0.00  0.00    +0.000 C 
ATOM     17  C   UNL     1      -0.164  10.680  18.704  0.00  0.00    +0.000 C 
ATOM     18  N   UNL     1      -1.017  10.426  17.749  0.00  0.00    +0.000 NA
BRANCH  18  19
ATOM     19  N   UNL     1      -2.343  10.688  17.980  0.00  0.00    +0.000 N 
ATOM     20  C   UNL     1      -3.204  11.022  16.945  0.00  0.00    +0.000 C 
ATOM     21  O   UNL     1      -2.907  11.124  15.760  0.00  0.00    +0.000 OA
ATOM     22  H   UNL     1      -2.740  10.649  18.914  0.00  0.00    +0.000 HD
BRANCH  20  23
ATOM     23  C   UNL     1      -4.611  11.267  17.388  0.00  0.00    +0.000 A 
ATOM     24  C   UNL     1      -5.208  10.418  18.310  0.00  0.00    +0.000 A 
ATOM     25  N   UNL     1      -6.481  10.597  18.752  0.00  0.00    +0.000 NA
ATOM     26  C   UNL     1      -7.131  11.663  18.230  0.00  0.00    +0.000 A 
ATOM     27  C   UNL     1      -6.541  12.514  17.306  0.00  0.00    +0.000 A 
ATOM     28  N   UNL     1      -5.268  12.346  16.859  0.00  0.00    +0.000 NA
ENDBRANCH  20  23
ENDBRANCH  18  19
ENDBRANCH   1  17
TORSDOF 5
ENDMDL
