MODEL 1
REMARK VINA RESULT:      -8.0      0.000      0.000
REMARK  Name = 
REMARK  11 active torsions:
REMARK  status: ('A' for Active; 'I' for Inactive)
REMARK    1  A    between atoms: C_1  and  C_2
REMARK    2  A    between atoms: C_2  and  O_3
REMARK    3  A    between atoms: O_3  and  C_4
REMARK    4  A    between atoms: C_7  and  C_8
REMARK    5  A    between atoms: C_8  and  C_9
REMARK    6  A    between atoms: C_13  and  C_14
REMARK    7  A    between atoms: C_16  and  C_17
REMARK    8  A    between atoms: C_17  and  O_18
REMARK    9  A    between atoms: C_19  and  O_20
REMARK   10  A    between atoms: C_21  and  O_22
REMARK   11  A    between atoms: C_23  and  O_24
REMARK                            x       y       z     vdW  Elec       q    Type
REMARK                         _______ _______ _______ _____ _____    ______ ____
ROOT
ATOM      1  C   UNL     1       6.732   5.664  16.909  0.00  0.00    +0.000 A 
ATOM      2  C   UNL     1       7.488   5.623  18.080  0.00  0.00    +0.000 A 
ATOM      3  C   UNL     1       6.855   5.455  19.308  0.00  0.00    +0.000 A 
ATOM      4  C   UNL     1       5.468   5.278  19.371  0.00  0.00    +0.000 A 
ATOM      5  C   UNL     1       4.680   5.250  18.208  0.00  0.00    +0.000 A 
ATOM      6  C   UNL     1       5.335   5.528  16.994  0.00  0.00    +0.000 A 
ENDROOT
BRANCH   5   7
ATOM      7  C   UNL     1       3.176   4.991  18.264  0.00  0.00    +0.000 C 
ATOM      8  S   UNL     1       2.504   4.545  19.924  0.00  0.00    +0.000 S 
ATOM      9  C   UNL     1       3.060   2.795  20.088  0.00  0.00    +0.000 C 
ATOM     10  C   UNL     1       2.679   1.928  18.875  0.00  0.00    +0.000 C 
ATOM     11  C   UNL     1       2.940   2.502  17.469  0.00  0.00    +0.000 C 
ATOM     12  C   UNL     1       2.563   3.986  17.250  0.00  0.00    +0.000 C 
BRANCH  10  13
ATOM     13  O   UNL     1       1.292   1.553  18.973  0.00  0.00    +0.000 OA
ATOM     14  H   UNL     1       1.237   0.579  19.007  0.00  0.00    +0.000 HD
ENDBRANCH  10  13
BRANCH  11  15
ATOM     15  O   UNL     1       4.304   2.254  17.128  0.00  0.00    +0.000 OA
ATOM     16  H   UNL     1       4.823   2.284  17.953  0.00  0.00    +0.000 HD
ENDBRANCH  11  15
BRANCH  12  17
ATOM     17  O   UNL     1       1.132   4.126  17.206  0.00  0.00    +0.000 OA
ATOM     18  H   UNL     1       0.785   3.402  16.653  0.00  0.00    +0.000 HD
ENDBRANCH  12  17
BRANCH   9  19
ATOM     19  C   UNL     1       4.522   2.642  20.536  0.00  0.00    +0.000 C 
BRANCH  19  20
ATOM     20  O   UNL     1       5.082   1.470  19.935  0.00  0.00    +0.000 OA
ATOM     21  H   UNL     1       6.050   1.545  19.982  0.00  0.00    +0.000 HD
ENDBRANCH  19  20
ENDBRANCH   9  19
ENDBRANCH   5   7
BRANCH   1  22
ATOM     22  C   UNL     1       7.403   5.760  15.553  0.00  0.00    +0.000 C 
BRANCH  22  26
ATOM     23  C   UNL     1       5.717   3.470  12.270  0.00  0.00    +0.000 A 
ATOM     24  C   UNL     1       5.022   3.562  13.470  0.00  0.00    +0.000 A 
ATOM     25  C   UNL     1       5.548   4.285  14.545  0.00  0.00    +0.000 A 
ATOM     26  C   UNL     1       6.790   4.929  14.437  0.00  0.00    +0.000 A 
ATOM     27  C   UNL     1       7.504   4.785  13.236  0.00  0.00    +0.000 A 
ATOM     28  C   UNL     1       6.977   4.055  12.162  0.00  0.00    +0.000 A 
BRANCH  23  29
ATOM     29  O   UNL     1       5.079   2.775  11.278  0.00  0.00    +0.000 OA
BRANCH  29  31
ATOM     30  C   UNL     1       3.394   3.960  10.075  0.00  0.00    +0.000 C 
ATOM     31  C   UNL     1       3.665   2.964  11.189  0.00  0.00    +0.000 C 
ENDBRANCH  29  31
ENDBRANCH  23  29
ENDBRANCH  22  26
ENDBRANCH   1  22
TORSDOF 10
ENDMDL
MODEL 2
REMARK VINA RESULT:      -7.7      0.911      1.166
REMARK  Name = 
REMARK  11 active torsions:
REMARK  status: ('A' for Active; 'I' for Inactive)
REMARK    1  A    between atoms: C_1  and  C_2
REMARK    2  A    between atoms: C_2  and  O_3
REMARK    3  A    between atoms: O_3  and  C_4
REMARK    4  A    between atoms: C_7  and  C_8
REMARK    5  A    between atoms: C_8  and  C_9
REMARK    6  A    between atoms: C_13  and  C_14
REMARK    7  A    between atoms: C_16  and  C_17
REMARK    8  A    between atoms: C_17  and  O_18
REMARK    9  A    between atoms: C_19  and  O_20
REMARK   10  A    between atoms: C_21  and  O_22
REMARK   11  A    between atoms: C_23  and  O_24
REMARK                            x       y       z     vdW  Elec       q    Type
REMARK                         _______ _______ _______ _____ _____    ______ ____
ROOT
ATOM      1  C   UNL     1       6.514   5.868  16.925  0.00  0.00    +0.000 A 
ATOM      2  C   UNL     1       7.337   5.755  18.046  0.00  0.00    +0.000 A 
ATOM      3  C   UNL     1       6.778   5.472  19.289  0.00  0.00    +0.000 A 
ATOM      4  C   UNL     1       5.402   5.253  19.414  0.00  0.00    +0.000 A 
ATOM      5  C   UNL     1       4.550   5.296  18.297  0.00  0.00    +0.000 A 
ATOM      6  C   UNL     1       5.128   5.688  17.075  0.00  0.00    +0.000 A 
ENDROOT
BRANCH   5   7
ATOM      7  C   UNL     1       3.057   4.992  18.414  0.00  0.00    +0.000 C 
ATOM      8  S   UNL     1       2.481   4.453  20.083  0.00  0.00    +0.000 S 
ATOM      9  C   UNL     1       3.090   2.713  20.138  0.00  0.00    +0.000 C 
ATOM     10  C   UNL     1       2.671   1.892  18.905  0.00  0.00    +0.000 C 
ATOM     11  C   UNL     1       2.846   2.537  17.517  0.00  0.00    +0.000 C 
ATOM     12  C   UNL     1       2.421   4.017  17.386  0.00  0.00    +0.000 C 
BRANCH  10  13
ATOM     13  O   UNL     1       1.301   1.474  19.054  0.00  0.00    +0.000 OA
ATOM     14  H   UNL     1       1.029   1.627  19.978  0.00  0.00    +0.000 HD
ENDBRANCH  10  13
BRANCH  11  15
ATOM     15  O   UNL     1       4.197   2.343  17.098  0.00  0.00    +0.000 OA
ATOM     16  H   UNL     1       4.232   1.505  16.598  0.00  0.00    +0.000 HD
ENDBRANCH  11  15
BRANCH  12  17
ATOM     17  O   UNL     1       0.985   4.120  17.418  0.00  0.00    +0.000 OA
ATOM     18  H   UNL     1       0.761   5.068  17.425  0.00  0.00    +0.000 HD
ENDBRANCH  12  17
BRANCH   9  19
ATOM     19  C   UNL     1       4.576   2.582  20.505  0.00  0.00    +0.000 C 
BRANCH  19  20
ATOM     20  O   UNL     1       5.142   1.471  19.802  0.00  0.00    +0.000 OA
ATOM     21  H   UNL     1       5.318   1.755  18.890  0.00  0.00    +0.000 HD
ENDBRANCH  19  20
ENDBRANCH   9  19
ENDBRANCH   5   7
BRANCH   1  22
ATOM     22  C   UNL     1       7.104   6.089  15.547  0.00  0.00    +0.000 C 
BRANCH  22  26
ATOM     23  C   UNL     1       6.097   3.264  12.405  0.00  0.00    +0.000 A 
ATOM     24  C   UNL     1       5.272   3.375  13.518  0.00  0.00    +0.000 A 
ATOM     25  C   UNL     1       5.580   4.270  14.548  0.00  0.00    +0.000 A 
ATOM     26  C   UNL     1       6.730   5.071  14.481  0.00  0.00    +0.000 A 
ATOM     27  C   UNL     1       7.581   4.913  13.374  0.00  0.00    +0.000 A 
ATOM     28  C   UNL     1       7.272   4.011  12.347  0.00  0.00    +0.000 A 
BRANCH  23  29
ATOM     29  O   UNL     1       5.667   2.390  11.444  0.00  0.00    +0.000 OA
BRANCH  29  31
ATOM     30  C   UNL     1       6.083   0.051  11.221  0.00  0.00    +0.000 C 
ATOM     31  C   UNL     1       6.634   1.446  10.977  0.00  0.00    +0.000 C 
ENDBRANCH  29  31
ENDBRANCH  23  29
ENDBRANCH  22  26
ENDBRANCH   1  22
TORSDOF 10
ENDMDL
MODEL 3
REMARK VINA RESULT:      -7.2      5.207      7.813
REMARK  Name = 
REMARK  11 active torsions:
REMARK  status: ('A' for Active; 'I' for Inactive)
REMARK    1  A    between atoms: C_1  and  C_2
REMARK    2  A    between atoms: C_2  and  O_3
REMARK    3  A    between atoms: O_3  and  C_4
REMARK    4  A    between atoms: C_7  and  C_8
REMARK    5  A    between atoms: C_8  and  C_9
REMARK    6  A    between atoms: C_13  and  C_14
REMARK    7  A    between atoms: C_16  and  C_17
REMARK    8  A    between atoms: C_17  and  O_18
REMARK    9  A    between atoms: C_19  and  O_20
REMARK   10  A    between atoms: C_21  and  O_22
REMARK   11  A    between atoms: C_23  and  O_24
REMARK                            x       y       z     vdW  Elec       q    Type
REMARK                         _______ _______ _______ _____ _____    ______ ____
ROOT
ATOM      1  C   UNL     1       1.962   8.298  18.781  0.00  0.00    +0.000 A 
ATOM      2  C   UNL     1       1.424   8.054  20.045  0.00  0.00    +0.000 A 
ATOM      3  C   UNL     1       1.770   6.895  20.732  0.00  0.00    +0.000 A 
ATOM      4  C   UNL     1       2.691   5.995  20.186  0.00  0.00    +0.000 A 
ATOM      5  C   UNL     1       3.304   6.238  18.945  0.00  0.00    +0.000 A 
ATOM      6  C   UNL     1       2.855   7.363  18.228  0.00  0.00    +0.000 A 
ENDROOT
BRANCH   5   7
ATOM      7  C   UNL     1       4.361   5.295  18.373  0.00  0.00    +0.000 C 
ATOM      8  S   UNL     1       3.899   4.435  16.807  0.00  0.00    +0.000 S 
ATOM      9  C   UNL     1       2.732   3.148  17.425  0.00  0.00    +0.000 C 
ATOM     10  C   UNL     1       3.311   2.319  18.586  0.00  0.00    +0.000 C 
ATOM     11  C   UNL     1       4.017   3.076  19.727  0.00  0.00    +0.000 C 
ATOM     12  C   UNL     1       4.972   4.218  19.311  0.00  0.00    +0.000 C 
BRANCH  10  13
ATOM     13  O   UNL     1       4.211   1.326  18.060  0.00  0.00    +0.000 OA
ATOM     14  H   UNL     1       3.787   0.900  17.291  0.00  0.00    +0.000 HD
ENDBRANCH  10  13
BRANCH  11  15
ATOM     15  O   UNL     1       3.024   3.533  20.645  0.00  0.00    +0.000 OA
ATOM     16  H   UNL     1       3.207   3.117  21.508  0.00  0.00    +0.000 HD
ENDBRANCH  11  15
BRANCH  12  17
ATOM     17  O   UNL     1       6.170   3.669  18.732  0.00  0.00    +0.000 OA
ATOM     18  H   UNL     1       6.377   2.848  19.216  0.00  0.00    +0.000 HD
ENDBRANCH  12  17
BRANCH   9  19
ATOM     19  C   UNL     1       1.306   3.664  17.671  0.00  0.00    +0.000 C 
BRANCH  19  20
ATOM     20  O   UNL     1       0.724   2.946  18.765  0.00  0.00    +0.000 OA
ATOM     21  H   UNL     1       0.094   2.304  18.398  0.00  0.00    +0.000 HD
ENDBRANCH  19  20
ENDBRANCH   9  19
ENDBRANCH   5   7
BRANCH   1  22
ATOM     22  C   UNL     1       1.670   9.592  18.049  0.00  0.00    +0.000 C 
BRANCH  22  26
ATOM     23  C   UNL     1      -2.337  11.192  18.548  0.00  0.00    +0.000 A 
ATOM     24  C   UNL     1      -2.134  10.097  17.715  0.00  0.00    +0.000 A 
ATOM     25  C   UNL     1      -0.852   9.570  17.530  0.00  0.00    +0.000 A 
ATOM     26  C   UNL     1       0.256  10.137  18.178  0.00  0.00    +0.000 A 
ATOM     27  C   UNL     1       0.044  11.273  18.976  0.00  0.00    +0.000 A 
ATOM     28  C   UNL     1      -1.241  11.803  19.154  0.00  0.00    +0.000 A 
BRANCH  23  29
ATOM     29  O   UNL     1      -3.640  11.587  18.685  0.00  0.00    +0.000 OA
BRANCH  29  31
ATOM     30  C   UNL     1      -5.515  12.162  17.326  0.00  0.00    +0.000 C 
ATOM     31  C   UNL     1      -4.562  11.051  17.733  0.00  0.00    +0.000 C 
ENDBRANCH  29  31
ENDBRANCH  23  29
ENDBRANCH  22  26
ENDBRANCH   1  22
TORSDOF 10
ENDMDL
MODEL 4
REMARK VINA RESULT:      -7.2      6.420      8.647
REMARK  Name = 
REMARK  11 active torsions:
REMARK  status: ('A' for Active; 'I' for Inactive)
REMARK    1  A    between atoms: C_1  and  C_2
REMARK    2  A    between atoms: C_2  and  O_3
REMARK    3  A    between atoms: O_3  and  C_4
REMARK    4  A    between atoms: C_7  and  C_8
REMARK    5  A    between atoms: C_8  and  C_9
REMARK    6  A    between atoms: C_13  and  C_14
REMARK    7  A    between atoms: C_16  and  C_17
REMARK    8  A    between atoms: C_17  and  O_18
REMARK    9  A    between atoms: C_19  and  O_20
REMARK   10  A    between atoms: C_21  and  O_22
REMARK   11  A    between atoms: C_23  and  O_24
REMARK                            x       y       z     vdW  Elec       q    Type
REMARK                         _______ _______ _______ _____ _____    ______ ____
ROOT
ATOM      1  C   UNL     1       1.738   8.683  19.032  0.00  0.00    +0.000 A 
ATOM      2  C   UNL     1       1.775   8.069  20.284  0.00  0.00    +0.000 A 
ATOM      3  C   UNL     1       0.886   8.468  21.277  0.00  0.00    +0.000 A 
ATOM      4  C   UNL     1      -0.078   9.448  21.014  0.00  0.00    +0.000 A 
ATOM      5  C   UNL     1      -0.188  10.043  19.745  0.00  0.00    +0.000 A 
ATOM      6  C   UNL     1       0.791   9.696  18.797  0.00  0.00    +0.000 A 
ENDROOT
BRANCH   5   7
ATOM      7  C   UNL     1      -1.280  11.064  19.430  0.00  0.00    +0.000 C 
ATOM      8  S   UNL     1      -0.965  12.144  17.967  0.00  0.00    +0.000 S 
ATOM      9  C   UNL     1       0.284  13.321  18.641  0.00  0.00    +0.000 C 
ATOM     10  C   UNL     1      -0.157  13.973  19.964  0.00  0.00    +0.000 C 
ATOM     11  C   UNL     1      -0.756  13.059  21.050  0.00  0.00    +0.000 C 
ATOM     12  C   UNL     1      -1.770  11.994  20.573  0.00  0.00    +0.000 C 
BRANCH  10  13
ATOM     13  O   UNL     1      -1.087  15.035  19.685  0.00  0.00    +0.000 OA
ATOM     14  H   UNL     1      -1.820  14.982  20.328  0.00  0.00    +0.000 HD
ENDBRANCH  10  13
BRANCH  11  15
ATOM     15  O   UNL     1       0.317  12.468  21.783  0.00  0.00    +0.000 OA
ATOM     16  H   UNL     1      -0.060  11.753  22.329  0.00  0.00    +0.000 HD
ENDBRANCH  11  15
BRANCH  12  17
ATOM     17  O   UNL     1      -3.011  12.627  20.209  0.00  0.00    +0.000 OA
ATOM     18  H   UNL     1      -3.161  13.357  20.838  0.00  0.00    +0.000 HD
ENDBRANCH  12  17
BRANCH   9  19
ATOM     19  C   UNL     1       1.718  12.769  18.659  0.00  0.00    +0.000 C 
BRANCH  19  20
ATOM     20  O   UNL     1       2.197  12.648  17.316  0.00  0.00    +0.000 OA
ATOM     21  H   UNL     1       2.678  11.806  17.246  0.00  0.00    +0.000 HD
ENDBRANCH  19  20
ENDBRANCH   9  19
ENDBRANCH   5   7
BRANCH   1  22
ATOM     22  C   UNL     1       2.636   8.209  17.907  0.00  0.00    +0.000 C 
BRANCH  22  26
ATOM     23  C   UNL     1       3.674   3.993  17.756  0.00  0.00    +0.000 A 
ATOM     24  C   UNL     1       2.340   4.368  17.872  0.00  0.00    +0.000 A 
ATOM     25  C   UNL     1       1.981   5.718  17.932  0.00  0.00    +0.000 A 
ATOM     26  C   UNL     1       2.959   6.723  17.881  0.00  0.00    +0.000 A 
ATOM     27  C   UNL     1       4.306   6.329  17.815  0.00  0.00    +0.000 A 
ATOM     28  C   UNL     1       4.663   4.976  17.761  0.00  0.00    +0.000 A 
BRANCH  23  29
ATOM     29  O   UNL     1       3.896   2.647  17.659  0.00  0.00    +0.000 OA
BRANCH  29  31
ATOM     30  C   UNL     1       4.397   2.290  19.964  0.00  0.00    +0.000 C 
ATOM     31  C   UNL     1       3.523   1.866  18.797  0.00  0.00    +0.000 C 
ENDBRANCH  29  31
ENDBRANCH  23  29
ENDBRANCH  22  26
ENDBRANCH   1  22
TORSDOF 10
ENDMDL
MODEL 5
REMARK VINA RESULT:      -7.1      5.009      8.220
REMARK  Name = 
REMARK  11 active torsions:
REMARK  status: ('A' for Active; 'I' for Inactive)
REMARK    1  A    between atoms: C_1  and  C_2
REMARK    2  A    between atoms: C_2  and  O_3
REMARK    3  A    between atoms: O_3  and  C_4
REMARK    4  A    between atoms: C_7  and  C_8
REMARK    5  A    between atoms: C_8  and  C_9
REMARK    6  A    between atoms: C_13  and  C_14
REMARK    7  A    between atoms: C_16  and  C_17
REMARK    8  A    between atoms: C_17  and  O_18
REMARK    9  A    between atoms: C_19  and  O_20
REMARK   10  A    between atoms: C_21  and  O_22
REMARK   11  A    between atoms: C_23  and  O_24
REMARK                            x       y       z     vdW  Elec       q    Type
REMARK                         _______ _______ _______ _____ _____    ______ ____
ROOT
ATOM      1  C   UNL     1       2.255   8.217  18.117  0.00  0.00    +0.000 A 
ATOM      2  C   UNL     1       3.367   8.315  17.281  0.00  0.00    +0.000 A 
ATOM      3  C   UNL     1       4.354   7.335  17.323  0.00  0.00    +0.000 A 
ATOM      4  C   UNL     1       4.216   6.226  18.165  0.00  0.00    +0.000 A 
ATOM      5  C   UNL     1       3.080   6.060  18.975  0.00  0.00    +0.000 A 
ATOM      6  C   UNL     1       2.152   7.118  18.989  0.00  0.00    +0.000 A 
ENDROOT
BRANCH   5   7
ATOM      7  C   UNL     1       2.891   4.819  19.847  0.00  0.00    +0.000 C 
ATOM      8  S   UNL     1       4.226   3.551  19.730  0.00  0.00    +0.000 S 
ATOM      9  C   UNL     1       3.849   2.768  18.104  0.00  0.00    +0.000 C 
ATOM     10  C   UNL     1       2.382   2.317  17.981  0.00  0.00    +0.000 C 
ATOM     11  C   UNL     1       1.286   3.301  18.432  0.00  0.00    +0.000 C 
ATOM     12  C   UNL     1       1.541   4.056  19.758  0.00  0.00    +0.000 C 
BRANCH  10  13
ATOM     13  O   UNL     1       2.206   1.072  18.682  0.00  0.00    +0.000 OA
ATOM     14  H   UNL     1       1.249   0.894  18.762  0.00  0.00    +0.000 HD
ENDBRANCH  10  13
BRANCH  11  15
ATOM     15  O   UNL     1       1.023   4.205  17.359  0.00  0.00    +0.000 OA
ATOM     16  H   UNL     1       0.430   3.751  16.732  0.00  0.00    +0.000 HD
ENDBRANCH  11  15
BRANCH  12  17
ATOM     17  O   UNL     1       1.399   3.154  20.870  0.00  0.00    +0.000 OA
ATOM     18  H   UNL     1       2.274   2.757  21.038  0.00  0.00    +0.000 HD
ENDBRANCH  12  17
BRANCH   9  19
ATOM     19  C   UNL     1       4.367   3.559  16.894  0.00  0.00    +0.000 C 
BRANCH  19  20
ATOM     20  O   UNL     1       5.773   3.338  16.749  0.00  0.00    +0.000 OA
ATOM     21  H   UNL     1       6.176   3.398  17.631  0.00  0.00    +0.000 HD
ENDBRANCH  19  20
ENDBRANCH   9  19
ENDBRANCH   5   7
BRANCH   1  22
ATOM     22  C   UNL     1       1.125   9.223  18.030  0.00  0.00    +0.000 C 
BRANCH  22  26
ATOM     23  C   UNL     1      -0.224  11.060  21.728  0.00  0.00    +0.000 A 
ATOM     24  C   UNL     1       0.511   9.882  21.776  0.00  0.00    +0.000 A 
ATOM     25  C   UNL     1       0.948   9.265  20.599  0.00  0.00    +0.000 A 
ATOM     26  C   UNL     1       0.651   9.821  19.346  0.00  0.00    +0.000 A 
ATOM     27  C   UNL     1      -0.135  10.985  19.310  0.00  0.00    +0.000 A 
ATOM     28  C   UNL     1      -0.576  11.597  20.490  0.00  0.00    +0.000 A 
BRANCH  23  29
ATOM     29  O   UNL     1      -0.554  11.592  22.944  0.00  0.00    +0.000 OA
BRANCH  29  31
ATOM     30  C   UNL     1      -2.565  12.781  23.431  0.00  0.00    +0.000 C 
ATOM     31  C   UNL     1      -1.139  12.897  22.921  0.00  0.00    +0.000 C 
ENDBRANCH  29  31
ENDBRANCH  23  29
ENDBRANCH  22  26
ENDBRANCH   1  22
TORSDOF 10
ENDMDL
MODEL 6
REMARK VINA RESULT:      -7.1      4.796      7.852
REMARK  Name = 
REMARK  11 active torsions:
REMARK  status: ('A' for Active; 'I' for Inactive)
REMARK    1  A    between atoms: C_1  and  C_2
REMARK    2  A    between atoms: C_2  and  O_3
REMARK    3  A    between atoms: O_3  and  C_4
REMARK    4  A    between atoms: C_7  and  C_8
REMARK    5  A    between atoms: C_8  and  C_9
REMARK    6  A    between atoms: C_13  and  C_14
REMARK    7  A    between atoms: C_16  and  C_17
REMARK    8  A    between atoms: C_17  and  O_18
REMARK    9  A    between atoms: C_19  and  O_20
REMARK   10  A    between atoms: C_21  and  O_22
REMARK   11  A    between atoms: C_23  and  O_24
REMARK                            x       y       z     vdW  Elec       q    Type
REMARK                         _______ _______ _______ _____ _____    ______ ____
ROOT
ATOM      1  C   UNL     1       2.692   8.007  17.950  0.00  0.00    +0.000 A 
ATOM      2  C   UNL     1       3.871   8.084  17.209  0.00  0.00    +0.000 A 
ATOM      3  C   UNL     1       4.860   7.119  17.380  0.00  0.00    +0.000 A 
ATOM      4  C   UNL     1       4.660   6.047  18.256  0.00  0.00    +0.000 A 
ATOM      5  C   UNL     1       3.460   5.901  18.972  0.00  0.00    +0.000 A 
ATOM      6  C   UNL     1       2.525   6.946  18.858  0.00  0.00    +0.000 A 
ENDROOT
BRANCH   5   7
ATOM      7  C   UNL     1       3.207   4.697  19.879  0.00  0.00    +0.000 C 
ATOM      8  S   UNL     1       4.349   3.267  19.642  0.00  0.00    +0.000 S 
ATOM      9  C   UNL     1       3.703   2.535  18.078  0.00  0.00    +0.000 C 
ATOM     10  C   UNL     1       2.186   2.276  18.117  0.00  0.00    +0.000 C 
ATOM     11  C   UNL     1       1.280   3.395  18.666  0.00  0.00    +0.000 C 
ATOM     12  C   UNL     1       1.769   4.114  19.944  0.00  0.00    +0.000 C 
BRANCH  10  13
ATOM     13  O   UNL     1       1.928   1.066  18.853  0.00  0.00    +0.000 OA
ATOM     14  H   UNL     1       2.082   1.241  19.801  0.00  0.00    +0.000 HD
ENDBRANCH  10  13
BRANCH  11  15
ATOM     15  O   UNL     1       1.022   4.322  17.612  0.00  0.00    +0.000 OA
ATOM     16  H   UNL     1       1.140   3.848  16.767  0.00  0.00    +0.000 HD
ENDBRANCH  11  15
BRANCH  12  17
ATOM     17  O   UNL     1       1.632   3.241  21.080  0.00  0.00    +0.000 OA
ATOM     18  H   UNL     1       1.753   3.783  21.881  0.00  0.00    +0.000 HD
ENDBRANCH  12  17
BRANCH   9  19
ATOM     19  C   UNL     1       4.186   3.250  16.807  0.00  0.00    +0.000 C 
BRANCH  19  20
ATOM     20  O   UNL     1       5.616   3.317  16.815  0.00  0.00    +0.000 OA
ATOM     21  H   UNL     1       5.957   2.435  16.589  0.00  0.00    +0.000 HD
ENDBRANCH  19  20
ENDBRANCH   9  19
ENDBRANCH   5   7
BRANCH   1  22
ATOM     22  C   UNL     1       1.565   8.994  17.722  0.00  0.00    +0.000 C 
BRANCH  22  26
ATOM     23  C   UNL     1       0.522  11.552  21.074  0.00  0.00    +0.000 A 
ATOM     24  C   UNL     1       1.010  12.120  19.903  0.00  0.00    +0.000 A 
ATOM     25  C   UNL     1       1.362  11.318  18.813  0.00  0.00    +0.000 A 
ATOM     26  C   UNL     1       1.234   9.922  18.880  0.00  0.00    +0.000 A 
ATOM     27  C   UNL     1       0.788   9.357  20.087  0.00  0.00    +0.000 A 
ATOM     28  C   UNL     1       0.441  10.164  21.179  0.00  0.00    +0.000 A 
BRANCH  23  29
ATOM     29  O   UNL     1       0.168  12.441  22.051  0.00  0.00    +0.000 OA
BRANCH  29  31
ATOM     30  C   UNL     1      -2.203  12.681  21.939  0.00  0.00    +0.000 C 
ATOM     31  C   UNL     1      -1.040  12.149  22.758  0.00  0.00    +0.000 C 
ENDBRANCH  29  31
ENDBRANCH  23  29
ENDBRANCH  22  26
ENDBRANCH   1  22
TORSDOF 10
ENDMDL
MODEL 7
REMARK VINA RESULT:      -7.0      5.300      8.173
REMARK  Name = 
REMARK  11 active torsions:
REMARK  status: ('A' for Active; 'I' for Inactive)
REMARK    1  A    between atoms: C_1  and  C_2
REMARK    2  A    between atoms: C_2  and  O_3
REMARK    3  A    between atoms: O_3  and  C_4
REMARK    4  A    between atoms: C_7  and  C_8
REMARK    5  A    between atoms: C_8  and  C_9
REMARK    6  A    between atoms: C_13  and  C_14
REMARK    7  A    between atoms: C_16  and  C_17
REMARK    8  A    between atoms: C_17  and  O_18
REMARK    9  A    between atoms: C_19  and  O_20
REMARK   10  A    between atoms: C_21  and  O_22
REMARK   11  A    between atoms: C_23  and  O_24
REMARK                            x       y       z     vdW  Elec       q    Type
REMARK                         _______ _______ _______ _____ _____    ______ ____
ROOT
ATOM      1  C   UNL     1       2.022   8.290  18.663  0.00  0.00    +0.000 A 
ATOM      2  C   UNL     1       1.509   8.092  19.945  0.00  0.00    +0.000 A 
ATOM      3  C   UNL     1       1.867   6.957  20.666  0.00  0.00    +0.000 A 
ATOM      4  C   UNL     1       2.775   6.036  20.133  0.00  0.00    +0.000 A 
ATOM      5  C   UNL     1       3.362   6.234  18.871  0.00  0.00    +0.000 A 
ATOM      6  C   UNL     1       2.900   7.334  18.125  0.00  0.00    +0.000 A 
ENDROOT
BRANCH   5   7
ATOM      7  C   UNL     1       4.405   5.268  18.311  0.00  0.00    +0.000 C 
ATOM      8  S   UNL     1       3.919   4.374  16.772  0.00  0.00    +0.000 S 
ATOM      9  C   UNL     1       2.748   3.112  17.434  0.00  0.00    +0.000 C 
ATOM     10  C   UNL     1       3.334   2.307  18.608  0.00  0.00    +0.000 C 
ATOM     11  C   UNL     1       4.059   3.086  19.723  0.00  0.00    +0.000 C 
ATOM     12  C   UNL     1       5.018   4.209  19.268  0.00  0.00    +0.000 C 
BRANCH  10  13
ATOM     13  O   UNL     1       4.220   1.295  18.097  0.00  0.00    +0.000 OA
ATOM     14  H   UNL     1       5.140   1.593  18.229  0.00  0.00    +0.000 HD
ENDBRANCH  10  13
BRANCH  11  15
ATOM     15  O   UNL     1       3.080   3.574  20.640  0.00  0.00    +0.000 OA
ATOM     16  H   UNL     1       3.532   4.175  21.260  0.00  0.00    +0.000 HD
ENDBRANCH  11  15
BRANCH  12  17
ATOM     17  O   UNL     1       6.205   3.636  18.690  0.00  0.00    +0.000 OA
ATOM     18  H   UNL     1       6.469   2.885  19.252  0.00  0.00    +0.000 HD
ENDBRANCH  12  17
BRANCH   9  19
ATOM     19  C   UNL     1       1.329   3.645  17.683  0.00  0.00    +0.000 C 
BRANCH  19  20
ATOM     20  O   UNL     1       0.787   3.023  18.852  0.00  0.00    +0.000 OA
ATOM     21  H   UNL     1       1.525   2.821  19.451  0.00  0.00    +0.000 HD
ENDBRANCH  19  20
ENDBRANCH   9  19
ENDBRANCH   5   7
BRANCH   1  22
ATOM     22  C   UNL     1       1.717   9.559  17.892  0.00  0.00    +0.000 C 
BRANCH  22  26
ATOM     23  C   UNL     1      -1.852  11.703  19.131  0.00  0.00    +0.000 A 
ATOM     24  C   UNL     1      -1.965  10.630  18.254  0.00  0.00    +0.000 A 
ATOM     25  C   UNL     1      -0.831   9.930  17.833  0.00  0.00    +0.000 A 
ATOM     26  C   UNL     1       0.446  10.298  18.282  0.00  0.00    +0.000 A 
ATOM     27  C   UNL     1       0.552  11.415  19.127  0.00  0.00    +0.000 A 
ATOM     28  C   UNL     1      -0.586  12.118  19.543  0.00  0.00    +0.000 A 
BRANCH  23  29
ATOM     29  O   UNL     1      -3.035  12.278  19.507  0.00  0.00    +0.000 OA
BRANCH  29  31
ATOM     30  C   UNL     1      -4.555  12.767  21.280  0.00  0.00    +0.000 C 
ATOM     31  C   UNL     1      -3.098  12.762  20.850  0.00  0.00    +0.000 C 
ENDBRANCH  29  31
ENDBRANCH  23  29
ENDBRANCH  22  26
ENDBRANCH   1  22
TORSDOF 10
ENDMDL
MODEL 8
REMARK VINA RESULT:      -6.9      5.174      7.995
REMARK  Name = 
REMARK  11 active torsions:
REMARK  status: ('A' for Active; 'I' for Inactive)
REMARK    1  A    between atoms: C_1  and  C_2
REMARK    2  A    between atoms: C_2  and  O_3
REMARK    3  A    between atoms: O_3  and  C_4
REMARK    4  A    between atoms: C_7  and  C_8
REMARK    5  A    between atoms: C_8  and  C_9
REMARK    6  A    between atoms: C_13  and  C_14
REMARK    7  A    between atoms: C_16  and  C_17
REMARK    8  A    between atoms: C_17  and  O_18
REMARK    9  A    between atoms: C_19  and  O_20
REMARK   10  A    between atoms: C_21  and  O_22
REMARK   11  A    between atoms: C_23  and  O_24
REMARK                            x       y       z     vdW  Elec       q    Type
REMARK                         _______ _______ _______ _____ _____    ______ ____
ROOT
ATOM      1  C   UNL     1       2.309   8.196  18.008  0.00  0.00    +0.000 A 
ATOM      2  C   UNL     1       3.434   8.309  17.191  0.00  0.00    +0.000 A 
ATOM      3  C   UNL     1       4.446   7.358  17.271  0.00  0.00    +0.000 A 
ATOM      4  C   UNL     1       4.322   6.261  18.131  0.00  0.00    +0.000 A 
ATOM      5  C   UNL     1       3.175   6.079  18.922  0.00  0.00    +0.000 A 
ATOM      6  C   UNL     1       2.219   7.111  18.898  0.00  0.00    +0.000 A 
ENDROOT
BRANCH   5   7
ATOM      7  C   UNL     1       3.002   4.850  19.813  0.00  0.00    +0.000 C 
ATOM      8  S   UNL     1       4.302   3.551  19.643  0.00  0.00    +0.000 S 
ATOM      9  C   UNL     1       3.828   2.763  18.044  0.00  0.00    +0.000 C 
ATOM     10  C   UNL     1       2.347   2.344  17.998  0.00  0.00    +0.000 C 
ATOM     11  C   UNL     1       1.297   3.356  18.494  0.00  0.00    +0.000 C 
ATOM     12  C   UNL     1       1.634   4.115  19.798  0.00  0.00    +0.000 C 
BRANCH  10  13
ATOM     13  O   UNL     1       2.179   1.109  18.718  0.00  0.00    +0.000 OA
ATOM     14  H   UNL     1       2.627   0.397  18.222  0.00  0.00    +0.000 HD
ENDBRANCH  10  13
BRANCH  11  15
ATOM     15  O   UNL     1       1.001   4.256  17.427  0.00  0.00    +0.000 OA
ATOM     16  H   UNL     1       1.832   4.426  16.945  0.00  0.00    +0.000 HD
ENDBRANCH  11  15
BRANCH  12  17
ATOM     17  O   UNL     1       1.527   3.226  20.924  0.00  0.00    +0.000 OA
ATOM     18  H   UNL     1       1.045   2.433  20.625  0.00  0.00    +0.000 HD
ENDBRANCH  12  17
BRANCH   9  19
ATOM     19  C   UNL     1       4.302   3.533  16.803  0.00  0.00    +0.000 C 
BRANCH  19  20
ATOM     20  O   UNL     1       5.671   3.208  16.537  0.00  0.00    +0.000 OA
ATOM     21  H   UNL     1       5.875   2.378  17.000  0.00  0.00    +0.000 HD
ENDBRANCH  19  20
ENDBRANCH   9  19
ENDBRANCH   5   7
BRANCH   1  22
ATOM     22  C   UNL     1       1.154   9.169  17.880  0.00  0.00    +0.000 C 
BRANCH  22  26
ATOM     23  C   UNL     1       1.157  12.456  20.720  0.00  0.00    +0.000 A 
ATOM     24  C   UNL     1       0.521  11.264  21.050  0.00  0.00    +0.000 A 
ATOM     25  C   UNL     1       0.498  10.195  20.149  0.00  0.00    +0.000 A 
ATOM     26  C   UNL     1       1.112  10.303  18.892  0.00  0.00    +0.000 A 
ATOM     27  C   UNL     1       1.707  11.530  18.552  0.00  0.00    +0.000 A 
ATOM     28  C   UNL     1       1.724  12.601  19.454  0.00  0.00    +0.000 A 
BRANCH  23  29
ATOM     29  O   UNL     1       1.153  13.410  21.700  0.00  0.00    +0.000 OA
BRANCH  29  31
ATOM     30  C   UNL     1      -0.797  14.775  21.544  0.00  0.00    +0.000 C 
ATOM     31  C   UNL     1       0.702  14.709  21.308  0.00  0.00    +0.000 C 
ENDBRANCH  29  31
ENDBRANCH  23  29
ENDBRANCH  22  26
ENDBRANCH   1  22
TORSDOF 10
ENDMDL
MODEL 9
REMARK VINA RESULT:      -6.9      5.300      7.875
REMARK  Name = 
REMARK  11 active torsions:
REMARK  status: ('A' for Active; 'I' for Inactive)
REMARK    1  A    between atoms: C_1  and  C_2
REMARK    2  A    between atoms: C_2  and  O_3
REMARK    3  A    between atoms: O_3  and  C_4
REMARK    4  A    between atoms: C_7  and  C_8
REMARK    5  A    between atoms: C_8  and  C_9
REMARK    6  A    between atoms: C_13  and  C_14
REMARK    7  A    between atoms: C_16  and  C_17
REMARK    8  A    between atoms: C_17  and  O_18
REMARK    9  A    between atoms: C_19  and  O_20
REMARK   10  A    between atoms: C_21  and  O_22
REMARK   11  A    between atoms: C_23  and  O_24
REMARK                            x       y       z     vdW  Elec       q    Type
REMARK                         _______ _______ _______ _____ _____    ______ ____
ROOT
ATOM      1  C   UNL     1       1.731   8.703  19.280  0.00  0.00    +0.000 A 
ATOM      2  C   UNL     1       2.310   8.915  18.029  0.00  0.00    +0.000 A 
ATOM      3  C   UNL     1       3.056   7.904  17.432  0.00  0.00    +0.000 A 
ATOM      4  C   UNL     1       3.192   6.659  18.056  0.00  0.00    +0.000 A 
ATOM      5  C   UNL     1       2.571   6.387  19.287  0.00  0.00    +0.000 A 
ATOM      6  C   UNL     1       1.913   7.461  19.914  0.00  0.00    +0.000 A 
ENDROOT
BRANCH   5   7
ATOM      7  C   UNL     1       2.658   5.010  19.943  0.00  0.00    +0.000 C 
ATOM      8  S   UNL     1       4.234   4.092  19.664  0.00  0.00    +0.000 S 
ATOM      9  C   UNL     1       4.025   3.521  17.923  0.00  0.00    +0.000 C 
ATOM     10  C   UNL     1       2.689   2.794  17.687  0.00  0.00    +0.000 C 
ATOM     11  C   UNL     1       1.410   3.435  18.258  0.00  0.00    +0.000 C 
ATOM     12  C   UNL     1       1.504   4.001  19.694  0.00  0.00    +0.000 C 
BRANCH  10  13
ATOM     13  O   UNL     1       2.788   1.443  18.174  0.00  0.00    +0.000 OA
ATOM     14  H   UNL     1       3.701   1.129  18.031  0.00  0.00    +0.000 HD
ENDBRANCH  10  13
BRANCH  11  15
ATOM     15  O   UNL     1       0.952   4.424  17.336  0.00  0.00    +0.000 OA
ATOM     16  H   UNL     1       0.014   4.602  17.537  0.00  0.00    +0.000 HD
ENDBRANCH  11  15
BRANCH  12  17
ATOM     17  O   UNL     1       1.566   2.921  20.643  0.00  0.00    +0.000 OA
ATOM     18  H   UNL     1       0.963   2.222  20.329  0.00  0.00    +0.000 HD
ENDBRANCH  12  17
BRANCH   9  19
ATOM     19  C   UNL     1       4.353   4.591  16.871  0.00  0.00    +0.000 C 
BRANCH  19  20
ATOM     20  O   UNL     1       5.378   4.101  16.001  0.00  0.00    +0.000 OA
ATOM     21  H   UNL     1       6.214   4.101  16.496  0.00  0.00    +0.000 HD
ENDBRANCH  19  20
ENDBRANCH   9  19
ENDBRANCH   5   7
BRANCH   1  22
ATOM     22  C   UNL     1       0.843   9.755  19.914  0.00  0.00    +0.000 C 
BRANCH  22  26
ATOM     23  C   UNL     1      -2.610  11.135  17.668  0.00  0.00    +0.000 A 
ATOM     24  C   UNL     1      -1.851  10.079  17.179  0.00  0.00    +0.000 A 
ATOM     25  C   UNL     1      -0.729   9.622  17.877  0.00  0.00    +0.000 A 
ATOM     26  C   UNL     1      -0.344  10.224  19.086  0.00  0.00    +0.000 A 
ATOM     27  C   UNL     1      -1.090  11.323  19.543  0.00  0.00    +0.000 A 
ATOM     28  C   UNL     1      -2.210  11.781  18.837  0.00  0.00    +0.000 A 
BRANCH  23  29
ATOM     29  O   UNL     1      -3.709  11.461  16.920  0.00  0.00    +0.000 OA
BRANCH  29  31
ATOM     30  C   UNL     1      -5.628  10.758  18.151  0.00  0.00    +0.000 C 
ATOM     31  C   UNL     1      -4.838  11.953  17.646  0.00  0.00    +0.000 C 
ENDBRANCH  29  31
ENDBRANCH  23  29
ENDBRANCH  22  26
ENDBRANCH   1  22
TORSDOF 10
ENDMDL
