MODEL 1
REMARK VINA RESULT:      -6.7      0.000      0.000
REMARK  Name = 
REMARK  14 active torsions:
REMARK  status: ('A' for Active; 'I' for Inactive)
REMARK    1  A    between atoms: C_2  and  C_3
REMARK    2  A    between atoms: C_3  and  O_4
REMARK    3  A    between atoms: O_4  and  C_5
REMARK    4  A    between atoms: N_7  and  C_8
REMARK    5  A    between atoms: C_8  and  C_9
REMARK    6  A    between atoms: C_8  and  C_13
REMARK    7  A    between atoms: C_9  and  C_10
REMARK    8  A    between atoms: C_10  and  O_12
REMARK    9  A    between atoms: C_13  and  C_15
REMARK   10  A    between atoms: C_15  and  N_16
REMARK   11  A    between atoms: N_16  and  C_17
REMARK   12  A    between atoms: C_17  and  C_18
REMARK   13  A    between atoms: C_18  and  C_19
REMARK   14  A    between atoms: C_19  and  C_20
REMARK                            x       y       z     vdW  Elec       q    Type
REMARK                         _______ _______ _______ _____ _____    ______ ____
ROOT
ATOM      1  C   UNL     1       5.523   4.371  17.735  0.00  0.00    +0.000 C 
ENDROOT
BRANCH   1   4
ATOM      2  C   UNL     1       6.882   4.572  15.671  0.00  0.00    +0.000 C 
ATOM      3  O   UNL     1       7.929   4.443  16.297  0.00  0.00    +0.000 OA
ATOM      4  N   UNL     1       5.657   4.529  16.287  0.00  0.00    +0.000 N 
ATOM      5  H   UNL     1       4.825   4.520  15.707  0.00  0.00    +0.000 HD
BRANCH   2   6
ATOM      6  O   UNL     1       6.780   4.811  14.348  0.00  0.00    +0.000 OA
BRANCH   6   7
ATOM      7  C   UNL     1       5.720   4.077  13.720  0.00  0.00    +0.000 C 
BRANCH   7   9
ATOM      8  C   UNL     1       5.495   2.612  11.716  0.00  0.00    +0.000 C 
ATOM      9  C   UNL     1       6.236   3.433  12.471  0.00  0.00    +0.000 C 
ENDBRANCH   7   9
ENDBRANCH   6   7
ENDBRANCH   2   6
ENDBRANCH   1   4
BRANCH   1  10
ATOM     10  C   UNL     1       4.191   3.654  18.039  0.00  0.00    +0.000 C 
ATOM     11  O   UNL     1       3.279   3.645  17.199  0.00  0.00    +0.000 OA
BRANCH  10  12
ATOM     12  C   UNL     1       4.066   2.910  19.379  0.00  0.00    +0.000 C 
BRANCH  12  13
ATOM     13  N   UNL     1       2.712   2.958  19.948  0.00  0.00    +0.000 NA
ATOM     14  H   UNL     1       2.544   2.084  20.452  0.00  0.00    +0.000 HD
BRANCH  13  15
ATOM     15  C   UNL     1       2.538   4.092  20.858  0.00  0.00    +0.000 C 
BRANCH  15  16
ATOM     16  C   UNL     1       1.570   5.105  20.253  0.00  0.00    +0.000 C 
BRANCH  16  17
ATOM     17  C   UNL     1       1.697   6.470  20.939  0.00  0.00    +0.000 C 
BRANCH  17  18
ATOM     18  C   UNL     1       1.823   7.570  19.914  0.00  0.00    +0.000 A 
ATOM     19  C   UNL     1       1.170   8.794  20.107  0.00  0.00    +0.000 A 
ATOM     20  C   UNL     1       1.190   9.772  19.111  0.00  0.00    +0.000 A 
ATOM     21  C   UNL     1       1.876   9.539  17.921  0.00  0.00    +0.000 A 
ATOM     22  C   UNL     1       2.553   8.336  17.730  0.00  0.00    +0.000 A 
ATOM     23  C   UNL     1       2.525   7.354  18.721  0.00  0.00    +0.000 A 
ENDBRANCH  17  18
ENDBRANCH  16  17
ENDBRANCH  15  16
ENDBRANCH  13  15
ENDBRANCH  12  13
ENDBRANCH  10  12
ENDBRANCH   1  10
BRANCH   1  24
ATOM     24  C   UNL     1       5.701   5.686  18.512  0.00  0.00    +0.000 C 
BRANCH  24  25
ATOM     25  C   UNL     1       7.043   5.773  19.185  0.00  0.00    +0.000 C 
ATOM     26  O   UNL     1       7.386   5.136  20.166  0.00  0.00    +0.000 OA
BRANCH  25  27
ATOM     27  O   UNL     1       7.883   6.631  18.557  0.00  0.00    +0.000 OA
ATOM     28  H   UNL     1       8.750   6.742  18.995  0.00  0.00    +0.000 HD
ENDBRANCH  25  27
ENDBRANCH  24  25
ENDBRANCH   1  24
TORSDOF 14
ENDMDL
MODEL 2
REMARK VINA RESULT:      -6.6      4.231      6.397
REMARK  Name = 
REMARK  14 active torsions:
REMARK  status: ('A' for Active; 'I' for Inactive)
REMARK    1  A    between atoms: C_2  and  C_3
REMARK    2  A    between atoms: C_3  and  O_4
REMARK    3  A    between atoms: O_4  and  C_5
REMARK    4  A    between atoms: N_7  and  C_8
REMARK    5  A    between atoms: C_8  and  C_9
REMARK    6  A    between atoms: C_8  and  C_13
REMARK    7  A    between atoms: C_9  and  C_10
REMARK    8  A    between atoms: C_10  and  O_12
REMARK    9  A    between atoms: C_13  and  C_15
REMARK   10  A    between atoms: C_15  and  N_16
REMARK   11  A    between atoms: N_16  and  C_17
REMARK   12  A    between atoms: C_17  and  C_18
REMARK   13  A    between atoms: C_18  and  C_19
REMARK   14  A    between atoms: C_19  and  C_20
REMARK                            x       y       z     vdW  Elec       q    Type
REMARK                         _______ _______ _______ _____ _____    ______ ____
ROOT
ATOM      1  C   UNL     1       5.709   4.715  17.588  0.00  0.00    +0.000 C 
ENDROOT
BRANCH   1   4
ATOM      2  C   UNL     1       5.403   5.145  15.165  0.00  0.00    +0.000 C 
ATOM      3  O   UNL     1       5.500   6.357  15.325  0.00  0.00    +0.000 OA
ATOM      4  N   UNL     1       5.514   4.264  16.211  0.00  0.00    +0.000 N 
ATOM      5  H   UNL     1       5.547   3.271  16.004  0.00  0.00    +0.000 HD
BRANCH   2   6
ATOM      6  O   UNL     1       5.141   4.522  13.999  0.00  0.00    +0.000 OA
BRANCH   6   7
ATOM      7  C   UNL     1       6.279   3.843  13.450  0.00  0.00    +0.000 C 
BRANCH   7   9
ATOM      8  C   UNL     1       4.649   3.182  11.684  0.00  0.00    +0.000 C 
ATOM      9  C   UNL     1       5.912   3.257  12.123  0.00  0.00    +0.000 C 
ENDBRANCH   7   9
ENDBRANCH   6   7
ENDBRANCH   2   6
ENDBRANCH   1   4
BRANCH   1  10
ATOM     10  C   UNL     1       7.203   5.033  17.804  0.00  0.00    +0.000 C 
ATOM     11  O   UNL     1       8.076   4.295  17.323  0.00  0.00    +0.000 OA
BRANCH  10  12
ATOM     12  C   UNL     1       7.560   6.314  18.575  0.00  0.00    +0.000 C 
BRANCH  12  13
ATOM     13  N   UNL     1       7.009   7.533  17.965  0.00  0.00    +0.000 NA
ATOM     14  H   UNL     1       6.486   8.043  18.682  0.00  0.00    +0.000 HD
BRANCH  13  15
ATOM     15  C   UNL     1       8.058   8.395  17.416  0.00  0.00    +0.000 C 
BRANCH  15  16
ATOM     16  C   UNL     1       8.503   9.411  18.464  0.00  0.00    +0.000 C 
BRANCH  16  17
ATOM     17  C   UNL     1       8.751  10.785  17.832  0.00  0.00    +0.000 C 
BRANCH  17  18
ATOM     18  C   UNL     1      10.045  11.377  18.336  0.00  0.00    +0.000 A 
ATOM     19  C   UNL     1      10.445  11.175  19.663  0.00  0.00    +0.000 A 
ATOM     20  C   UNL     1      11.581  11.813  20.164  0.00  0.00    +0.000 A 
ATOM     21  C   UNL     1      12.333  12.645  19.338  0.00  0.00    +0.000 A 
ATOM     22  C   UNL     1      11.960  12.830  18.008  0.00  0.00    +0.000 A 
ATOM     23  C   UNL     1      10.819  12.201  17.509  0.00  0.00    +0.000 A 
ENDBRANCH  17  18
ENDBRANCH  16  17
ENDBRANCH  15  16
ENDBRANCH  13  15
ENDBRANCH  12  13
ENDBRANCH  10  12
ENDBRANCH   1  10
BRANCH   1  24
ATOM     24  C   UNL     1       5.131   3.748  18.635  0.00  0.00    +0.000 C 
BRANCH  24  25
ATOM     25  C   UNL     1       3.639   3.876  18.767  0.00  0.00    +0.000 C 
ATOM     26  O   UNL     1       2.922   4.567  18.063  0.00  0.00    +0.000 OA
BRANCH  25  27
ATOM     27  O   UNL     1       3.137   3.096  19.754  0.00  0.00    +0.000 OA
ATOM     28  H   UNL     1       2.190   3.245  19.947  0.00  0.00    +0.000 HD
ENDBRANCH  25  27
ENDBRANCH  24  25
ENDBRANCH   1  24
TORSDOF 14
ENDMDL
MODEL 3
REMARK VINA RESULT:      -6.5      4.243      6.810
REMARK  Name = 
REMARK  14 active torsions:
REMARK  status: ('A' for Active; 'I' for Inactive)
REMARK    1  A    between atoms: C_2  and  C_3
REMARK    2  A    between atoms: C_3  and  O_4
REMARK    3  A    between atoms: O_4  and  C_5
REMARK    4  A    between atoms: N_7  and  C_8
REMARK    5  A    between atoms: C_8  and  C_9
REMARK    6  A    between atoms: C_8  and  C_13
REMARK    7  A    between atoms: C_9  and  C_10
REMARK    8  A    between atoms: C_10  and  O_12
REMARK    9  A    between atoms: C_13  and  C_15
REMARK   10  A    between atoms: C_15  and  N_16
REMARK   11  A    between atoms: N_16  and  C_17
REMARK   12  A    between atoms: C_17  and  C_18
REMARK   13  A    between atoms: C_18  and  C_19
REMARK   14  A    between atoms: C_19  and  C_20
REMARK                            x       y       z     vdW  Elec       q    Type
REMARK                         _______ _______ _______ _____ _____    ______ ____
ROOT
ATOM      1  C   UNL     1       6.715   4.689  17.997  0.00  0.00    +0.000 C 
ENDROOT
BRANCH   1   4
ATOM      2  C   UNL     1       4.294   4.599  18.525  0.00  0.00    +0.000 C 
ATOM      3  O   UNL     1       4.480   3.804  19.440  0.00  0.00    +0.000 OA
ATOM      4  N   UNL     1       5.329   5.103  17.779  0.00  0.00    +0.000 N 
ATOM      5  H   UNL     1       5.131   5.847  17.118  0.00  0.00    +0.000 HD
BRANCH   2   6
ATOM      6  O   UNL     1       3.095   5.048  18.102  0.00  0.00    +0.000 OA
BRANCH   6   7
ATOM      7  C   UNL     1       2.239   4.005  17.616  0.00  0.00    +0.000 C 
BRANCH   7   9
ATOM      8  C   UNL     1       0.789   2.392  18.842  0.00  0.00    +0.000 C 
ATOM      9  C   UNL     1       1.252   3.638  18.679  0.00  0.00    +0.000 C 
ENDBRANCH   7   9
ENDBRANCH   6   7
ENDBRANCH   2   6
ENDBRANCH   1   4
BRANCH   1  10
ATOM     10  C   UNL     1       7.395   5.696  18.948  0.00  0.00    +0.000 C 
ATOM     11  O   UNL     1       7.387   5.504  20.174  0.00  0.00    +0.000 OA
BRANCH  10  12
ATOM     12  C   UNL     1       8.126   6.894  18.321  0.00  0.00    +0.000 C 
BRANCH  12  13
ATOM     13  N   UNL     1       7.269   7.705  17.444  0.00  0.00    +0.000 NA
ATOM     14  H   UNL     1       6.293   7.527  17.694  0.00  0.00    +0.000 HD
BRANCH  13  15
ATOM     15  C   UNL     1       7.556   9.136  17.568  0.00  0.00    +0.000 C 
BRANCH  15  16
ATOM     16  C   UNL     1       8.667   9.361  18.590  0.00  0.00    +0.000 C 
BRANCH  16  17
ATOM     17  C   UNL     1       9.544  10.556  18.199  0.00  0.00    +0.000 C 
BRANCH  17  18
ATOM     18  C   UNL     1       9.602  11.562  19.322  0.00  0.00    +0.000 A 
ATOM     19  C   UNL     1      10.048  12.868  19.078  0.00  0.00    +0.000 A 
ATOM     20  C   UNL     1      10.212  13.768  20.132  0.00  0.00    +0.000 A 
ATOM     21  C   UNL     1       9.917  13.374  21.436  0.00  0.00    +0.000 A 
ATOM     22  C   UNL     1       9.446  12.086  21.685  0.00  0.00    +0.000 A 
ATOM     23  C   UNL     1       9.292  11.183  20.634  0.00  0.00    +0.000 A 
ENDBRANCH  17  18
ENDBRANCH  16  17
ENDBRANCH  15  16
ENDBRANCH  13  15
ENDBRANCH  12  13
ENDBRANCH  10  12
ENDBRANCH   1  10
BRANCH   1  24
ATOM     24  C   UNL     1       7.496   4.458  16.692  0.00  0.00    +0.000 C 
BRANCH  24  25
ATOM     25  C   UNL     1       6.661   4.738  15.473  0.00  0.00    +0.000 C 
ATOM     26  O   UNL     1       6.238   5.832  15.140  0.00  0.00    +0.000 OA
BRANCH  25  27
ATOM     27  O   UNL     1       6.444   3.628  14.727  0.00  0.00    +0.000 OA
ATOM     28  H   UNL     1       6.009   2.896  15.208  0.00  0.00    +0.000 HD
ENDBRANCH  25  27
ENDBRANCH  24  25
ENDBRANCH   1  24
TORSDOF 14
ENDMDL
MODEL 4
REMARK VINA RESULT:      -6.4      2.704      5.041
REMARK  Name = 
REMARK  14 active torsions:
REMARK  status: ('A' for Active; 'I' for Inactive)
REMARK    1  A    between atoms: C_2  and  C_3
REMARK    2  A    between atoms: C_3  and  O_4
REMARK    3  A    between atoms: O_4  and  C_5
REMARK    4  A    between atoms: N_7  and  C_8
REMARK    5  A    between atoms: C_8  and  C_9
REMARK    6  A    between atoms: C_8  and  C_13
REMARK    7  A    between atoms: C_9  and  C_10
REMARK    8  A    between atoms: C_10  and  O_12
REMARK    9  A    between atoms: C_13  and  C_15
REMARK   10  A    between atoms: C_15  and  N_16
REMARK   11  A    between atoms: N_16  and  C_17
REMARK   12  A    between atoms: C_17  and  C_18
REMARK   13  A    between atoms: C_18  and  C_19
REMARK   14  A    between atoms: C_19  and  C_20
REMARK                            x       y       z     vdW  Elec       q    Type
REMARK                         _______ _______ _______ _____ _____    ______ ____
ROOT
ATOM      1  C   UNL     1       4.726   6.343  16.938  0.00  0.00    +0.000 C 
ENDROOT
BRANCH   1   4
ATOM      2  C   UNL     1       7.120   6.756  16.444  0.00  0.00    +0.000 C 
ATOM      3  O   UNL     1       7.158   5.828  15.643  0.00  0.00    +0.000 OA
ATOM      4  N   UNL     1       5.969   7.095  17.109  0.00  0.00    +0.000 N 
ATOM      5  H   UNL     1       5.965   7.942  17.666  0.00  0.00    +0.000 HD
BRANCH   2   6
ATOM      6  O   UNL     1       8.166   7.523  16.812  0.00  0.00    +0.000 OA
BRANCH   6   7
ATOM      7  C   UNL     1       8.038   8.060  18.136  0.00  0.00    +0.000 C 
BRANCH   7   9
ATOM      8  C   UNL     1       9.233  10.090  18.947  0.00  0.00    +0.000 C 
ATOM      9  C   UNL     1       8.356   9.522  18.110  0.00  0.00    +0.000 C 
ENDBRANCH   7   9
ENDBRANCH   6   7
ENDBRANCH   2   6
ENDBRANCH   1   4
BRANCH   1  10
ATOM     10  C   UNL     1       3.551   7.192  17.464  0.00  0.00    +0.000 C 
ATOM     11  O   UNL     1       3.418   8.371  17.101  0.00  0.00    +0.000 OA
BRANCH  10  12
ATOM     12  C   UNL     1       2.532   6.511  18.392  0.00  0.00    +0.000 C 
BRANCH  12  13
ATOM     13  N   UNL     1       2.732   6.832  19.813  0.00  0.00    +0.000 NA
ATOM     14  H   UNL     1       2.857   7.843  19.899  0.00  0.00    +0.000 HD
BRANCH  13  15
ATOM     15  C   UNL     1       1.600   6.403  20.637  0.00  0.00    +0.000 C 
BRANCH  15  16
ATOM     16  C   UNL     1       1.895   5.042  21.263  0.00  0.00    +0.000 C 
BRANCH  16  17
ATOM     17  C   UNL     1       1.126   3.926  20.547  0.00  0.00    +0.000 C 
BRANCH  17  18
ATOM     18  C   UNL     1       2.052   3.122  19.668  0.00  0.00    +0.000 A 
ATOM     19  C   UNL     1       1.726   2.888  18.326  0.00  0.00    +0.000 A 
ATOM     20  C   UNL     1       2.521   2.051  17.541  0.00  0.00    +0.000 A 
ATOM     21  C   UNL     1       3.656   1.455  18.086  0.00  0.00    +0.000 A 
ATOM     22  C   UNL     1       4.005   1.705  19.412  0.00  0.00    +0.000 A 
ATOM     23  C   UNL     1       3.206   2.533  20.201  0.00  0.00    +0.000 A 
ENDBRANCH  17  18
ENDBRANCH  16  17
ENDBRANCH  15  16
ENDBRANCH  13  15
ENDBRANCH  12  13
ENDBRANCH  10  12
ENDBRANCH   1  10
BRANCH   1  24
ATOM     24  C   UNL     1       4.779   4.930  17.544  0.00  0.00    +0.000 C 
BRANCH  24  25
ATOM     25  C   UNL     1       5.742   4.841  18.696  0.00  0.00    +0.000 C 
ATOM     26  O   UNL     1       5.563   5.310  19.807  0.00  0.00    +0.000 OA
BRANCH  25  27
ATOM     27  O   UNL     1       6.855   4.132  18.387  0.00  0.00    +0.000 OA
ATOM     28  H   UNL     1       7.348   4.470  17.613  0.00  0.00    +0.000 HD
ENDBRANCH  25  27
ENDBRANCH  24  25
ENDBRANCH   1  24
TORSDOF 14
ENDMDL
MODEL 5
REMARK VINA RESULT:      -6.3      1.647      2.709
REMARK  Name = 
REMARK  14 active torsions:
REMARK  status: ('A' for Active; 'I' for Inactive)
REMARK    1  A    between atoms: C_2  and  C_3
REMARK    2  A    between atoms: C_3  and  O_4
REMARK    3  A    between atoms: O_4  and  C_5
REMARK    4  A    between atoms: N_7  and  C_8
REMARK    5  A    between atoms: C_8  and  C_9
REMARK    6  A    between atoms: C_8  and  C_13
REMARK    7  A    between atoms: C_9  and  C_10
REMARK    8  A    between atoms: C_10  and  O_12
REMARK    9  A    between atoms: C_13  and  C_15
REMARK   10  A    between atoms: C_15  and  N_16
REMARK   11  A    between atoms: N_16  and  C_17
REMARK   12  A    between atoms: C_17  and  C_18
REMARK   13  A    between atoms: C_18  and  C_19
REMARK   14  A    between atoms: C_19  and  C_20
REMARK                            x       y       z     vdW  Elec       q    Type
REMARK                         _______ _______ _______ _____ _____    ______ ____
ROOT
ATOM      1  C   UNL     1       6.960   5.628  17.476  0.00  0.00    +0.000 C 
ENDROOT
BRANCH   1   4
ATOM      2  C   UNL     1       5.678   5.481  15.358  0.00  0.00    +0.000 C 
ATOM      3  O   UNL     1       5.274   6.633  15.475  0.00  0.00    +0.000 OA
ATOM      4  N   UNL     1       6.524   4.912  16.277  0.00  0.00    +0.000 N 
ATOM      5  H   UNL     1       6.921   4.003  16.069  0.00  0.00    +0.000 HD
BRANCH   2   6
ATOM      6  O   UNL     1       5.335   4.620  14.379  0.00  0.00    +0.000 OA
BRANCH   6   7
ATOM      7  C   UNL     1       6.463   3.993  13.754  0.00  0.00    +0.000 C 
BRANCH   7   9
ATOM      8  C   UNL     1       6.891   2.788  11.616  0.00  0.00    +0.000 C 
ATOM      9  C   UNL     1       6.060   3.475  12.409  0.00  0.00    +0.000 C 
ENDBRANCH   7   9
ENDBRANCH   6   7
ENDBRANCH   2   6
ENDBRANCH   1   4
BRANCH   1  10
ATOM     10  C   UNL     1       6.325   4.964  18.715  0.00  0.00    +0.000 C 
ATOM     11  O   UNL     1       6.626   5.348  19.855  0.00  0.00    +0.000 OA
BRANCH  10  12
ATOM     12  C   UNL     1       5.273   3.868  18.481  0.00  0.00    +0.000 C 
BRANCH  12  13
ATOM     13  N   UNL     1       5.045   3.018  19.659  0.00  0.00    +0.000 NA
ATOM     14  H   UNL     1       5.008   3.618  20.486  0.00  0.00    +0.000 HD
BRANCH  13  15
ATOM     15  C   UNL     1       3.801   2.252  19.551  0.00  0.00    +0.000 C 
BRANCH  15  16
ATOM     16  C   UNL     1       2.833   2.668  20.655  0.00  0.00    +0.000 C 
BRANCH  16  17
ATOM     17  C   UNL     1       1.553   3.273  20.068  0.00  0.00    +0.000 C 
BRANCH  17  18
ATOM     18  C   UNL     1       1.794   4.692  19.615  0.00  0.00    +0.000 A 
ATOM     19  C   UNL     1       2.033   4.971  18.263  0.00  0.00    +0.000 A 
ATOM     20  C   UNL     1       2.369   6.263  17.856  0.00  0.00    +0.000 A 
ATOM     21  C   UNL     1       2.454   7.289  18.795  0.00  0.00    +0.000 A 
ATOM     22  C   UNL     1       2.189   7.028  20.138  0.00  0.00    +0.000 A 
ATOM     23  C   UNL     1       1.864   5.735  20.548  0.00  0.00    +0.000 A 
ENDBRANCH  17  18
ENDBRANCH  16  17
ENDBRANCH  15  16
ENDBRANCH  13  15
ENDBRANCH  12  13
ENDBRANCH  10  12
ENDBRANCH   1  10
BRANCH   1  24
ATOM     24  C   UNL     1       6.718   7.145  17.403  0.00  0.00    +0.000 C 
BRANCH  24  25
ATOM     25  C   UNL     1       7.868   7.933  17.967  0.00  0.00    +0.000 C 
ATOM     26  O   UNL     1       8.169   9.071  17.651  0.00  0.00    +0.000 OA
BRANCH  25  27
ATOM     27  O   UNL     1       8.545   7.251  18.922  0.00  0.00    +0.000 OA
ATOM     28  H   UNL     1       8.647   7.731  19.767  0.00  0.00    +0.000 HD
ENDBRANCH  25  27
ENDBRANCH  24  25
ENDBRANCH   1  24
TORSDOF 14
ENDMDL
MODEL 6
REMARK VINA RESULT:      -6.3      2.676      5.546
REMARK  Name = 
REMARK  14 active torsions:
REMARK  status: ('A' for Active; 'I' for Inactive)
REMARK    1  A    between atoms: C_2  and  C_3
REMARK    2  A    between atoms: C_3  and  O_4
REMARK    3  A    between atoms: O_4  and  C_5
REMARK    4  A    between atoms: N_7  and  C_8
REMARK    5  A    between atoms: C_8  and  C_9
REMARK    6  A    between atoms: C_8  and  C_13
REMARK    7  A    between atoms: C_9  and  C_10
REMARK    8  A    between atoms: C_10  and  O_12
REMARK    9  A    between atoms: C_13  and  C_15
REMARK   10  A    between atoms: C_15  and  N_16
REMARK   11  A    between atoms: N_16  and  C_17
REMARK   12  A    between atoms: C_17  and  C_18
REMARK   13  A    between atoms: C_18  and  C_19
REMARK   14  A    between atoms: C_19  and  C_20
REMARK                            x       y       z     vdW  Elec       q    Type
REMARK                         _______ _______ _______ _____ _____    ______ ____
ROOT
ATOM      1  C   UNL     1       6.467   5.574  17.806  0.00  0.00    +0.000 C 
ENDROOT
BRANCH   1   4
ATOM      2  C   UNL     1       7.800   7.661  17.939  0.00  0.00    +0.000 C 
ATOM      3  O   UNL     1       7.449   8.006  16.816  0.00  0.00    +0.000 OA
ATOM      4  N   UNL     1       7.353   6.498  18.514  0.00  0.00    +0.000 N 
ATOM      5  H   UNL     1       7.579   6.323  19.487  0.00  0.00    +0.000 HD
BRANCH   2   6
ATOM      6  O   UNL     1       8.673   8.318  18.729  0.00  0.00    +0.000 OA
BRANCH   6   7
ATOM      7  C   UNL     1       8.743   9.723  18.452  0.00  0.00    +0.000 C 
BRANCH   7   9
ATOM      8  C   UNL     1      10.127  11.579  19.372  0.00  0.00    +0.000 C 
ATOM      9  C   UNL     1       9.506  10.405  19.544  0.00  0.00    +0.000 C 
ENDBRANCH   7   9
ENDBRANCH   6   7
ENDBRANCH   2   6
ENDBRANCH   1   4
BRANCH   1  10
ATOM     10  C   UNL     1       5.398   5.054  18.790  0.00  0.00    +0.000 C 
ATOM     11  O   UNL     1       5.671   4.145  19.588  0.00  0.00    +0.000 OA
BRANCH  10  12
ATOM     12  C   UNL     1       4.022   5.739  18.783  0.00  0.00    +0.000 C 
BRANCH  12  13
ATOM     13  N   UNL     1       3.504   6.020  20.129  0.00  0.00    +0.000 NA
ATOM     14  H   UNL     1       2.825   6.781  20.060  0.00  0.00    +0.000 HD
BRANCH  13  15
ATOM     15  C   UNL     1       2.866   4.845  20.728  0.00  0.00    +0.000 C 
BRANCH  15  16
ATOM     16  C   UNL     1       1.349   4.959  20.615  0.00  0.00    +0.000 C 
BRANCH  16  17
ATOM     17  C   UNL     1       0.741   3.682  20.024  0.00  0.00    +0.000 C 
BRANCH  17  18
ATOM     18  C   UNL     1       1.689   3.050  19.034  0.00  0.00    +0.000 A 
ATOM     19  C   UNL     1       2.539   2.011  19.433  0.00  0.00    +0.000 A 
ATOM     20  C   UNL     1       3.495   1.502  18.553  0.00  0.00    +0.000 A 
ATOM     21  C   UNL     1       3.599   2.017  17.263  0.00  0.00    +0.000 A 
ATOM     22  C   UNL     1       2.738   3.032  16.847  0.00  0.00    +0.000 A 
ATOM     23  C   UNL     1       1.789   3.548  17.728  0.00  0.00    +0.000 A 
ENDBRANCH  17  18
ENDBRANCH  16  17
ENDBRANCH  15  16
ENDBRANCH  13  15
ENDBRANCH  12  13
ENDBRANCH  10  12
ENDBRANCH   1  10
BRANCH   1  24
ATOM     24  C   UNL     1       7.217   4.453  17.069  0.00  0.00    +0.000 C 
BRANCH  24  25
ATOM     25  C   UNL     1       6.975   4.486  15.585  0.00  0.00    +0.000 C 
ATOM     26  O   UNL     1       6.262   3.713  14.966  0.00  0.00    +0.000 OA
BRANCH  25  27
ATOM     27  O   UNL     1       7.616   5.513  14.978  0.00  0.00    +0.000 OA
ATOM     28  H   UNL     1       8.581   5.537  15.134  0.00  0.00    +0.000 HD
ENDBRANCH  25  27
ENDBRANCH  24  25
ENDBRANCH   1  24
TORSDOF 14
ENDMDL
MODEL 7
REMARK VINA RESULT:      -6.3      2.442      4.761
REMARK  Name = 
REMARK  14 active torsions:
REMARK  status: ('A' for Active; 'I' for Inactive)
REMARK    1  A    between atoms: C_2  and  C_3
REMARK    2  A    between atoms: C_3  and  O_4
REMARK    3  A    between atoms: O_4  and  C_5
REMARK    4  A    between atoms: N_7  and  C_8
REMARK    5  A    between atoms: C_8  and  C_9
REMARK    6  A    between atoms: C_8  and  C_13
REMARK    7  A    between atoms: C_9  and  C_10
REMARK    8  A    between atoms: C_10  and  O_12
REMARK    9  A    between atoms: C_13  and  C_15
REMARK   10  A    between atoms: C_15  and  N_16
REMARK   11  A    between atoms: N_16  and  C_17
REMARK   12  A    between atoms: C_17  and  C_18
REMARK   13  A    between atoms: C_18  and  C_19
REMARK   14  A    between atoms: C_19  and  C_20
REMARK                            x       y       z     vdW  Elec       q    Type
REMARK                         _______ _______ _______ _____ _____    ______ ____
ROOT
ATOM      1  C   UNL     1       6.736   5.585  17.700  0.00  0.00    +0.000 C 
ENDROOT
BRANCH   1   4
ATOM      2  C   UNL     1       7.748   7.837  17.929  0.00  0.00    +0.000 C 
ATOM      3  O   UNL     1       7.077   8.279  17.003  0.00  0.00    +0.000 OA
ATOM      4  N   UNL     1       7.633   6.538  18.354  0.00  0.00    +0.000 N 
ATOM      5  H   UNL     1       8.122   6.261  19.198  0.00  0.00    +0.000 HD
BRANCH   2   6
ATOM      6  O   UNL     1       8.691   8.515  18.613  0.00  0.00    +0.000 OA
BRANCH   6   7
ATOM      7  C   UNL     1       8.682   9.925  18.348  0.00  0.00    +0.000 C 
BRANCH   7   9
ATOM      8  C   UNL     1      10.653  11.376  18.814  0.00  0.00    +0.000 C 
ATOM      9  C   UNL     1       9.651  10.607  19.261  0.00  0.00    +0.000 C 
ENDBRANCH   7   9
ENDBRANCH   6   7
ENDBRANCH   2   6
ENDBRANCH   1   4
BRANCH   1  10
ATOM     10  C   UNL     1       6.068   4.706  18.777  0.00  0.00    +0.000 C 
ATOM     11  O   UNL     1       6.219   4.966  19.981  0.00  0.00    +0.000 OA
BRANCH  10  12
ATOM     12  C   UNL     1       5.170   3.551  18.305  0.00  0.00    +0.000 C 
BRANCH  12  13
ATOM     13  N   UNL     1       3.913   4.003  17.692  0.00  0.00    +0.000 NA
ATOM     14  H   UNL     1       3.397   3.180  17.372  0.00  0.00    +0.000 HD
BRANCH  13  15
ATOM     15  C   UNL     1       3.088   4.768  18.630  0.00  0.00    +0.000 C 
BRANCH  15  16
ATOM     16  C   UNL     1       2.315   5.852  17.883  0.00  0.00    +0.000 C 
BRANCH  16  17
ATOM     17  C   UNL     1       3.051   7.195  17.940  0.00  0.00    +0.000 C 
BRANCH  17  18
ATOM     18  C   UNL     1       2.225   8.224  18.672  0.00  0.00    +0.000 A 
ATOM     19  C   UNL     1       1.854   8.013  20.007  0.00  0.00    +0.000 A 
ATOM     20  C   UNL     1       0.996   8.906  20.651  0.00  0.00    +0.000 A 
ATOM     21  C   UNL     1       0.515  10.023  19.973  0.00  0.00    +0.000 A 
ATOM     22  C   UNL     1       0.901  10.257  18.654  0.00  0.00    +0.000 A 
ATOM     23  C   UNL     1       1.750   9.360  18.005  0.00  0.00    +0.000 A 
ENDBRANCH  17  18
ENDBRANCH  16  17
ENDBRANCH  15  16
ENDBRANCH  13  15
ENDBRANCH  12  13
ENDBRANCH  10  12
ENDBRANCH   1  10
BRANCH   1  24
ATOM     24  C   UNL     1       7.415   4.774  16.584  0.00  0.00    +0.000 C 
BRANCH  24  25
ATOM     25  C   UNL     1       6.765   4.993  15.245  0.00  0.00    +0.000 C 
ATOM     26  O   UNL     1       5.573   4.891  15.011  0.00  0.00    +0.000 OA
BRANCH  25  27
ATOM     27  O   UNL     1       7.654   5.363  14.292  0.00  0.00    +0.000 OA
ATOM     28  H   UNL     1       7.252   5.597  13.432  0.00  0.00    +0.000 HD
ENDBRANCH  25  27
ENDBRANCH  24  25
ENDBRANCH   1  24
TORSDOF 14
ENDMDL
MODEL 8
REMARK VINA RESULT:      -6.3      1.798      3.492
REMARK  Name = 
REMARK  14 active torsions:
REMARK  status: ('A' for Active; 'I' for Inactive)
REMARK    1  A    between atoms: C_2  and  C_3
REMARK    2  A    between atoms: C_3  and  O_4
REMARK    3  A    between atoms: O_4  and  C_5
REMARK    4  A    between atoms: N_7  and  C_8
REMARK    5  A    between atoms: C_8  and  C_9
REMARK    6  A    between atoms: C_8  and  C_13
REMARK    7  A    between atoms: C_9  and  C_10
REMARK    8  A    between atoms: C_10  and  O_12
REMARK    9  A    between atoms: C_13  and  C_15
REMARK   10  A    between atoms: C_15  and  N_16
REMARK   11  A    between atoms: N_16  and  C_17
REMARK   12  A    between atoms: C_17  and  C_18
REMARK   13  A    between atoms: C_18  and  C_19
REMARK   14  A    between atoms: C_19  and  C_20
REMARK                            x       y       z     vdW  Elec       q    Type
REMARK                         _______ _______ _______ _____ _____    ______ ____
ROOT
ATOM      1  C   UNL     1       6.801   4.642  17.293  0.00  0.00    +0.000 C 
ENDROOT
BRANCH   1   4
ATOM      2  C   UNL     1       6.622   4.349  14.837  0.00  0.00    +0.000 C 
ATOM      3  O   UNL     1       7.791   4.679  14.670  0.00  0.00    +0.000 OA
ATOM      4  N   UNL     1       6.057   4.281  16.086  0.00  0.00    +0.000 N 
ATOM      5  H   UNL     1       5.127   3.887  16.175  0.00  0.00    +0.000 HD
BRANCH   2   6
ATOM      6  O   UNL     1       5.737   4.057  13.862  0.00  0.00    +0.000 OA
BRANCH   6   7
ATOM      7  C   UNL     1       6.356   3.580  12.659  0.00  0.00    +0.000 C 
BRANCH   7   9
ATOM      8  C   UNL     1       4.182   3.344  11.464  0.00  0.00    +0.000 C 
ATOM      9  C   UNL     1       5.350   2.818  11.854  0.00  0.00    +0.000 C 
ENDBRANCH   7   9
ENDBRANCH   6   7
ENDBRANCH   2   6
ENDBRANCH   1   4
BRANCH   1  10
ATOM     10  C   UNL     1       5.835   4.640  18.496  0.00  0.00    +0.000 C 
ATOM     11  O   UNL     1       6.246   4.928  19.630  0.00  0.00    +0.000 OA
BRANCH  10  12
ATOM     12  C   UNL     1       4.354   4.333  18.225  0.00  0.00    +0.000 C 
BRANCH  12  13
ATOM     13  N   UNL     1       3.638   5.440  17.575  0.00  0.00    +0.000 NA
ATOM     14  H   UNL     1       2.701   5.114  17.325  0.00  0.00    +0.000 HD
BRANCH  13  15
ATOM     15  C   UNL     1       3.535   6.613  18.446  0.00  0.00    +0.000 C 
BRANCH  15  16
ATOM     16  C   UNL     1       2.084   6.825  18.869  0.00  0.00    +0.000 C 
BRANCH  16  17
ATOM     17  C   UNL     1       1.882   6.476  20.348  0.00  0.00    +0.000 C 
BRANCH  17  18
ATOM     18  C   UNL     1       1.724   4.986  20.526  0.00  0.00    +0.000 A 
ATOM     19  C   UNL     1       2.454   4.311  21.512  0.00  0.00    +0.000 A 
ATOM     20  C   UNL     1       2.397   2.920  21.606  0.00  0.00    +0.000 A 
ATOM     21  C   UNL     1       1.599   2.194  20.725  0.00  0.00    +0.000 A 
ATOM     22  C   UNL     1       0.846   2.859  19.758  0.00  0.00    +0.000 A 
ATOM     23  C   UNL     1       0.910   4.249  19.656  0.00  0.00    +0.000 A 
ENDBRANCH  17  18
ENDBRANCH  16  17
ENDBRANCH  15  16
ENDBRANCH  13  15
ENDBRANCH  12  13
ENDBRANCH  10  12
ENDBRANCH   1  10
BRANCH   1  24
ATOM     24  C   UNL     1       7.598   5.950  17.150  0.00  0.00    +0.000 C 
BRANCH  24  25
ATOM     25  C   UNL     1       6.705   7.141  16.937  0.00  0.00    +0.000 C 
ATOM     26  O   UNL     1       5.739   7.177  16.193  0.00  0.00    +0.000 OA
BRANCH  25  27
ATOM     27  O   UNL     1       7.062   8.200  17.701  0.00  0.00    +0.000 OA
ATOM     28  H   UNL     1       7.468   8.939  17.205  0.00  0.00    +0.000 HD
ENDBRANCH  25  27
ENDBRANCH  24  25
ENDBRANCH   1  24
TORSDOF 14
ENDMDL
MODEL 9
REMARK VINA RESULT:      -6.3      2.395      4.431
REMARK  Name = 
REMARK  14 active torsions:
REMARK  status: ('A' for Active; 'I' for Inactive)
REMARK    1  A    between atoms: C_2  and  C_3
REMARK    2  A    between atoms: C_3  and  O_4
REMARK    3  A    between atoms: O_4  and  C_5
REMARK    4  A    between atoms: N_7  and  C_8
REMARK    5  A    between atoms: C_8  and  C_9
REMARK    6  A    between atoms: C_8  and  C_13
REMARK    7  A    between atoms: C_9  and  C_10
REMARK    8  A    between atoms: C_10  and  O_12
REMARK    9  A    between atoms: C_13  and  C_15
REMARK   10  A    between atoms: C_15  and  N_16
REMARK   11  A    between atoms: N_16  and  C_17
REMARK   12  A    between atoms: C_17  and  C_18
REMARK   13  A    between atoms: C_18  and  C_19
REMARK   14  A    between atoms: C_19  and  C_20
REMARK                            x       y       z     vdW  Elec       q    Type
REMARK                         _______ _______ _______ _____ _____    ______ ____
ROOT
ATOM      1  C   UNL     1       3.336   3.653  18.205  0.00  0.00    +0.000 C 
ENDROOT
BRANCH   1   4
ATOM      2  C   UNL     1       5.458   4.303  17.099  0.00  0.00    +0.000 C 
ATOM      3  O   UNL     1       5.107   3.800  16.037  0.00  0.00    +0.000 OA
ATOM      4  N   UNL     1       4.649   4.297  18.207  0.00  0.00    +0.000 N 
ATOM      5  H   UNL     1       4.940   4.831  19.019  0.00  0.00    +0.000 HD
BRANCH   2   6
ATOM      6  O   UNL     1       6.655   4.872  17.344  0.00  0.00    +0.000 OA
BRANCH   6   7
ATOM      7  C   UNL     1       6.730   6.240  16.920  0.00  0.00    +0.000 C 
BRANCH   7   9
ATOM      8  C   UNL     1       7.905   8.293  17.703  0.00  0.00    +0.000 C 
ATOM      9  C   UNL     1       7.543   7.020  17.906  0.00  0.00    +0.000 C 
ENDBRANCH   7   9
ENDBRANCH   6   7
ENDBRANCH   2   6
ENDBRANCH   1   4
BRANCH   1  10
ATOM     10  C   UNL     1       2.247   4.735  18.057  0.00  0.00    +0.000 C 
ATOM     11  O   UNL     1       1.212   4.499  17.415  0.00  0.00    +0.000 OA
BRANCH  10  12
ATOM     12  C   UNL     1       2.465   6.075  18.777  0.00  0.00    +0.000 C 
BRANCH  12  13
ATOM     13  N   UNL     1       3.289   7.022  18.012  0.00  0.00    +0.000 NA
ATOM     14  H   UNL     1       3.452   6.627  17.082  0.00  0.00    +0.000 HD
BRANCH  13  15
ATOM     15  C   UNL     1       2.647   8.332  17.885  0.00  0.00    +0.000 C 
BRANCH  15  16
ATOM     16  C   UNL     1       1.444   8.418  18.821  0.00  0.00    +0.000 C 
BRANCH  16  17
ATOM     17  C   UNL     1       0.969   9.866  18.979  0.00  0.00    +0.000 C 
BRANCH  17  18
ATOM     18  C   UNL     1       0.457  10.108  20.378  0.00  0.00    +0.000 A 
ATOM     19  C   UNL     1       0.193   9.028  21.231  0.00  0.00    +0.000 A 
ATOM     20  C   UNL     1      -0.387   9.241  22.482  0.00  0.00    +0.000 A 
ATOM     21  C   UNL     1      -0.694  10.535  22.897  0.00  0.00    +0.000 A 
ATOM     22  C   UNL     1      -0.408  11.619  22.068  0.00  0.00    +0.000 A 
ATOM     23  C   UNL     1       0.162  11.407  20.813  0.00  0.00    +0.000 A 
ENDBRANCH  17  18
ENDBRANCH  16  17
ENDBRANCH  15  16
ENDBRANCH  13  15
ENDBRANCH  12  13
ENDBRANCH  10  12
ENDBRANCH   1  10
BRANCH   1  24
ATOM     24  C   UNL     1       3.112   2.721  19.408  0.00  0.00    +0.000 C 
BRANCH  24  25
ATOM     25  C   UNL     1       4.268   1.782  19.624  0.00  0.00    +0.000 C 
ATOM     26  O   UNL     1       5.103   1.879  20.507  0.00  0.00    +0.000 OA
BRANCH  25  27
ATOM     27  O   UNL     1       4.277   0.759  18.736  0.00  0.00    +0.000 OA
ATOM     28  H   UNL     1       4.610   0.997  17.848  0.00  0.00    +0.000 HD
ENDBRANCH  25  27
ENDBRANCH  24  25
ENDBRANCH   1  24
TORSDOF 14
ENDMDL
