MODEL 1
REMARK VINA RESULT:      -7.3      0.000      0.000
REMARK  Name = 
REMARK  9 active torsions:
REMARK  status: ('A' for Active; 'I' for Inactive)
REMARK    1  A    between atoms: C_1  and  C_2
REMARK    2  A    between atoms: C_2  and  N_3
REMARK    3  A    between atoms: N_3  and  C_4
REMARK    4  A    between atoms: C_4  and  C_5
REMARK    5  A    between atoms: N_8  and  C_9
REMARK    6  A    between atoms: C_16  and  C_17
REMARK    7  A    between atoms: C_17  and  O_19
REMARK    8  A    between atoms: N_21  and  C_22
REMARK    9  A    between atoms: C_22  and  C_23
REMARK                            x       y       z     vdW  Elec       q    Type
REMARK                         _______ _______ _______ _____ _____    ______ ____
ROOT
ATOM      1  C   UNL     1       1.339   8.929  19.608  0.00  0.00    +0.000 A 
ATOM      2  C   UNL     1       1.983   9.351  18.426  0.00  0.00    +0.000 A 
ATOM      3  F   UNL     1       1.750  10.560  17.900  0.00  0.00    +0.000 F 
ATOM      4  C   UNL     1       2.866   8.536  17.737  0.00  0.00    +0.000 A 
ATOM      5  C   UNL     1       3.156   7.265  18.227  0.00  0.00    +0.000 A 
ATOM      6  C   UNL     1       4.102   6.412  17.465  0.00  0.00    +0.000 A 
ATOM      7  O   UNL     1       4.642   6.810  16.434  0.00  0.00    +0.000 OA
ATOM      8  C   UNL     1       4.385   5.057  17.962  0.00  0.00    +0.000 A 
ATOM      9  C   UNL     1       3.766   4.689  19.103  0.00  0.00    +0.000 A 
ATOM     10  N   UNL     1       2.891   5.453  19.858  0.00  0.00    +0.000 N 
ATOM     11  C   UNL     1       2.578   6.775  19.419  0.00  0.00    +0.000 A 
ATOM     12  C   UNL     1       1.697   7.650  20.077  0.00  0.00    +0.000 A 
ATOM     13  F   UNL     1       1.140   7.252  21.242  0.00  0.00    +0.000 F 
ENDROOT
BRANCH   1  17
ATOM     14  C   UNL     1      -0.345  11.621  21.476  0.00  0.00    +0.000 C 
ATOM     15  C   UNL     1      -0.957  11.588  20.069  0.00  0.00    +0.000 C 
ATOM     16  C   UNL     1      -0.838  10.129  19.656  0.00  0.00    +0.000 C 
ATOM     17  N   UNL     1       0.419   9.709  20.287  0.00  0.00    +0.000 N 
ATOM     18  C   UNL     1       0.804  10.612  21.361  0.00  0.00    +0.000 C 
BRANCH  14  19
ATOM     19  C   UNL     1      -1.314  11.210  22.598  0.00  0.00    +0.000 C 
BRANCH  19  20
ATOM     20  N   UNL     1      -1.924  12.383  23.239  0.00  0.00    +0.000 NA
ATOM     21  H   UNL     1      -1.712  12.403  24.234  0.00  0.00    +0.000 HD
BRANCH  20  23
ATOM     22  C   UNL     1      -4.043  12.733  24.397  0.00  0.00    +0.000 C 
ATOM     23  C   UNL     1      -3.378  12.380  23.075  0.00  0.00    +0.000 C 
ENDBRANCH  20  23
ENDBRANCH  19  20
ENDBRANCH  14  19
ENDBRANCH   1  17
BRANCH   8  24
ATOM     24  C   UNL     1       5.288   4.095  17.298  0.00  0.00    +0.000 C 
ATOM     25  O   UNL     1       5.029   3.544  16.239  0.00  0.00    +0.000 OA
BRANCH  24  26
ATOM     26  O   UNL     1       6.442   3.872  17.961  0.00  0.00    +0.000 OA
ATOM     27  H   UNL     1       6.856   4.685  18.339  0.00  0.00    +0.000 HD
ENDBRANCH  24  26
ENDBRANCH   8  24
BRANCH  10  28
ATOM     28  C   UNL     1       2.205   4.975  21.080  0.00  0.00    +0.000 C 
ATOM     29  C   UNL     1       1.953   3.477  21.148  0.00  0.00    +0.000 C 
ENDBRANCH  10  28
TORSDOF 7
ENDMDL
MODEL 2
REMARK VINA RESULT:      -7.3      3.731      8.672
REMARK  Name = 
REMARK  9 active torsions:
REMARK  status: ('A' for Active; 'I' for Inactive)
REMARK    1  A    between atoms: C_1  and  C_2
REMARK    2  A    between atoms: C_2  and  N_3
REMARK    3  A    between atoms: N_3  and  C_4
REMARK    4  A    between atoms: C_4  and  C_5
REMARK    5  A    between atoms: N_8  and  C_9
REMARK    6  A    between atoms: C_16  and  C_17
REMARK    7  A    between atoms: C_17  and  O_19
REMARK    8  A    between atoms: N_21  and  C_22
REMARK    9  A    between atoms: C_22  and  C_23
REMARK                            x       y       z     vdW  Elec       q    Type
REMARK                         _______ _______ _______ _____ _____    ______ ____
ROOT
ATOM      1  C   UNL     1       2.244   6.580  19.349  0.00  0.00    +0.000 A 
ATOM      2  C   UNL     1       1.708   6.238  20.609  0.00  0.00    +0.000 A 
ATOM      3  F   UNL     1       1.775   4.986  21.076  0.00  0.00    +0.000 F 
ATOM      4  C   UNL     1       1.070   7.167  21.414  0.00  0.00    +0.000 A 
ATOM      5  C   UNL     1       0.965   8.490  20.991  0.00  0.00    +0.000 A 
ATOM      6  C   UNL     1       0.271   9.461  21.874  0.00  0.00    +0.000 A 
ATOM      7  O   UNL     1      -0.188   9.127  22.964  0.00  0.00    +0.000 OA
ATOM      8  C   UNL     1       0.130  10.851  21.415  0.00  0.00    +0.000 A 
ATOM      9  C   UNL     1       0.666  11.151  20.213  0.00  0.00    +0.000 A 
ATOM     10  N   UNL     1       1.337  10.286  19.364  0.00  0.00    +0.000 N 
ATOM     11  C   UNL     1       1.499   8.923  19.757  0.00  0.00    +0.000 A 
ATOM     12  C   UNL     1       2.141   7.939  18.988  0.00  0.00    +0.000 A 
ATOM     13  F   UNL     1       2.704   8.300  17.814  0.00  0.00    +0.000 F 
ENDROOT
BRANCH   1  17
ATOM     14  C   UNL     1       4.301   3.867  17.942  0.00  0.00    +0.000 C 
ATOM     15  C   UNL     1       2.839   3.399  17.907  0.00  0.00    +0.000 C 
ATOM     16  C   UNL     1       2.049   4.689  17.747  0.00  0.00    +0.000 C 
ATOM     17  N   UNL     1       2.844   5.660  18.508  0.00  0.00    +0.000 N 
ATOM     18  C   UNL     1       4.206   5.190  18.712  0.00  0.00    +0.000 C 
BRANCH  14  19
ATOM     19  C   UNL     1       4.925   4.094  16.555  0.00  0.00    +0.000 C 
BRANCH  19  20
ATOM     20  N   UNL     1       6.392   4.154  16.627  0.00  0.00    +0.000 NA
ATOM     21  H   UNL     1       6.692   4.861  17.295  0.00  0.00    +0.000 HD
BRANCH  20  23
ATOM     22  C   UNL     1       5.973   4.148  14.224  0.00  0.00    +0.000 C 
ATOM     23  C   UNL     1       6.974   4.471  15.323  0.00  0.00    +0.000 C 
ENDBRANCH  20  23
ENDBRANCH  19  20
ENDBRANCH  14  19
ENDBRANCH   1  17
BRANCH   8  24
ATOM     24  C   UNL     1      -0.551  11.917  22.178  0.00  0.00    +0.000 C 
ATOM     25  O   UNL     1      -0.092  13.040  22.329  0.00  0.00    +0.000 OA
BRANCH  24  26
ATOM     26  O   UNL     1      -1.740  11.551  22.699  0.00  0.00    +0.000 OA
ATOM     27  H   UNL     1      -2.244  12.289  23.118  0.00  0.00    +0.000 HD
ENDBRANCH  24  26
ENDBRANCH   8  24
BRANCH  10  28
ATOM     28  C   UNL     1       1.862  10.664  18.033  0.00  0.00    +0.000 C 
ATOM     29  C   UNL     1       2.478  12.051  17.938  0.00  0.00    +0.000 C 
ENDBRANCH  10  28
TORSDOF 7
ENDMDL
MODEL 3
REMARK VINA RESULT:      -7.3      3.722      8.436
REMARK  Name = 
REMARK  9 active torsions:
REMARK  status: ('A' for Active; 'I' for Inactive)
REMARK    1  A    between atoms: C_1  and  C_2
REMARK    2  A    between atoms: C_2  and  N_3
REMARK    3  A    between atoms: N_3  and  C_4
REMARK    4  A    between atoms: C_4  and  C_5
REMARK    5  A    between atoms: N_8  and  C_9
REMARK    6  A    between atoms: C_16  and  C_17
REMARK    7  A    between atoms: C_17  and  O_19
REMARK    8  A    between atoms: N_21  and  C_22
REMARK    9  A    between atoms: C_22  and  C_23
REMARK                            x       y       z     vdW  Elec       q    Type
REMARK                         _______ _______ _______ _____ _____    ______ ____
ROOT
ATOM      1  C   UNL     1       2.352   6.543  19.387  0.00  0.00    +0.000 A 
ATOM      2  C   UNL     1       1.736   6.202  20.609  0.00  0.00    +0.000 A 
ATOM      3  F   UNL     1       1.818   4.963  21.108  0.00  0.00    +0.000 F 
ATOM      4  C   UNL     1       1.001   7.118  21.344  0.00  0.00    +0.000 A 
ATOM      5  C   UNL     1       0.876   8.427  20.886  0.00  0.00    +0.000 A 
ATOM      6  C   UNL     1       0.077   9.384  21.692  0.00  0.00    +0.000 A 
ATOM      7  O   UNL     1      -0.450   9.052  22.752  0.00  0.00    +0.000 OA
ATOM      8  C   UNL     1      -0.084  10.759  21.194  0.00  0.00    +0.000 A 
ATOM      9  C   UNL     1       0.529  11.058  20.030  0.00  0.00    +0.000 A 
ATOM     10  N   UNL     1       1.297  10.206  19.252  0.00  0.00    +0.000 N 
ATOM     11  C   UNL     1       1.484   8.859  19.686  0.00  0.00    +0.000 A 
ATOM     12  C   UNL     1       2.222   7.889  18.990  0.00  0.00    +0.000 A 
ATOM     13  F   UNL     1       2.858   8.251  17.854  0.00  0.00    +0.000 F 
ENDROOT
BRANCH   1  17
ATOM     14  C   UNL     1       4.562   3.841  18.208  0.00  0.00    +0.000 C 
ATOM     15  C   UNL     1       3.115   3.382  17.978  0.00  0.00    +0.000 C 
ATOM     16  C   UNL     1       2.358   4.680  17.740  0.00  0.00    +0.000 C 
ATOM     17  N   UNL     1       3.052   5.633  18.614  0.00  0.00    +0.000 N 
ATOM     18  C   UNL     1       4.375   5.151  18.983  0.00  0.00    +0.000 C 
BRANCH  14  19
ATOM     19  C   UNL     1       5.360   4.088  16.917  0.00  0.00    +0.000 C 
BRANCH  19  20
ATOM     20  N   UNL     1       6.755   4.448  17.206  0.00  0.00    +0.000 NA
ATOM     21  H   UNL     1       6.911   4.514  18.210  0.00  0.00    +0.000 HD
BRANCH  20  23
ATOM     22  C   UNL     1       7.459   6.734  17.686  0.00  0.00    +0.000 C 
ATOM     23  C   UNL     1       7.108   5.731  16.597  0.00  0.00    +0.000 C 
ENDBRANCH  20  23
ENDBRANCH  19  20
ENDBRANCH  14  19
ENDBRANCH   1  17
BRANCH   8  24
ATOM     24  C   UNL     1      -0.865  11.809  21.879  0.00  0.00    +0.000 C 
ATOM     25  O   UNL     1      -1.616  12.581  21.301  0.00  0.00    +0.000 OA
BRANCH  24  26
ATOM     26  O   UNL     1      -0.684  11.848  23.216  0.00  0.00    +0.000 OA
ATOM     27  H   UNL     1       0.122  12.343  23.501  0.00  0.00    +0.000 HD
ENDBRANCH  24  26
ENDBRANCH   8  24
BRANCH  10  28
ATOM     28  C   UNL     1       1.907  10.581  17.957  0.00  0.00    +0.000 C 
ATOM     29  C   UNL     1       2.503  11.978  17.890  0.00  0.00    +0.000 C 
ENDBRANCH  10  28
TORSDOF 7
ENDMDL
MODEL 4
REMARK VINA RESULT:      -7.2      1.130      1.377
REMARK  Name = 
REMARK  9 active torsions:
REMARK  status: ('A' for Active; 'I' for Inactive)
REMARK    1  A    between atoms: C_1  and  C_2
REMARK    2  A    between atoms: C_2  and  N_3
REMARK    3  A    between atoms: N_3  and  C_4
REMARK    4  A    between atoms: C_4  and  C_5
REMARK    5  A    between atoms: N_8  and  C_9
REMARK    6  A    between atoms: C_16  and  C_17
REMARK    7  A    between atoms: C_17  and  O_19
REMARK    8  A    between atoms: N_21  and  C_22
REMARK    9  A    between atoms: C_22  and  C_23
REMARK                            x       y       z     vdW  Elec       q    Type
REMARK                         _______ _______ _______ _____ _____    ______ ____
ROOT
ATOM      1  C   UNL     1       1.378   9.292  19.068  0.00  0.00    +0.000 A 
ATOM      2  C   UNL     1       2.211   9.619  17.978  0.00  0.00    +0.000 A 
ATOM      3  F   UNL     1       2.139  10.815  17.381  0.00  0.00    +0.000 F 
ATOM      4  C   UNL     1       3.126   8.720  17.456  0.00  0.00    +0.000 A 
ATOM      5  C   UNL     1       3.256   7.457  18.028  0.00  0.00    +0.000 A 
ATOM      6  C   UNL     1       4.242   6.514  17.443  0.00  0.00    +0.000 A 
ATOM      7  O   UNL     1       4.950   6.830  16.490  0.00  0.00    +0.000 OA
ATOM      8  C   UNL     1       4.357   5.168  18.026  0.00  0.00    +0.000 A 
ATOM      9  C   UNL     1       3.558   4.891  19.076  0.00  0.00    +0.000 A 
ATOM     10  N   UNL     1       2.637   5.741  19.667  0.00  0.00    +0.000 N 
ATOM     11  C   UNL     1       2.481   7.059  19.140  0.00  0.00    +0.000 A 
ATOM     12  C   UNL     1       1.577   8.015  19.630  0.00  0.00    +0.000 A 
ATOM     13  F   UNL     1       0.832   7.706  20.715  0.00  0.00    +0.000 F 
ENDROOT
BRANCH   1  17
ATOM     14  C   UNL     1      -0.470  12.267  20.211  0.00  0.00    +0.000 C 
ATOM     15  C   UNL     1      -1.178  11.743  18.954  0.00  0.00    +0.000 C 
ATOM     16  C   UNL     1      -0.917  10.245  18.989  0.00  0.00    +0.000 C 
ATOM     17  N   UNL     1       0.425  10.157  19.576  0.00  0.00    +0.000 N 
ATOM     18  C   UNL     1       0.779  11.381  20.281  0.00  0.00    +0.000 C 
BRANCH  14  19
ATOM     19  C   UNL     1      -1.296  12.139  21.502  0.00  0.00    +0.000 C 
BRANCH  19  20
ATOM     20  N   UNL     1      -0.472  11.671  22.625  0.00  0.00    +0.000 NA
ATOM     21  H   UNL     1       0.436  11.349  22.297  0.00  0.00    +0.000 HD
BRANCH  20  23
ATOM     22  C   UNL     1      -0.460   9.255  22.964  0.00  0.00    +0.000 C 
ATOM     23  C   UNL     1      -1.124  10.572  23.338  0.00  0.00    +0.000 C 
ENDBRANCH  20  23
ENDBRANCH  19  20
ENDBRANCH  14  19
ENDBRANCH   1  17
BRANCH   8  24
ATOM     24  C   UNL     1       5.279   4.123  17.536  0.00  0.00    +0.000 C 
ATOM     25  O   UNL     1       5.130   3.531  16.477  0.00  0.00    +0.000 OA
BRANCH  24  26
ATOM     26  O   UNL     1       6.318   3.870  18.360  0.00  0.00    +0.000 OA
ATOM     27  H   UNL     1       7.166   4.293  18.084  0.00  0.00    +0.000 HD
ENDBRANCH  24  26
ENDBRANCH   8  24
BRANCH  10  28
ATOM     28  C   UNL     1       1.752   5.363  20.792  0.00  0.00    +0.000 C 
ATOM     29  C   UNL     1       1.305   3.910  20.815  0.00  0.00    +0.000 C 
ENDBRANCH  10  28
TORSDOF 7
ENDMDL
MODEL 5
REMARK VINA RESULT:      -7.2      3.479      7.531
REMARK  Name = 
REMARK  9 active torsions:
REMARK  status: ('A' for Active; 'I' for Inactive)
REMARK    1  A    between atoms: C_1  and  C_2
REMARK    2  A    between atoms: C_2  and  N_3
REMARK    3  A    between atoms: N_3  and  C_4
REMARK    4  A    between atoms: C_4  and  C_5
REMARK    5  A    between atoms: N_8  and  C_9
REMARK    6  A    between atoms: C_16  and  C_17
REMARK    7  A    between atoms: C_17  and  O_19
REMARK    8  A    between atoms: N_21  and  C_22
REMARK    9  A    between atoms: C_22  and  C_23
REMARK                            x       y       z     vdW  Elec       q    Type
REMARK                         _______ _______ _______ _____ _____    ______ ____
ROOT
ATOM      1  C   UNL     1       2.306   7.407  18.926  0.00  0.00    +0.000 A 
ATOM      2  C   UNL     1       2.610   8.289  17.868  0.00  0.00    +0.000 A 
ATOM      3  F   UNL     1       3.344   7.894  16.821  0.00  0.00    +0.000 F 
ATOM      4  C   UNL     1       2.189   9.609  17.866  0.00  0.00    +0.000 A 
ATOM      5  C   UNL     1       1.420  10.088  18.923  0.00  0.00    +0.000 A 
ATOM      6  C   UNL     1       0.987  11.508  18.895  0.00  0.00    +0.000 A 
ATOM      7  O   UNL     1       1.274  12.251  17.958  0.00  0.00    +0.000 OA
ATOM      8  C   UNL     1       0.203  12.027  20.026  0.00  0.00    +0.000 A 
ATOM      9  C   UNL     1      -0.085  11.155  21.015  0.00  0.00    +0.000 A 
ATOM     10  N   UNL     1       0.280   9.820  21.077  0.00  0.00    +0.000 N 
ATOM     11  C   UNL     1       1.046   9.265  20.007  0.00  0.00    +0.000 A 
ATOM     12  C   UNL     1       1.496   7.935  19.951  0.00  0.00    +0.000 A 
ATOM     13  F   UNL     1       1.140   7.089  20.942  0.00  0.00    +0.000 F 
ENDROOT
BRANCH   1  17
ATOM     14  C   UNL     1       3.222   3.935  18.102  0.00  0.00    +0.000 C 
ATOM     15  C   UNL     1       4.526   4.710  18.334  0.00  0.00    +0.000 C 
ATOM     16  C   UNL     1       4.138   5.779  19.344  0.00  0.00    +0.000 C 
ATOM     17  N   UNL     1       2.755   6.099  18.971  0.00  0.00    +0.000 N 
ATOM     18  C   UNL     1       2.163   5.042  18.163  0.00  0.00    +0.000 C 
BRANCH  14  19
ATOM     19  C   UNL     1       2.933   2.853  19.158  0.00  0.00    +0.000 C 
BRANCH  19  20
ATOM     20  N   UNL     1       1.498   2.768  19.463  0.00  0.00    +0.000 NA
ATOM     21  H   UNL     1       1.006   3.591  19.122  0.00  0.00    +0.000 HD
BRANCH  20  23
ATOM     22  C   UNL     1       2.204   3.596  21.647  0.00  0.00    +0.000 C 
ATOM     23  C   UNL     1       1.269   2.654  20.903  0.00  0.00    +0.000 C 
ENDBRANCH  20  23
ENDBRANCH  19  20
ENDBRANCH  14  19
ENDBRANCH   1  17
BRANCH   8  24
ATOM     24  C   UNL     1      -0.278  13.419  20.141  0.00  0.00    +0.000 C 
ATOM     25  O   UNL     1      -0.038  14.141  21.098  0.00  0.00    +0.000 OA
BRANCH  24  26
ATOM     26  O   UNL     1      -1.011  13.840  19.089  0.00  0.00    +0.000 OA
ATOM     27  H   UNL     1      -0.493  14.328  18.405  0.00  0.00    +0.000 HD
ENDBRANCH  24  26
ENDBRANCH   8  24
BRANCH  10  28
ATOM     28  C   UNL     1      -0.026   8.923  22.215  0.00  0.00    +0.000 C 
ATOM     29  C   UNL     1      -0.287   9.613  23.544  0.00  0.00    +0.000 C 
ENDBRANCH  10  28
TORSDOF 7
ENDMDL
MODEL 6
REMARK VINA RESULT:      -7.1      2.425      4.070
REMARK  Name = 
REMARK  9 active torsions:
REMARK  status: ('A' for Active; 'I' for Inactive)
REMARK    1  A    between atoms: C_1  and  C_2
REMARK    2  A    between atoms: C_2  and  N_3
REMARK    3  A    between atoms: N_3  and  C_4
REMARK    4  A    between atoms: C_4  and  C_5
REMARK    5  A    between atoms: N_8  and  C_9
REMARK    6  A    between atoms: C_16  and  C_17
REMARK    7  A    between atoms: C_17  and  O_19
REMARK    8  A    between atoms: N_21  and  C_22
REMARK    9  A    between atoms: C_22  and  C_23
REMARK                            x       y       z     vdW  Elec       q    Type
REMARK                         _______ _______ _______ _____ _____    ______ ____
ROOT
ATOM      1  C   UNL     1       1.423   8.486  19.883  0.00  0.00    +0.000 A 
ATOM      2  C   UNL     1       0.925   7.619  20.877  0.00  0.00    +0.000 A 
ATOM      3  F   UNL     1       0.050   8.045  21.797  0.00  0.00    +0.000 F 
ATOM      4  C   UNL     1       1.327   6.297  20.970  0.00  0.00    +0.000 A 
ATOM      5  C   UNL     1       2.234   5.786  20.046  0.00  0.00    +0.000 A 
ATOM      6  C   UNL     1       2.650   4.366  20.175  0.00  0.00    +0.000 A 
ATOM      7  O   UNL     1       2.198   3.639  21.057  0.00  0.00    +0.000 OA
ATOM      8  C   UNL     1       3.633   3.833  19.219  0.00  0.00    +0.000 A 
ATOM      9  C   UNL     1       4.079   4.682  18.270  0.00  0.00    +0.000 A 
ATOM     10  N   UNL     1       3.709   6.006  18.100  0.00  0.00    +0.000 N 
ATOM     11  C   UNL     1       2.760   6.577  19.001  0.00  0.00    +0.000 A 
ATOM     12  C   UNL     1       2.310   7.906  18.953  0.00  0.00    +0.000 A 
ATOM     13  F   UNL     1       2.750   8.703  17.955  0.00  0.00    +0.000 F 
ENDROOT
BRANCH   1  17
ATOM     14  C   UNL     1      -0.333  11.665  19.263  0.00  0.00    +0.000 C 
ATOM     15  C   UNL     1      -0.273  11.463  20.784  0.00  0.00    +0.000 C 
ATOM     16  C   UNL     1       1.008  10.671  20.994  0.00  0.00    +0.000 C 
ATOM     17  N   UNL     1       1.071   9.822  19.799  0.00  0.00    +0.000 N 
ATOM     18  C   UNL     1       0.228  10.341  18.732  0.00  0.00    +0.000 C 
BRANCH  14  19
ATOM     19  C   UNL     1       0.501  12.850  18.749  0.00  0.00    +0.000 C 
BRANCH  19  20
ATOM     20  N   UNL     1       1.585  12.402  17.864  0.00  0.00    +0.000 NA
ATOM     21  H   UNL     1       1.725  11.397  17.944  0.00  0.00    +0.000 HD
BRANCH  20  23
ATOM     22  C   UNL     1       2.672  13.901  19.453  0.00  0.00    +0.000 C 
ATOM     23  C   UNL     1       2.845  13.073  18.189  0.00  0.00    +0.000 C 
ENDBRANCH  20  23
ENDBRANCH  19  20
ENDBRANCH  14  19
ENDBRANCH   1  17
BRANCH   8  24
ATOM     24  C   UNL     1       4.150   2.449  19.238  0.00  0.00    +0.000 C 
ATOM     25  O   UNL     1       3.773   1.575  18.472  0.00  0.00    +0.000 OA
BRANCH  24  26
ATOM     26  O   UNL     1       5.090   2.223  20.181  0.00  0.00    +0.000 OA
ATOM     27  H   UNL     1       6.016   2.366  19.871  0.00  0.00    +0.000 HD
ENDBRANCH  24  26
ENDBRANCH   8  24
BRANCH  10  28
ATOM     28  C   UNL     1       4.271   6.903  17.065  0.00  0.00    +0.000 C 
ATOM     29  C   UNL     1       5.152   6.234  16.022  0.00  0.00    +0.000 C 
ENDBRANCH  10  28
TORSDOF 7
ENDMDL
MODEL 7
REMARK VINA RESULT:      -7.1      2.378      3.895
REMARK  Name = 
REMARK  9 active torsions:
REMARK  status: ('A' for Active; 'I' for Inactive)
REMARK    1  A    between atoms: C_1  and  C_2
REMARK    2  A    between atoms: C_2  and  N_3
REMARK    3  A    between atoms: N_3  and  C_4
REMARK    4  A    between atoms: C_4  and  C_5
REMARK    5  A    between atoms: N_8  and  C_9
REMARK    6  A    between atoms: C_16  and  C_17
REMARK    7  A    between atoms: C_17  and  O_19
REMARK    8  A    between atoms: N_21  and  C_22
REMARK    9  A    between atoms: C_22  and  C_23
REMARK                            x       y       z     vdW  Elec       q    Type
REMARK                         _______ _______ _______ _____ _____    ______ ____
ROOT
ATOM      1  C   UNL     1       1.349   8.630  19.803  0.00  0.00    +0.000 A 
ATOM      2  C   UNL     1       0.897   7.797  20.847  0.00  0.00    +0.000 A 
ATOM      3  F   UNL     1       0.018   8.236  21.757  0.00  0.00    +0.000 F 
ATOM      4  C   UNL     1       1.350   6.498  21.001  0.00  0.00    +0.000 A 
ATOM      5  C   UNL     1       2.264   5.974  20.091  0.00  0.00    +0.000 A 
ATOM      6  C   UNL     1       2.735   4.580  20.285  0.00  0.00    +0.000 A 
ATOM      7  O   UNL     1       2.323   3.882  21.210  0.00  0.00    +0.000 OA
ATOM      8  C   UNL     1       3.726   4.035  19.344  0.00  0.00    +0.000 A 
ATOM      9  C   UNL     1       4.128   4.851  18.347  0.00  0.00    +0.000 A 
ATOM     10  N   UNL     1       3.705   6.149  18.115  0.00  0.00    +0.000 N 
ATOM     11  C   UNL     1       2.747   6.730  19.000  0.00  0.00    +0.000 A 
ATOM     12  C   UNL     1       2.246   8.037  18.891  0.00  0.00    +0.000 A 
ATOM     13  F   UNL     1       2.643   8.798  17.848  0.00  0.00    +0.000 F 
ENDROOT
BRANCH   1  17
ATOM     14  C   UNL     1      -0.608  11.711  19.302  0.00  0.00    +0.000 C 
ATOM     15  C   UNL     1      -0.136  11.700  20.763  0.00  0.00    +0.000 C 
ATOM     16  C   UNL     1       1.179  10.937  20.713  0.00  0.00    +0.000 C 
ATOM     17  N   UNL     1       0.946   9.946  19.657  0.00  0.00    +0.000 N 
ATOM     18  C   UNL     1      -0.168  10.330  18.803  0.00  0.00    +0.000 C 
BRANCH  14  19
ATOM     19  C   UNL     1       0.020  12.821  18.442  0.00  0.00    +0.000 C 
BRANCH  19  20
ATOM     20  N   UNL     1      -0.708  14.089  18.585  0.00  0.00    +0.000 NA
ATOM     21  H   UNL     1      -1.143  14.358  17.705  0.00  0.00    +0.000 HD
BRANCH  20  23
ATOM     22  C   UNL     1       1.633  14.727  18.844  0.00  0.00    +0.000 C 
ATOM     23  C   UNL     1       0.186  15.168  19.008  0.00  0.00    +0.000 C 
ENDBRANCH  20  23
ENDBRANCH  19  20
ENDBRANCH  14  19
ENDBRANCH   1  17
BRANCH   8  24
ATOM     24  C   UNL     1       4.296   2.675  19.426  0.00  0.00    +0.000 C 
ATOM     25  O   UNL     1       4.974   2.280  20.363  0.00  0.00    +0.000 OA
BRANCH  24  26
ATOM     26  O   UNL     1       4.001   1.887  18.370  0.00  0.00    +0.000 OA
ATOM     27  H   UNL     1       3.812   0.948  18.606  0.00  0.00    +0.000 HD
ENDBRANCH  24  26
ENDBRANCH   8  24
BRANCH  10  28
ATOM     28  C   UNL     1       4.220   7.013  17.028  0.00  0.00    +0.000 C 
ATOM     29  C   UNL     1       5.157   6.338  16.039  0.00  0.00    +0.000 C 
ENDBRANCH  10  28
TORSDOF 7
ENDMDL
MODEL 8
REMARK VINA RESULT:      -7.0      3.722      8.832
REMARK  Name = 
REMARK  9 active torsions:
REMARK  status: ('A' for Active; 'I' for Inactive)
REMARK    1  A    between atoms: C_1  and  C_2
REMARK    2  A    between atoms: C_2  and  N_3
REMARK    3  A    between atoms: N_3  and  C_4
REMARK    4  A    between atoms: C_4  and  C_5
REMARK    5  A    between atoms: N_8  and  C_9
REMARK    6  A    between atoms: C_16  and  C_17
REMARK    7  A    between atoms: C_17  and  O_19
REMARK    8  A    between atoms: N_21  and  C_22
REMARK    9  A    between atoms: C_22  and  C_23
REMARK                            x       y       z     vdW  Elec       q    Type
REMARK                         _______ _______ _______ _____ _____    ______ ____
ROOT
ATOM      1  C   UNL     1       2.717   6.432  18.772  0.00  0.00    +0.000 A 
ATOM      2  C   UNL     1       2.217   5.912  19.984  0.00  0.00    +0.000 A 
ATOM      3  F   UNL     1       2.416   4.634  20.327  0.00  0.00    +0.000 F 
ATOM      4  C   UNL     1       1.479   6.682  20.867  0.00  0.00    +0.000 A 
ATOM      5  C   UNL     1       1.234   8.022  20.575  0.00  0.00    +0.000 A 
ATOM      6  C   UNL     1       0.436   8.820  21.539  0.00  0.00    +0.000 A 
ATOM      7  O   UNL     1       0.011   8.333  22.584  0.00  0.00    +0.000 OA
ATOM      8  C   UNL     1       0.148  10.227  21.217  0.00  0.00    +0.000 A 
ATOM      9  C   UNL     1       0.652  10.699  20.058  0.00  0.00    +0.000 A 
ATOM     10  N   UNL     1       1.416  10.000  19.138  0.00  0.00    +0.000 N 
ATOM     11  C   UNL     1       1.723   8.630  19.398  0.00  0.00    +0.000 A 
ATOM     12  C   UNL     1       2.470   7.801  18.545  0.00  0.00    +0.000 A 
ATOM     13  F   UNL     1       2.995   8.335  17.420  0.00  0.00    +0.000 F 
ENDROOT
BRANCH   1  17
ATOM     14  C   UNL     1       5.273   4.435  17.026  0.00  0.00    +0.000 C 
ATOM     15  C   UNL     1       4.122   3.488  17.391  0.00  0.00    +0.000 C 
ATOM     16  C   UNL     1       2.894   4.385  17.373  0.00  0.00    +0.000 C 
ATOM     17  N   UNL     1       3.417   5.670  17.854  0.00  0.00    +0.000 N 
ATOM     18  C   UNL     1       4.865   5.737  17.726  0.00  0.00    +0.000 C 
BRANCH  14  19
ATOM     19  C   UNL     1       5.447   4.667  15.515  0.00  0.00    +0.000 C 
BRANCH  19  20
ATOM     20  N   UNL     1       6.210   3.579  14.888  0.00  0.00    +0.000 NA
ATOM     21  H   UNL     1       7.078   3.409  15.391  0.00  0.00    +0.000 HD
BRANCH  20  23
ATOM     22  C   UNL     1       5.384   3.474  12.594  0.00  0.00    +0.000 C 
ATOM     23  C   UNL     1       6.535   3.894  13.496  0.00  0.00    +0.000 C 
ENDBRANCH  20  23
ENDBRANCH  19  20
ENDBRANCH  14  19
ENDBRANCH   1  17
BRANCH   8  24
ATOM     24  C   UNL     1      -0.647  11.133  22.071  0.00  0.00    +0.000 C 
ATOM     25  O   UNL     1      -1.404  11.987  21.632  0.00  0.00    +0.000 OA
BRANCH  24  26
ATOM     26  O   UNL     1      -0.474  10.939  23.395  0.00  0.00    +0.000 OA
ATOM     27  H   UNL     1       0.407  10.564  23.637  0.00  0.00    +0.000 HD
ENDBRANCH  24  26
ENDBRANCH   8  24
BRANCH  10  28
ATOM     28  C   UNL     1       1.902  10.562  17.858  0.00  0.00    +0.000 C 
ATOM     29  C   UNL     1       2.478  11.967  17.934  0.00  0.00    +0.000 C 
ENDBRANCH  10  28
TORSDOF 7
ENDMDL
MODEL 9
REMARK VINA RESULT:      -7.0      2.413      3.931
REMARK  Name = 
REMARK  9 active torsions:
REMARK  status: ('A' for Active; 'I' for Inactive)
REMARK    1  A    between atoms: C_1  and  C_2
REMARK    2  A    between atoms: C_2  and  N_3
REMARK    3  A    between atoms: N_3  and  C_4
REMARK    4  A    between atoms: C_4  and  C_5
REMARK    5  A    between atoms: N_8  and  C_9
REMARK    6  A    between atoms: C_16  and  C_17
REMARK    7  A    between atoms: C_17  and  O_19
REMARK    8  A    between atoms: N_21  and  C_22
REMARK    9  A    between atoms: C_22  and  C_23
REMARK                            x       y       z     vdW  Elec       q    Type
REMARK                         _______ _______ _______ _____ _____    ______ ____
ROOT
ATOM      1  C   UNL     1       1.303   8.451  19.878  0.00  0.00    +0.000 A 
ATOM      2  C   UNL     1       0.840   7.601  20.905  0.00  0.00    +0.000 A 
ATOM      3  F   UNL     1      -0.069   8.017  21.794  0.00  0.00    +0.000 F 
ATOM      4  C   UNL     1       1.314   6.309  21.060  0.00  0.00    +0.000 A 
ATOM      5  C   UNL     1       2.260   5.810  20.169  0.00  0.00    +0.000 A 
ATOM      6  C   UNL     1       2.752   4.423  20.365  0.00  0.00    +0.000 A 
ATOM      7  O   UNL     1       2.330   3.711  21.274  0.00  0.00    +0.000 OA
ATOM      8  C   UNL     1       3.776   3.904  19.445  0.00  0.00    +0.000 A 
ATOM      9  C   UNL     1       4.188   4.735  18.465  0.00  0.00    +0.000 A 
ATOM     10  N   UNL     1       3.747   6.028  18.232  0.00  0.00    +0.000 N 
ATOM     11  C   UNL     1       2.756   6.584  19.097  0.00  0.00    +0.000 A 
ATOM     12  C   UNL     1       2.234   7.882  18.986  0.00  0.00    +0.000 A 
ATOM     13  F   UNL     1       2.642   8.659  17.958  0.00  0.00    +0.000 F 
ENDROOT
BRANCH   1  17
ATOM     14  C   UNL     1      -0.714  11.520  19.593  0.00  0.00    +0.000 C 
ATOM     15  C   UNL     1       0.054  11.599  20.920  0.00  0.00    +0.000 C 
ATOM     16  C   UNL     1       1.329  10.815  20.647  0.00  0.00    +0.000 C 
ATOM     17  N   UNL     1       0.879   9.760  19.732  0.00  0.00    +0.000 N 
ATOM     18  C   UNL     1      -0.389  10.103  19.106  0.00  0.00    +0.000 C 
BRANCH  14  19
ATOM     19  C   UNL     1      -0.279  12.563  18.548  0.00  0.00    +0.000 C 
BRANCH  19  20
ATOM     20  N   UNL     1      -1.162  12.549  17.374  0.00  0.00    +0.000 NA
ATOM     21  H   UNL     1      -1.449  13.493  17.126  0.00  0.00    +0.000 HD
BRANCH  20  23
ATOM     22  C   UNL     1      -2.719  10.960  16.373  0.00  0.00    +0.000 C 
ATOM     23  C   UNL     1      -2.362  11.749  17.623  0.00  0.00    +0.000 C 
ENDBRANCH  20  23
ENDBRANCH  19  20
ENDBRANCH  14  19
ENDBRANCH   1  17
BRANCH   8  24
ATOM     24  C   UNL     1       4.370   2.554  19.531  0.00  0.00    +0.000 C 
ATOM     25  O   UNL     1       5.073   2.182  20.459  0.00  0.00    +0.000 OA
BRANCH  24  26
ATOM     26  O   UNL     1       4.066   1.749  18.491  0.00  0.00    +0.000 OA
ATOM     27  H   UNL     1       3.468   0.998  18.722  0.00  0.00    +0.000 HD
ENDBRANCH  24  26
ENDBRANCH   8  24
BRANCH  10  28
ATOM     28  C   UNL     1       4.273   6.910  17.166  0.00  0.00    +0.000 C 
ATOM     29  C   UNL     1       5.788   6.978  17.057  0.00  0.00    +0.000 C 
ENDBRANCH  10  28
TORSDOF 7
ENDMDL
