MODEL 1
REMARK VINA RESULT:      -6.8      0.000      0.000
REMARK  Name = 
REMARK  5 active torsions:
REMARK  status: ('A' for Active; 'I' for Inactive)
REMARK    1  A    between atoms: C_2  and  C_15
REMARK    2  A    between atoms: N_3  and  C_4
REMARK    3  A    between atoms: C_4  and  C_5
REMARK    4  A    between atoms: C_6  and  C_7
REMARK    5  A    between atoms: C_7  and  N_8
REMARK                            x       y       z     vdW  Elec       q    Type
REMARK                         _______ _______ _______ _____ _____    ______ ____
ROOT
ATOM      1  C   UNL     1       1.962   8.712  18.170  0.00  0.00    +0.000 C 
ATOM      2  C   UNL     1       2.607   7.581  18.106  0.00  0.00    +0.000 C 
ENDROOT
BRANCH   1   3
ATOM      3  C   UNL     1       1.209  10.031  18.245  0.00  0.00    +0.000 C 
BRANCH   3   6
ATOM      4  O   UNL     1      -1.142  10.710  19.474  0.00  0.00    +0.000 OA
ATOM      5  C   UNL     1      -1.218  10.302  18.318  0.00  0.00    +0.000 C 
ATOM      6  N   UNL     1      -0.083   9.930  17.617  0.00  0.00    +0.000 N 
ATOM      7  H   UNL     1      -0.139   9.543  16.686  0.00  0.00    +0.000 HD
BRANCH   5   8
ATOM      8  C   UNL     1      -2.551  10.124  17.545  0.00  0.00    +0.000 C 
ATOM      9  C   UNL     1      -3.587  11.270  17.686  0.00  0.00    +0.000 C 
ATOM     10  C   UNL     1      -3.988  11.023  16.221  0.00  0.00    +0.000 C 
ATOM     11  C   UNL     1      -2.590  10.410  16.014  0.00  0.00    +0.000 C 
ENDBRANCH   5   8
ENDBRANCH   3   6
ENDBRANCH   1   3
BRANCH   2  12
ATOM     12  C   UNL     1       3.361   6.264  18.030  0.00  0.00    +0.000 C 
BRANCH  12  13
ATOM     13  N   UNL     1       2.527   5.141  18.478  0.00  0.00    +0.000 NA
ATOM     14  C   UNL     1       3.199   3.879  18.160  0.00  0.00    +0.000 C 
ATOM     15  C   UNL     1       2.192   2.768  17.861  0.00  0.00    +0.000 C 
ATOM     16  C   UNL     1       1.528   2.145  19.083  0.00  0.00    +0.000 C 
ATOM     17  C   UNL     1       0.810   3.133  19.993  0.00  0.00    +0.000 C 
ATOM     18  C   UNL     1       1.782   4.068  20.700  0.00  0.00    +0.000 C 
ATOM     19  C   UNL     1       2.141   5.309  19.887  0.00  0.00    +0.000 C 
ENDBRANCH  12  13
ENDBRANCH   2  12
TORSDOF 5
ENDMDL
MODEL 2
REMARK VINA RESULT:      -6.8      5.473      8.098
REMARK  Name = 
REMARK  5 active torsions:
REMARK  status: ('A' for Active; 'I' for Inactive)
REMARK    1  A    between atoms: C_2  and  C_15
REMARK    2  A    between atoms: N_3  and  C_4
REMARK    3  A    between atoms: C_4  and  C_5
REMARK    4  A    between atoms: C_6  and  C_7
REMARK    5  A    between atoms: C_7  and  N_8
REMARK                            x       y       z     vdW  Elec       q    Type
REMARK                         _______ _______ _______ _____ _____    ______ ____
ROOT
ATOM      1  C   UNL     1       5.425   4.878  16.693  0.00  0.00    +0.000 C 
ATOM      2  C   UNL     1       4.371   5.276  17.349  0.00  0.00    +0.000 C 
ENDROOT
BRANCH   1   3
ATOM      3  C   UNL     1       6.655   4.415  15.929  0.00  0.00    +0.000 C 
BRANCH   3   6
ATOM      4  O   UNL     1       7.671   5.362  13.568  0.00  0.00    +0.000 OA
ATOM      5  C   UNL     1       6.870   4.434  13.495  0.00  0.00    +0.000 C 
ATOM      6  N   UNL     1       6.299   3.892  14.636  0.00  0.00    +0.000 N 
ATOM      7  H   UNL     1       5.601   3.166  14.583  0.00  0.00    +0.000 HD
BRANCH   5   8
ATOM      8  C   UNL     1       6.389   3.804  12.161  0.00  0.00    +0.000 C 
ATOM      9  C   UNL     1       6.860   2.354  11.875  0.00  0.00    +0.000 C 
ATOM     10  C   UNL     1       5.499   2.096  11.204  0.00  0.00    +0.000 C 
ATOM     11  C   UNL     1       4.937   3.248  12.059  0.00  0.00    +0.000 C 
ENDBRANCH   5   8
ENDBRANCH   3   6
ENDBRANCH   1   3
BRANCH   2  12
ATOM     12  C   UNL     1       3.141   5.739  18.112  0.00  0.00    +0.000 C 
BRANCH  12  13
ATOM     13  N   UNL     1       2.839   4.846  19.238  0.00  0.00    +0.000 NA
ATOM     14  C   UNL     1       1.549   4.192  19.007  0.00  0.00    +0.000 C 
ATOM     15  C   UNL     1       0.822   3.909  20.322  0.00  0.00    +0.000 C 
ATOM     16  C   UNL     1       1.331   2.702  21.100  0.00  0.00    +0.000 C 
ATOM     17  C   UNL     1       2.816   2.739  21.438  0.00  0.00    +0.000 C 
ATOM     18  C   UNL     1       3.687   2.608  20.196  0.00  0.00    +0.000 C 
ATOM     19  C   UNL     1       3.966   3.936  19.498  0.00  0.00    +0.000 C 
ENDBRANCH  12  13
ENDBRANCH   2  12
TORSDOF 5
ENDMDL
MODEL 3
REMARK VINA RESULT:      -6.7      1.130      1.530
REMARK  Name = 
REMARK  5 active torsions:
REMARK  status: ('A' for Active; 'I' for Inactive)
REMARK    1  A    between atoms: C_2  and  C_15
REMARK    2  A    between atoms: N_3  and  C_4
REMARK    3  A    between atoms: C_4  and  C_5
REMARK    4  A    between atoms: C_6  and  C_7
REMARK    5  A    between atoms: C_7  and  N_8
REMARK                            x       y       z     vdW  Elec       q    Type
REMARK                         _______ _______ _______ _____ _____    ______ ____
ROOT
ATOM      1  C   UNL     1       2.495   8.281  18.002  0.00  0.00    +0.000 C 
ATOM      2  C   UNL     1       3.029   7.091  17.999  0.00  0.00    +0.000 C 
ENDROOT
BRANCH   1   3
ATOM      3  C   UNL     1       1.874   9.668  18.005  0.00  0.00    +0.000 C 
BRANCH   3   6
ATOM      4  O   UNL     1      -0.018  11.093  19.379  0.00  0.00    +0.000 OA
ATOM      5  C   UNL     1      -0.419  10.371  18.470  0.00  0.00    +0.000 C 
ATOM      6  N   UNL     1       0.464   9.608  17.723  0.00  0.00    +0.000 N 
ATOM      7  H   UNL     1       0.139   8.972  17.009  0.00  0.00    +0.000 HD
BRANCH   5   8
ATOM      8  C   UNL     1      -1.913  10.203  18.089  0.00  0.00    +0.000 C 
ATOM      9  C   UNL     1      -2.750  11.506  17.989  0.00  0.00    +0.000 C 
ATOM     10  C   UNL     1      -3.526  10.861  16.826  0.00  0.00    +0.000 C 
ATOM     11  C   UNL     1      -2.298   9.958  16.598  0.00  0.00    +0.000 C 
ENDBRANCH   5   8
ENDBRANCH   3   6
ENDBRANCH   1   3
BRANCH   2  12
ATOM     12  C   UNL     1       3.651   5.705  17.997  0.00  0.00    +0.000 C 
BRANCH  12  13
ATOM     13  N   UNL     1       3.167   4.896  19.123  0.00  0.00    +0.000 NA
ATOM     14  C   UNL     1       1.799   4.451  18.850  0.00  0.00    +0.000 C 
ATOM     15  C   UNL     1       0.987   4.315  20.137  0.00  0.00    +0.000 C 
ATOM     16  C   UNL     1       1.267   3.060  20.955  0.00  0.00    +0.000 C 
ATOM     17  C   UNL     1       2.725   2.868  21.352  0.00  0.00    +0.000 C 
ATOM     18  C   UNL     1       3.610   2.573  20.149  0.00  0.00    +0.000 C 
ATOM     19  C   UNL     1       4.124   3.825  19.443  0.00  0.00    +0.000 C 
ENDBRANCH  12  13
ENDBRANCH   2  12
TORSDOF 5
ENDMDL
MODEL 4
REMARK VINA RESULT:      -6.7      0.645      1.506
REMARK  Name = 
REMARK  5 active torsions:
REMARK  status: ('A' for Active; 'I' for Inactive)
REMARK    1  A    between atoms: C_2  and  C_15
REMARK    2  A    between atoms: N_3  and  C_4
REMARK    3  A    between atoms: C_4  and  C_5
REMARK    4  A    between atoms: C_6  and  C_7
REMARK    5  A    between atoms: C_7  and  N_8
REMARK                            x       y       z     vdW  Elec       q    Type
REMARK                         _______ _______ _______ _____ _____    ______ ____
ROOT
ATOM      1  C   UNL     1       2.237   8.669  18.076  0.00  0.00    +0.000 C 
ATOM      2  C   UNL     1       2.871   7.537  17.939  0.00  0.00    +0.000 C 
ENDROOT
BRANCH   1   3
ATOM      3  C   UNL     1       1.497   9.987  18.236  0.00  0.00    +0.000 C 
BRANCH   3   6
ATOM      4  O   UNL     1      -0.737  10.596  19.698  0.00  0.00    +0.000 OA
ATOM      5  C   UNL     1      -0.914  10.231  18.538  0.00  0.00    +0.000 C 
ATOM      6  N   UNL     1       0.155   9.897  17.724  0.00  0.00    +0.000 N 
ATOM      7  H   UNL     1       0.017   9.546  16.788  0.00  0.00    +0.000 HD
BRANCH   5   8
ATOM      8  C   UNL     1      -2.311  10.070  17.883  0.00  0.00    +0.000 C 
ATOM      9  C   UNL     1      -3.130  11.371  17.678  0.00  0.00    +0.000 C 
ATOM     10  C   UNL     1      -3.671  10.768  16.370  0.00  0.00    +0.000 C 
ATOM     11  C   UNL     1      -2.412   9.880  16.339  0.00  0.00    +0.000 C 
ENDBRANCH   5   8
ENDBRANCH   3   6
ENDBRANCH   1   3
BRANCH   2  12
ATOM     12  C   UNL     1       3.610   6.219  17.778  0.00  0.00    +0.000 C 
BRANCH  12  13
ATOM     13  N   UNL     1       2.987   5.152  18.571  0.00  0.00    +0.000 NA
ATOM     14  C   UNL     1       2.240   5.745  19.682  0.00  0.00    +0.000 C 
ATOM     15  C   UNL     1       2.234   4.828  20.905  0.00  0.00    +0.000 C 
ATOM     16  C   UNL     1       1.262   3.656  20.834  0.00  0.00    +0.000 C 
ATOM     17  C   UNL     1       1.443   2.748  19.625  0.00  0.00    +0.000 C 
ATOM     18  C   UNL     1       1.069   3.447  18.325  0.00  0.00    +0.000 C 
ATOM     19  C   UNL     1       2.213   4.247  17.707  0.00  0.00    +0.000 C 
ENDBRANCH  12  13
ENDBRANCH   2  12
TORSDOF 5
ENDMDL
MODEL 5
REMARK VINA RESULT:      -6.6      5.358      8.029
REMARK  Name = 
REMARK  5 active torsions:
REMARK  status: ('A' for Active; 'I' for Inactive)
REMARK    1  A    between atoms: C_2  and  C_15
REMARK    2  A    between atoms: N_3  and  C_4
REMARK    3  A    between atoms: C_4  and  C_5
REMARK    4  A    between atoms: C_6  and  C_7
REMARK    5  A    between atoms: C_7  and  N_8
REMARK                            x       y       z     vdW  Elec       q    Type
REMARK                         _______ _______ _______ _____ _____    ______ ____
ROOT
ATOM      1  C   UNL     1       5.805   5.050  16.534  0.00  0.00    +0.000 C 
ATOM      2  C   UNL     1       4.810   5.551  17.212  0.00  0.00    +0.000 C 
ENDROOT
BRANCH   1   3
ATOM      3  C   UNL     1       6.965   4.467  15.742  0.00  0.00    +0.000 C 
BRANCH   3   6
ATOM      4  O   UNL     1       7.698   5.418  13.282  0.00  0.00    +0.000 OA
ATOM      5  C   UNL     1       6.944   4.449  13.300  0.00  0.00    +0.000 C 
ATOM      6  N   UNL     1       6.515   3.902  14.498  0.00  0.00    +0.000 N 
ATOM      7  H   UNL     1       5.853   3.139  14.524  0.00  0.00    +0.000 HD
BRANCH   5   8
ATOM      8  C   UNL     1       6.372   3.770  12.028  0.00  0.00    +0.000 C 
ATOM      9  C   UNL     1       6.770   2.288  11.800  0.00  0.00    +0.000 C 
ATOM     10  C   UNL     1       5.367   2.051  11.212  0.00  0.00    +0.000 C 
ATOM     11  C   UNL     1       4.895   3.271  12.027  0.00  0.00    +0.000 C 
ENDBRANCH   5   8
ENDBRANCH   3   6
ENDBRANCH   1   3
BRANCH   2  12
ATOM     12  C   UNL     1       3.651   6.135  18.003  0.00  0.00    +0.000 C 
BRANCH  12  13
ATOM     13  N   UNL     1       2.724   5.088  18.450  0.00  0.00    +0.000 NA
ATOM     14  C   UNL     1       3.355   3.777  18.287  0.00  0.00    +0.000 C 
ATOM     15  C   UNL     1       2.323   2.693  17.976  0.00  0.00    +0.000 C 
ATOM     16  C   UNL     1       1.521   2.195  19.173  0.00  0.00    +0.000 C 
ATOM     17  C   UNL     1       0.777   3.280  19.940  0.00  0.00    +0.000 C 
ATOM     18  C   UNL     1       1.729   4.221  20.665  0.00  0.00    +0.000 C 
ATOM     19  C   UNL     1       2.223   5.379  19.802  0.00  0.00    +0.000 C 
ENDBRANCH  12  13
ENDBRANCH   2  12
TORSDOF 5
ENDMDL
MODEL 6
REMARK VINA RESULT:      -6.6      4.857      7.252
REMARK  Name = 
REMARK  5 active torsions:
REMARK  status: ('A' for Active; 'I' for Inactive)
REMARK    1  A    between atoms: C_2  and  C_15
REMARK    2  A    between atoms: N_3  and  C_4
REMARK    3  A    between atoms: C_4  and  C_5
REMARK    4  A    between atoms: C_6  and  C_7
REMARK    5  A    between atoms: C_7  and  N_8
REMARK                            x       y       z     vdW  Elec       q    Type
REMARK                         _______ _______ _______ _____ _____    ______ ____
ROOT
ATOM      1  C   UNL     1       4.670   6.743  17.160  0.00  0.00    +0.000 C 
ATOM      2  C   UNL     1       3.684   6.763  18.013  0.00  0.00    +0.000 C 
ENDROOT
BRANCH   1   3
ATOM      3  C   UNL     1       5.821   6.719  16.167  0.00  0.00    +0.000 C 
BRANCH   3   6
ATOM      4  O   UNL     1       7.738   4.856  15.574  0.00  0.00    +0.000 OA
ATOM      5  C   UNL     1       6.675   4.771  14.965  0.00  0.00    +0.000 C 
ATOM      6  N   UNL     1       5.648   5.673  15.194  0.00  0.00    +0.000 N 
ATOM      7  H   UNL     1       4.791   5.644  14.661  0.00  0.00    +0.000 HD
BRANCH   5   8
ATOM      8  C   UNL     1       6.379   3.706  13.877  0.00  0.00    +0.000 C 
ATOM      9  C   UNL     1       4.946   3.707  13.284  0.00  0.00    +0.000 C 
ATOM     10  C   UNL     1       5.560   3.316  11.927  0.00  0.00    +0.000 C 
ATOM     11  C   UNL     1       6.878   3.945  12.420  0.00  0.00    +0.000 C 
ENDBRANCH   5   8
ENDBRANCH   3   6
ENDBRANCH   1   3
BRANCH   2  12
ATOM     12  C   UNL     1       2.533   6.788  19.006  0.00  0.00    +0.000 C 
BRANCH  12  13
ATOM     13  N   UNL     1       2.041   5.435  19.293  0.00  0.00    +0.000 NA
ATOM     14  C   UNL     1       2.189   4.600  18.099  0.00  0.00    +0.000 C 
ATOM     15  C   UNL     1       1.090   3.540  18.017  0.00  0.00    +0.000 C 
ATOM     16  C   UNL     1       1.284   2.332  18.926  0.00  0.00    +0.000 C 
ATOM     17  C   UNL     1       1.444   2.663  20.404  0.00  0.00    +0.000 C 
ATOM     18  C   UNL     1       2.752   3.388  20.688  0.00  0.00    +0.000 C 
ATOM     19  C   UNL     1       2.666   4.901  20.513  0.00  0.00    +0.000 C 
ENDBRANCH  12  13
ENDBRANCH   2  12
TORSDOF 5
ENDMDL
MODEL 7
REMARK VINA RESULT:      -6.6      5.289      7.540
REMARK  Name = 
REMARK  5 active torsions:
REMARK  status: ('A' for Active; 'I' for Inactive)
REMARK    1  A    between atoms: C_2  and  C_15
REMARK    2  A    between atoms: N_3  and  C_4
REMARK    3  A    between atoms: C_4  and  C_5
REMARK    4  A    between atoms: C_6  and  C_7
REMARK    5  A    between atoms: C_7  and  N_8
REMARK                            x       y       z     vdW  Elec       q    Type
REMARK                         _______ _______ _______ _____ _____    ______ ____
ROOT
ATOM      1  C   UNL     1       5.645   5.465  17.916  0.00  0.00    +0.000 C 
ATOM      2  C   UNL     1       4.572   5.886  18.525  0.00  0.00    +0.000 C 
ENDROOT
BRANCH   1   3
ATOM      3  C   UNL     1       6.898   4.975  17.207  0.00  0.00    +0.000 C 
BRANCH   3   6
ATOM      4  O   UNL     1       7.493   5.589  14.606  0.00  0.00    +0.000 OA
ATOM      5  C   UNL     1       6.915   4.524  14.806  0.00  0.00    +0.000 C 
ATOM      6  N   UNL     1       6.568   4.132  16.089  0.00  0.00    +0.000 N 
ATOM      7  H   UNL     1       6.045   3.285  16.259  0.00  0.00    +0.000 HD
BRANCH   5   8
ATOM      8  C   UNL     1       6.484   3.545  13.683  0.00  0.00    +0.000 C 
ATOM      9  C   UNL     1       5.008   3.642  13.214  0.00  0.00    +0.000 C 
ATOM     10  C   UNL     1       5.491   3.315  11.789  0.00  0.00    +0.000 C 
ATOM     11  C   UNL     1       6.872   3.857  12.207  0.00  0.00    +0.000 C 
ENDBRANCH   5   8
ENDBRANCH   3   6
ENDBRANCH   1   3
BRANCH   2  12
ATOM     12  C   UNL     1       3.320   6.376  19.234  0.00  0.00    +0.000 C 
BRANCH  12  13
ATOM     13  N   UNL     1       2.403   5.269  19.533  0.00  0.00    +0.000 NA
ATOM     14  C   UNL     1       2.494   4.262  18.475  0.00  0.00    +0.000 C 
ATOM     15  C   UNL     1       1.158   3.548  18.265  0.00  0.00    +0.000 C 
ATOM     16  C   UNL     1       0.823   2.479  19.299  0.00  0.00    +0.000 C 
ATOM     17  C   UNL     1       0.822   2.964  20.743  0.00  0.00    +0.000 C 
ATOM     18  C   UNL     1       2.219   3.331  21.223  0.00  0.00    +0.000 C 
ATOM     19  C   UNL     1       2.623   4.767  20.899  0.00  0.00    +0.000 C 
ENDBRANCH  12  13
ENDBRANCH   2  12
TORSDOF 5
ENDMDL
MODEL 8
REMARK VINA RESULT:      -6.6      5.532      8.057
REMARK  Name = 
REMARK  5 active torsions:
REMARK  status: ('A' for Active; 'I' for Inactive)
REMARK    1  A    between atoms: C_2  and  C_15
REMARK    2  A    between atoms: N_3  and  C_4
REMARK    3  A    between atoms: C_4  and  C_5
REMARK    4  A    between atoms: C_6  and  C_7
REMARK    5  A    between atoms: C_7  and  N_8
REMARK                            x       y       z     vdW  Elec       q    Type
REMARK                         _______ _______ _______ _____ _____    ______ ____
ROOT
ATOM      1  C   UNL     1       6.265   5.011  17.083  0.00  0.00    +0.000 C 
ATOM      2  C   UNL     1       5.361   5.332  17.967  0.00  0.00    +0.000 C 
ENDROOT
BRANCH   1   3
ATOM      3  C   UNL     1       7.318   4.637  16.052  0.00  0.00    +0.000 C 
BRANCH   3   6
ATOM      4  O   UNL     1       8.010   5.557  13.568  0.00  0.00    +0.000 OA
ATOM      5  C   UNL     1       7.131   4.701  13.617  0.00  0.00    +0.000 C 
ATOM      6  N   UNL     1       6.710   4.180  14.830  0.00  0.00    +0.000 N 
ATOM      7  H   UNL     1       5.952   3.516  14.885  0.00  0.00    +0.000 HD
BRANCH   5   8
ATOM      8  C   UNL     1       6.385   4.149  12.374  0.00  0.00    +0.000 C 
ATOM      9  C   UNL     1       6.811   2.740  11.885  0.00  0.00    +0.000 C 
ATOM     10  C   UNL     1       5.342   2.481  11.505  0.00  0.00    +0.000 C 
ATOM     11  C   UNL     1       4.956   3.551  12.544  0.00  0.00    +0.000 C 
ENDBRANCH   5   8
ENDBRANCH   3   6
ENDBRANCH   1   3
BRANCH   2  12
ATOM     12  C   UNL     1       4.309   5.706  18.998  0.00  0.00    +0.000 C 
BRANCH  12  13
ATOM     13  N   UNL     1       3.388   4.591  19.255  0.00  0.00    +0.000 NA
ATOM     14  C   UNL     1       2.071   5.120  19.612  0.00  0.00    +0.000 C 
ATOM     15  C   UNL     1       1.341   4.196  20.587  0.00  0.00    +0.000 C 
ATOM     16  C   UNL     1       0.711   2.958  19.962  0.00  0.00    +0.000 C 
ATOM     17  C   UNL     1       1.675   2.074  19.182  0.00  0.00    +0.000 C 
ATOM     18  C   UNL     1       2.174   2.754  17.915  0.00  0.00    +0.000 C 
ATOM     19  C   UNL     1       3.399   3.638  18.134  0.00  0.00    +0.000 C 
ENDBRANCH  12  13
ENDBRANCH   2  12
TORSDOF 5
ENDMDL
MODEL 9
REMARK VINA RESULT:      -6.6      2.239      3.244
REMARK  Name = 
REMARK  5 active torsions:
REMARK  status: ('A' for Active; 'I' for Inactive)
REMARK    1  A    between atoms: C_2  and  C_15
REMARK    2  A    between atoms: N_3  and  C_4
REMARK    3  A    between atoms: C_4  and  C_5
REMARK    4  A    between atoms: C_6  and  C_7
REMARK    5  A    between atoms: C_7  and  N_8
REMARK                            x       y       z     vdW  Elec       q    Type
REMARK                         _______ _______ _______ _____ _____    ______ ____
ROOT
ATOM      1  C   UNL     1       2.479   7.947  18.052  0.00  0.00    +0.000 C 
ATOM      2  C   UNL     1       2.737   6.673  18.159  0.00  0.00    +0.000 C 
ENDROOT
BRANCH   1   3
ATOM      3  C   UNL     1       2.176   9.432  17.929  0.00  0.00    +0.000 C 
BRANCH   3   6
ATOM      4  O   UNL     1       0.451  10.427  19.808  0.00  0.00    +0.000 OA
ATOM      5  C   UNL     1      -0.020  10.172  18.703  0.00  0.00    +0.000 C 
ATOM      6  N   UNL     1       0.775   9.660  17.690  0.00  0.00    +0.000 N 
ATOM      7  H   UNL     1       0.387   9.397  16.796  0.00  0.00    +0.000 HD
BRANCH   5   8
ATOM      8  C   UNL     1      -1.516  10.350  18.333  0.00  0.00    +0.000 C 
ATOM      9  C   UNL     1      -1.948  11.767  17.874  0.00  0.00    +0.000 C 
ATOM     10  C   UNL     1      -2.929  11.098  16.896  0.00  0.00    +0.000 C 
ATOM     11  C   UNL     1      -2.024   9.852  16.947  0.00  0.00    +0.000 C 
ENDBRANCH   5   8
ENDBRANCH   3   6
ENDBRANCH   1   3
BRANCH   2  12
ATOM     12  C   UNL     1       3.039   5.189  18.282  0.00  0.00    +0.000 C 
BRANCH  12  13
ATOM     13  N   UNL     1       4.431   4.891  17.921  0.00  0.00    +0.000 NA
ATOM     14  C   UNL     1       4.690   5.359  16.558  0.00  0.00    +0.000 C 
ATOM     15  C   UNL     1       5.722   4.479  15.851  0.00  0.00    +0.000 C 
ATOM     16  C   UNL     1       7.171   4.729  16.247  0.00  0.00    +0.000 C 
ATOM     17  C   UNL     1       7.457   4.601  17.738  0.00  0.00    +0.000 C 
ATOM     18  C   UNL     1       6.795   5.710  18.543  0.00  0.00    +0.000 C 
ATOM     19  C   UNL     1       5.355   5.401  18.946  0.00  0.00    +0.000 C 
ENDBRANCH  12  13
ENDBRANCH   2  12
TORSDOF 5
ENDMDL
