MODEL 1
REMARK VINA RESULT:      -7.4      0.000      0.000
REMARK  Name = 
REMARK  10 active torsions:
REMARK  status: ('A' for Active; 'I' for Inactive)
REMARK    1  A    between atoms: C_1  and  N_2
REMARK    2  A    between atoms: N_2  and  C_3
REMARK    3  A    between atoms: C_3  and  C_4
REMARK    4  A    between atoms: C_12  and  C_13
REMARK    5  A    between atoms: N_15  and  C_16
REMARK    6  A    between atoms: C_16  and  C_17
REMARK    7  A    between atoms: N_22  and  C_23
REMARK    8  A    between atoms: N_22  and  C_24
REMARK    9  A    between atoms: C_24  and  C_25
REMARK   10  A    between atoms: C_25  and  C_26
REMARK                            x       y       z     vdW  Elec       q    Type
REMARK                         _______ _______ _______ _____ _____    ______ ____
ROOT
ATOM      1  C   UNL     1       5.273   2.924  19.828  0.00  0.00    +0.000 C 
ATOM      2  N   UNL     1       4.906   3.132  18.436  0.00  0.00    +0.000 N 
ATOM      3  C   UNL     1       5.687   4.009  17.684  0.00  0.00    +0.000 A 
ATOM      4  C   UNL     1       5.680   3.914  16.316  0.00  0.00    +0.000 A 
ATOM      5  C   UNL     1       6.497   4.786  15.650  0.00  0.00    +0.000 A 
ATOM      6  N   UNL     1       7.251   5.737  16.240  0.00  0.00    +0.000 NA
ATOM      7  C   UNL     1       7.161   5.822  17.566  0.00  0.00    +0.000 A 
ATOM      8  N   UNL     1       7.728   6.910  18.208  0.00  0.00    +0.000 N 
ATOM      9  C   UNL     1       8.228   6.700  19.557  0.00  0.00    +0.000 C 
ATOM     10  N   UNL     1       6.445   4.943  18.296  0.00  0.00    +0.000 NA
ENDROOT
BRANCH   5  11
ATOM     11  C   UNL     1       6.573   4.694  14.163  0.00  0.00    +0.000 C 
ATOM     12  O   UNL     1       7.139   5.559  13.503  0.00  0.00    +0.000 OA
ATOM     13  N   UNL     1       5.931   3.609  13.611  0.00  0.00    +0.000 N 
ATOM     14  H   UNL     1       5.412   3.003  14.237  0.00  0.00    +0.000 HD
BRANCH  13  15
ATOM     15  C   UNL     1       5.806   3.478  12.183  0.00  0.00    +0.000 C 
BRANCH  15  16
ATOM     16  C   UNL     1       4.365   3.520  11.797  0.00  0.00    +0.000 C 
ATOM     17  C   UNL     1       3.952   4.003  10.427  0.00  0.00    +0.000 C 
ATOM     18  C   UNL     1       3.816   2.549  10.782  0.00  0.00    +0.000 C 
ENDBRANCH  15  16
ENDBRANCH  13  15
ENDBRANCH   5  11
BRANCH   2  19
ATOM     19  C   UNL     1       3.491   3.006  18.071  0.00  0.00    +0.000 C 
BRANCH  19  20
ATOM     20  C   UNL     1       2.569   3.842  18.942  0.00  0.00    +0.000 A 
ATOM     21  C   UNL     1       1.600   3.287  19.792  0.00  0.00    +0.000 A 
ATOM     22  C   UNL     1       0.802   4.102  20.600  0.00  0.00    +0.000 A 
ATOM     23  C   UNL     1       0.955   5.486  20.564  0.00  0.00    +0.000 A 
ATOM     24  C   UNL     1       1.898   6.056  19.714  0.00  0.00    +0.000 A 
ATOM     25  C   UNL     1       2.698   5.241  18.909  0.00  0.00    +0.000 A 
ENDBRANCH  19  20
ENDBRANCH   2  19
BRANCH   8  26
ATOM     26  C   UNL     1       8.365   7.948  17.396  0.00  0.00    +0.000 C 
BRANCH  26  27
ATOM     27  C   UNL     1       7.887   9.355  17.799  0.00  0.00    +0.000 C 
BRANCH  27  28
ATOM     28  C   UNL     1       8.998  10.198  18.380  0.00  0.00    +0.000 A 
ATOM     29  C   UNL     1       9.152  10.306  19.770  0.00  0.00    +0.000 A 
ATOM     30  C   UNL     1      10.179  11.081  20.310  0.00  0.00    +0.000 A 
ATOM     31  C   UNL     1      11.060  11.758  19.469  0.00  0.00    +0.000 A 
ATOM     32  C   UNL     1      10.914  11.659  18.086  0.00  0.00    +0.000 A 
ATOM     33  C   UNL     1       9.887  10.885  17.542  0.00  0.00    +0.000 A 
ENDBRANCH  27  28
ENDBRANCH  26  27
ENDBRANCH   8  26
TORSDOF 8
ENDMDL
MODEL 2
REMARK VINA RESULT:      -7.2      1.177      1.609
REMARK  Name = 
REMARK  10 active torsions:
REMARK  status: ('A' for Active; 'I' for Inactive)
REMARK    1  A    between atoms: C_1  and  N_2
REMARK    2  A    between atoms: N_2  and  C_3
REMARK    3  A    between atoms: C_3  and  C_4
REMARK    4  A    between atoms: C_12  and  C_13
REMARK    5  A    between atoms: N_15  and  C_16
REMARK    6  A    between atoms: C_16  and  C_17
REMARK    7  A    between atoms: N_22  and  C_23
REMARK    8  A    between atoms: N_22  and  C_24
REMARK    9  A    between atoms: C_24  and  C_25
REMARK   10  A    between atoms: C_25  and  C_26
REMARK                            x       y       z     vdW  Elec       q    Type
REMARK                         _______ _______ _______ _____ _____    ______ ____
ROOT
ATOM      1  C   UNL     1       4.269   2.739  20.380  0.00  0.00    +0.000 C 
ATOM      2  N   UNL     1       3.933   3.285  19.073  0.00  0.00    +0.000 N 
ATOM      3  C   UNL     1       4.914   4.019  18.407  0.00  0.00    +0.000 A 
ATOM      4  C   UNL     1       4.833   4.172  17.046  0.00  0.00    +0.000 A 
ATOM      5  C   UNL     1       5.848   4.876  16.460  0.00  0.00    +0.000 A 
ATOM      6  N   UNL     1       6.870   5.453  17.128  0.00  0.00    +0.000 NA
ATOM      7  C   UNL     1       6.853   5.326  18.454  0.00  0.00    +0.000 A 
ATOM      8  N   UNL     1       7.739   6.076  19.210  0.00  0.00    +0.000 N 
ATOM      9  C   UNL     1       8.199   5.498  20.462  0.00  0.00    +0.000 C 
ATOM     10  N   UNL     1       5.934   4.575  19.093  0.00  0.00    +0.000 NA
ENDROOT
BRANCH   5  11
ATOM     11  C   UNL     1       5.843   5.030  14.977  0.00  0.00    +0.000 C 
ATOM     12  O   UNL     1       5.370   6.028  14.444  0.00  0.00    +0.000 OA
ATOM     13  N   UNL     1       6.362   3.964  14.278  0.00  0.00    +0.000 N 
ATOM     14  H   UNL     1       6.642   3.147  14.810  0.00  0.00    +0.000 HD
BRANCH  13  15
ATOM     15  C   UNL     1       6.287   3.921  12.841  0.00  0.00    +0.000 C 
BRANCH  15  16
ATOM     16  C   UNL     1       5.085   3.144  12.421  0.00  0.00    +0.000 C 
ATOM     17  C   UNL     1       4.414   3.425  11.098  0.00  0.00    +0.000 C 
ATOM     18  C   UNL     1       5.174   2.144  11.295  0.00  0.00    +0.000 C 
ENDBRANCH  15  16
ENDBRANCH  13  15
ENDBRANCH   5  11
BRANCH   2  19
ATOM     19  C   UNL     1       2.533   3.635  18.813  0.00  0.00    +0.000 C 
BRANCH  19  20
ATOM     20  C   UNL     1       2.208   5.086  19.124  0.00  0.00    +0.000 A 
ATOM     21  C   UNL     1       2.256   6.108  18.164  0.00  0.00    +0.000 A 
ATOM     22  C   UNL     1       1.912   7.421  18.496  0.00  0.00    +0.000 A 
ATOM     23  C   UNL     1       1.524   7.735  19.795  0.00  0.00    +0.000 A 
ATOM     24  C   UNL     1       1.488   6.738  20.767  0.00  0.00    +0.000 A 
ATOM     25  C   UNL     1       1.828   5.425  20.434  0.00  0.00    +0.000 A 
ENDBRANCH  19  20
ENDBRANCH   2  19
BRANCH   8  26
ATOM     26  C   UNL     1       8.627   7.014  18.522  0.00  0.00    +0.000 C 
BRANCH  26  27
ATOM     27  C   UNL     1       7.846   8.195  17.918  0.00  0.00    +0.000 C 
BRANCH  27  28
ATOM     28  C   UNL     1       8.453   9.531  18.276  0.00  0.00    +0.000 A 
ATOM     29  C   UNL     1       9.309   9.648  19.381  0.00  0.00    +0.000 A 
ATOM     30  C   UNL     1       9.873  10.880  19.712  0.00  0.00    +0.000 A 
ATOM     31  C   UNL     1       9.585  12.009  18.946  0.00  0.00    +0.000 A 
ATOM     32  C   UNL     1       8.734  11.904  17.847  0.00  0.00    +0.000 A 
ATOM     33  C   UNL     1       8.167  10.672  17.514  0.00  0.00    +0.000 A 
ENDBRANCH  27  28
ENDBRANCH  26  27
ENDBRANCH   8  26
TORSDOF 8
ENDMDL
MODEL 3
REMARK VINA RESULT:      -7.1      7.973     11.883
REMARK  Name = 
REMARK  10 active torsions:
REMARK  status: ('A' for Active; 'I' for Inactive)
REMARK    1  A    between atoms: C_1  and  N_2
REMARK    2  A    between atoms: N_2  and  C_3
REMARK    3  A    between atoms: C_3  and  C_4
REMARK    4  A    between atoms: C_12  and  C_13
REMARK    5  A    between atoms: N_15  and  C_16
REMARK    6  A    between atoms: C_16  and  C_17
REMARK    7  A    between atoms: N_22  and  C_23
REMARK    8  A    between atoms: N_22  and  C_24
REMARK    9  A    between atoms: C_24  and  C_25
REMARK   10  A    between atoms: C_25  and  C_26
REMARK                            x       y       z     vdW  Elec       q    Type
REMARK                         _______ _______ _______ _____ _____    ______ ____
ROOT
ATOM      1  C   UNL     1      -2.635  10.998  16.319  0.00  0.00    +0.000 C 
ATOM      2  N   UNL     1      -2.928  11.121  17.739  0.00  0.00    +0.000 N 
ATOM      3  C   UNL     1      -1.895  10.859  18.639  0.00  0.00    +0.000 A 
ATOM      4  C   UNL     1      -1.963  11.368  19.910  0.00  0.00    +0.000 A 
ATOM      5  C   UNL     1      -0.898  11.097  20.723  0.00  0.00    +0.000 A 
ATOM      6  N   UNL     1       0.163  10.340  20.373  0.00  0.00    +0.000 NA
ATOM      7  C   UNL     1       0.136   9.817  19.148  0.00  0.00    +0.000 A 
ATOM      8  N   UNL     1       1.075   8.857  18.808  0.00  0.00    +0.000 N 
ATOM      9  C   UNL     1       1.490   8.796  17.416  0.00  0.00    +0.000 C 
ATOM     10  N   UNL     1      -0.837  10.111  18.263  0.00  0.00    +0.000 NA
ENDROOT
BRANCH   5  11
ATOM     11  C   UNL     1      -0.890  11.670  22.100  0.00  0.00    +0.000 C 
ATOM     12  O   UNL     1      -0.537  10.998  23.064  0.00  0.00    +0.000 OA
ATOM     13  N   UNL     1      -1.341  12.966  22.196  0.00  0.00    +0.000 N 
ATOM     14  H   UNL     1      -1.699  13.401  21.352  0.00  0.00    +0.000 HD
BRANCH  13  15
ATOM     15  C   UNL     1      -1.520  13.589  23.481  0.00  0.00    +0.000 C 
BRANCH  15  16
ATOM     16  C   UNL     1      -2.930  13.414  23.936  0.00  0.00    +0.000 C 
ATOM     17  C   UNL     1      -3.866  14.597  24.005  0.00  0.00    +0.000 C 
ATOM     18  C   UNL     1      -4.071  13.540  22.957  0.00  0.00    +0.000 C 
ENDBRANCH  15  16
ENDBRANCH  13  15
ENDBRANCH   5  11
BRANCH   2  19
ATOM     19  C   UNL     1      -4.298  10.847  18.185  0.00  0.00    +0.000 C 
BRANCH  19  20
ATOM     20  C   UNL     1      -5.159  12.093  18.283  0.00  0.00    +0.000 A 
ATOM     21  C   UNL     1      -5.303  12.839  19.464  0.00  0.00    +0.000 A 
ATOM     22  C   UNL     1      -6.080  14.001  19.489  0.00  0.00    +0.000 A 
ATOM     23  C   UNL     1      -6.733  14.430  18.337  0.00  0.00    +0.000 A 
ATOM     24  C   UNL     1      -6.619  13.693  17.161  0.00  0.00    +0.000 A 
ATOM     25  C   UNL     1      -5.839  12.534  17.134  0.00  0.00    +0.000 A 
ENDBRANCH  19  20
ENDBRANCH   2  19
BRANCH   8  26
ATOM     26  C   UNL     1       2.031   8.421  19.826  0.00  0.00    +0.000 C 
BRANCH  26  27
ATOM     27  C   UNL     1       2.940   7.293  19.305  0.00  0.00    +0.000 C 
BRANCH  27  28
ATOM     28  C   UNL     1       2.272   5.939  19.363  0.00  0.00    +0.000 A 
ATOM     29  C   UNL     1       2.121   5.173  18.199  0.00  0.00    +0.000 A 
ATOM     30  C   UNL     1       1.507   3.920  18.249  0.00  0.00    +0.000 A 
ATOM     31  C   UNL     1       1.034   3.424  19.462  0.00  0.00    +0.000 A 
ATOM     32  C   UNL     1       1.177   4.179  20.626  0.00  0.00    +0.000 A 
ATOM     33  C   UNL     1       1.790   5.432  20.578  0.00  0.00    +0.000 A 
ENDBRANCH  27  28
ENDBRANCH  26  27
ENDBRANCH   8  26
TORSDOF 8
ENDMDL
MODEL 4
REMARK VINA RESULT:      -6.9      7.721     11.389
REMARK  Name = 
REMARK  10 active torsions:
REMARK  status: ('A' for Active; 'I' for Inactive)
REMARK    1  A    between atoms: C_1  and  N_2
REMARK    2  A    between atoms: N_2  and  C_3
REMARK    3  A    between atoms: C_3  and  C_4
REMARK    4  A    between atoms: C_12  and  C_13
REMARK    5  A    between atoms: N_15  and  C_16
REMARK    6  A    between atoms: C_16  and  C_17
REMARK    7  A    between atoms: N_22  and  C_23
REMARK    8  A    between atoms: N_22  and  C_24
REMARK    9  A    between atoms: C_24  and  C_25
REMARK   10  A    between atoms: C_25  and  C_26
REMARK                            x       y       z     vdW  Elec       q    Type
REMARK                         _______ _______ _______ _____ _____    ______ ____
ROOT
ATOM      1  C   UNL     1       1.986  13.927  21.203  0.00  0.00    +0.000 C 
ATOM      2  N   UNL     1       1.247  13.630  19.985  0.00  0.00    +0.000 N 
ATOM      3  C   UNL     1       0.657  12.371  19.876  0.00  0.00    +0.000 A 
ATOM      4  C   UNL     1      -0.383  12.188  19.001  0.00  0.00    +0.000 A 
ATOM      5  C   UNL     1      -0.931  10.936  18.974  0.00  0.00    +0.000 A 
ATOM      6  N   UNL     1      -0.491   9.888  19.702  0.00  0.00    +0.000 NA
ATOM      7  C   UNL     1       0.566  10.113  20.480  0.00  0.00    +0.000 A 
ATOM      8  N   UNL     1       1.201   9.037  21.076  0.00  0.00    +0.000 N 
ATOM      9  C   UNL     1       1.837   9.269  22.363  0.00  0.00    +0.000 C 
ATOM     10  N   UNL     1       1.104  11.341  20.624  0.00  0.00    +0.000 NA
ENDROOT
BRANCH   5  11
ATOM     11  C   UNL     1      -2.101  10.690  18.082  0.00  0.00    +0.000 C 
ATOM     12  O   UNL     1      -2.029   9.903  17.144  0.00  0.00    +0.000 OA
ATOM     13  N   UNL     1      -3.222  11.436  18.370  0.00  0.00    +0.000 N 
ATOM     14  H   UNL     1      -3.147  12.128  19.108  0.00  0.00    +0.000 HD
BRANCH  13  15
ATOM     15  C   UNL     1      -4.369  11.402  17.502  0.00  0.00    +0.000 C 
BRANCH  15  16
ATOM     16  C   UNL     1      -5.511  12.114  18.147  0.00  0.00    +0.000 C 
ATOM     17  C   UNL     1      -6.934  11.698  17.859  0.00  0.00    +0.000 C 
ATOM     18  C   UNL     1      -6.335  11.433  19.211  0.00  0.00    +0.000 C 
ENDBRANCH  15  16
ENDBRANCH  13  15
ENDBRANCH   5  11
BRANCH   2  19
ATOM     19  C   UNL     1       1.675  14.286  18.744  0.00  0.00    +0.000 C 
BRANCH  19  20
ATOM     20  C   UNL     1       1.089  15.676  18.567  0.00  0.00    +0.000 A 
ATOM     21  C   UNL     1       1.850  16.788  18.174  0.00  0.00    +0.000 A 
ATOM     22  C   UNL     1       1.253  18.038  17.990  0.00  0.00    +0.000 A 
ATOM     23  C   UNL     1      -0.113  18.199  18.207  0.00  0.00    +0.000 A 
ATOM     24  C   UNL     1      -0.881  17.112  18.616  0.00  0.00    +0.000 A 
ATOM     25  C   UNL     1      -0.285  15.862  18.796  0.00  0.00    +0.000 A 
ENDBRANCH  19  20
ENDBRANCH   2  19
BRANCH   8  26
ATOM     26  C   UNL     1       0.713   7.688  20.788  0.00  0.00    +0.000 C 
BRANCH  26  27
ATOM     27  C   UNL     1       1.809   6.629  21.006  0.00  0.00    +0.000 C 
BRANCH  27  28
ATOM     28  C   UNL     1       1.660   5.445  20.080  0.00  0.00    +0.000 A 
ATOM     29  C   UNL     1       1.123   4.239  20.553  0.00  0.00    +0.000 A 
ATOM     30  C   UNL     1       0.981   3.144  19.699  0.00  0.00    +0.000 A 
ATOM     31  C   UNL     1       1.378   3.242  18.367  0.00  0.00    +0.000 A 
ATOM     32  C   UNL     1       1.916   4.436  17.888  0.00  0.00    +0.000 A 
ATOM     33  C   UNL     1       2.059   5.532  18.740  0.00  0.00    +0.000 A 
ENDBRANCH  27  28
ENDBRANCH  26  27
ENDBRANCH   8  26
TORSDOF 8
ENDMDL
MODEL 5
REMARK VINA RESULT:      -6.9      6.924      9.266
REMARK  Name = 
REMARK  10 active torsions:
REMARK  status: ('A' for Active; 'I' for Inactive)
REMARK    1  A    between atoms: C_1  and  N_2
REMARK    2  A    between atoms: N_2  and  C_3
REMARK    3  A    between atoms: C_3  and  C_4
REMARK    4  A    between atoms: C_12  and  C_13
REMARK    5  A    between atoms: N_15  and  C_16
REMARK    6  A    between atoms: C_16  and  C_17
REMARK    7  A    between atoms: N_22  and  C_23
REMARK    8  A    between atoms: N_22  and  C_24
REMARK    9  A    between atoms: C_24  and  C_25
REMARK   10  A    between atoms: C_25  and  C_26
REMARK                            x       y       z     vdW  Elec       q    Type
REMARK                         _______ _______ _______ _____ _____    ______ ____
ROOT
ATOM      1  C   UNL     1      -0.405   9.699  23.404  0.00  0.00    +0.000 C 
ATOM      2  N   UNL     1      -0.668  10.676  22.358  0.00  0.00    +0.000 N 
ATOM      3  C   UNL     1      -0.350  10.324  21.047  0.00  0.00    +0.000 A 
ATOM      4  C   UNL     1      -0.956  10.980  20.007  0.00  0.00    +0.000 A 
ATOM      5  C   UNL     1      -0.618  10.557  18.752  0.00  0.00    +0.000 A 
ATOM      6  N   UNL     1       0.286   9.591  18.483  0.00  0.00    +0.000 NA
ATOM      7  C   UNL     1       0.891   9.042  19.535  0.00  0.00    +0.000 A 
ATOM      8  N   UNL     1       1.980   8.213  19.324  0.00  0.00    +0.000 N 
ATOM      9  C   UNL     1       2.194   7.139  20.281  0.00  0.00    +0.000 C 
ATOM     10  N   UNL     1       0.547   9.346  20.803  0.00  0.00    +0.000 NA
ENDROOT
BRANCH   5  11
ATOM     11  C   UNL     1      -1.286  11.196  17.581  0.00  0.00    +0.000 C 
ATOM     12  O   UNL     1      -1.255  12.411  17.419  0.00  0.00    +0.000 OA
ATOM     13  N   UNL     1      -1.958  10.330  16.748  0.00  0.00    +0.000 N 
ATOM     14  H   UNL     1      -2.001   9.355  17.023  0.00  0.00    +0.000 HD
BRANCH  13  15
ATOM     15  C   UNL     1      -2.763  10.830  15.665  0.00  0.00    +0.000 C 
BRANCH  15  16
ATOM     16  C   UNL     1      -3.191   9.699  14.791  0.00  0.00    +0.000 C 
ATOM     17  C   UNL     1      -4.067   9.950  13.587  0.00  0.00    +0.000 C 
ATOM     18  C   UNL     1      -2.631   9.552  13.398  0.00  0.00    +0.000 C 
ENDBRANCH  15  16
ENDBRANCH  13  15
ENDBRANCH   5  11
BRANCH   2  19
ATOM     19  C   UNL     1      -0.596  12.098  22.713  0.00  0.00    +0.000 C 
BRANCH  19  20
ATOM     20  C   UNL     1      -1.953  12.779  22.744  0.00  0.00    +0.000 A 
ATOM     21  C   UNL     1      -2.222  13.990  22.088  0.00  0.00    +0.000 A 
ATOM     22  C   UNL     1      -3.500  14.555  22.119  0.00  0.00    +0.000 A 
ATOM     23  C   UNL     1      -4.527  13.923  22.815  0.00  0.00    +0.000 A 
ATOM     24  C   UNL     1      -4.275  12.730  23.488  0.00  0.00    +0.000 A 
ATOM     25  C   UNL     1      -2.999  12.163  23.454  0.00  0.00    +0.000 A 
ENDBRANCH  19  20
ENDBRANCH   2  19
BRANCH   8  26
ATOM     26  C   UNL     1       2.454   8.013  17.954  0.00  0.00    +0.000 C 
BRANCH  26  27
ATOM     27  C   UNL     1       2.676   6.522  17.643  0.00  0.00    +0.000 C 
BRANCH  27  28
ATOM     28  C   UNL     1       4.122   6.203  17.346  0.00  0.00    +0.000 A 
ATOM     29  C   UNL     1       4.489   4.927  16.894  0.00  0.00    +0.000 A 
ATOM     30  C   UNL     1       5.824   4.631  16.616  0.00  0.00    +0.000 A 
ATOM     31  C   UNL     1       6.806   5.603  16.791  0.00  0.00    +0.000 A 
ATOM     32  C   UNL     1       6.453   6.875  17.242  0.00  0.00    +0.000 A 
ATOM     33  C   UNL     1       5.118   7.174  17.521  0.00  0.00    +0.000 A 
ENDBRANCH  27  28
ENDBRANCH  26  27
ENDBRANCH   8  26
TORSDOF 8
ENDMDL
MODEL 6
REMARK VINA RESULT:      -6.8      0.685      1.438
REMARK  Name = 
REMARK  10 active torsions:
REMARK  status: ('A' for Active; 'I' for Inactive)
REMARK    1  A    between atoms: C_1  and  N_2
REMARK    2  A    between atoms: N_2  and  C_3
REMARK    3  A    between atoms: C_3  and  C_4
REMARK    4  A    between atoms: C_12  and  C_13
REMARK    5  A    between atoms: N_15  and  C_16
REMARK    6  A    between atoms: C_16  and  C_17
REMARK    7  A    between atoms: N_22  and  C_23
REMARK    8  A    between atoms: N_22  and  C_24
REMARK    9  A    between atoms: C_24  and  C_25
REMARK   10  A    between atoms: C_25  and  C_26
REMARK                            x       y       z     vdW  Elec       q    Type
REMARK                         _______ _______ _______ _____ _____    ______ ____
ROOT
ATOM      1  C   UNL     1       4.938   3.005  19.415  0.00  0.00    +0.000 C 
ATOM      2  N   UNL     1       4.767   3.243  17.990  0.00  0.00    +0.000 N 
ATOM      3  C   UNL     1       5.667   4.104  17.364  0.00  0.00    +0.000 A 
ATOM      4  C   UNL     1       5.839   4.028  16.006  0.00  0.00    +0.000 A 
ATOM      5  C   UNL     1       6.763   4.881  15.470  0.00  0.00    +0.000 A 
ATOM      6  N   UNL     1       7.461   5.800  16.171  0.00  0.00    +0.000 NA
ATOM      7  C   UNL     1       7.197   5.871  17.475  0.00  0.00    +0.000 A 
ATOM      8  N   UNL     1       7.706   6.931  18.205  0.00  0.00    +0.000 N 
ATOM      9  C   UNL     1       8.015   6.688  19.605  0.00  0.00    +0.000 C 
ATOM     10  N   UNL     1       6.364   5.005  18.087  0.00  0.00    +0.000 NA
ENDROOT
BRANCH   5  11
ATOM     11  C   UNL     1       7.034   4.807  14.004  0.00  0.00    +0.000 C 
ATOM     12  O   UNL     1       7.746   5.637  13.449  0.00  0.00    +0.000 OA
ATOM     13  N   UNL     1       6.397   3.782  13.344  0.00  0.00    +0.000 N 
ATOM     14  H   UNL     1       5.755   3.207  13.880  0.00  0.00    +0.000 HD
BRANCH  13  15
ATOM     15  C   UNL     1       6.458   3.682  11.910  0.00  0.00    +0.000 C 
BRANCH  15  16
ATOM     16  C   UNL     1       5.300   2.885  11.409  0.00  0.00    +0.000 C 
ATOM     17  C   UNL     1       3.899   3.185  11.885  0.00  0.00    +0.000 C 
ATOM     18  C   UNL     1       4.293   3.504  10.471  0.00  0.00    +0.000 C 
ENDBRANCH  15  16
ENDBRANCH  13  15
ENDBRANCH   5  11
BRANCH   2  19
ATOM     19  C   UNL     1       3.409   3.167  17.439  0.00  0.00    +0.000 C 
BRANCH  19  20
ATOM     20  C   UNL     1       2.324   3.306  18.492  0.00  0.00    +0.000 A 
ATOM     21  C   UNL     1       2.065   4.503  19.178  0.00  0.00    +0.000 A 
ATOM     22  C   UNL     1       1.029   4.585  20.112  0.00  0.00    +0.000 A 
ATOM     23  C   UNL     1       0.242   3.469  20.383  0.00  0.00    +0.000 A 
ATOM     24  C   UNL     1       0.495   2.267  19.727  0.00  0.00    +0.000 A 
ATOM     25  C   UNL     1       1.528   2.186  18.790  0.00  0.00    +0.000 A 
ENDBRANCH  19  20
ENDBRANCH   2  19
BRANCH   8  26
ATOM     26  C   UNL     1       8.476   7.959  17.504  0.00  0.00    +0.000 C 
BRANCH  26  27
ATOM     27  C   UNL     1       7.871   9.360  17.708  0.00  0.00    +0.000 C 
BRANCH  27  28
ATOM     28  C   UNL     1       8.847  10.323  18.342  0.00  0.00    +0.000 A 
ATOM     29  C   UNL     1       9.282  11.456  17.640  0.00  0.00    +0.000 A 
ATOM     30  C   UNL     1      10.181  12.350  18.224  0.00  0.00    +0.000 A 
ATOM     31  C   UNL     1      10.657  12.119  19.513  0.00  0.00    +0.000 A 
ATOM     32  C   UNL     1      10.232  10.994  20.219  0.00  0.00    +0.000 A 
ATOM     33  C   UNL     1       9.334  10.098  19.637  0.00  0.00    +0.000 A 
ENDBRANCH  27  28
ENDBRANCH  26  27
ENDBRANCH   8  26
TORSDOF 8
ENDMDL
MODEL 7
REMARK VINA RESULT:      -6.8      1.227      1.703
REMARK  Name = 
REMARK  10 active torsions:
REMARK  status: ('A' for Active; 'I' for Inactive)
REMARK    1  A    between atoms: C_1  and  N_2
REMARK    2  A    between atoms: N_2  and  C_3
REMARK    3  A    between atoms: C_3  and  C_4
REMARK    4  A    between atoms: C_12  and  C_13
REMARK    5  A    between atoms: N_15  and  C_16
REMARK    6  A    between atoms: C_16  and  C_17
REMARK    7  A    between atoms: N_22  and  C_23
REMARK    8  A    between atoms: N_22  and  C_24
REMARK    9  A    between atoms: C_24  and  C_25
REMARK   10  A    between atoms: C_25  and  C_26
REMARK                            x       y       z     vdW  Elec       q    Type
REMARK                         _______ _______ _______ _____ _____    ______ ____
ROOT
ATOM      1  C   UNL     1       4.431   2.733  20.347  0.00  0.00    +0.000 C 
ATOM      2  N   UNL     1       4.044   3.219  19.031  0.00  0.00    +0.000 N 
ATOM      3  C   UNL     1       4.976   3.973  18.319  0.00  0.00    +0.000 A 
ATOM      4  C   UNL     1       4.860   4.076  16.956  0.00  0.00    +0.000 A 
ATOM      5  C   UNL     1       5.830   4.804  16.325  0.00  0.00    +0.000 A 
ATOM      6  N   UNL     1       6.838   5.448  16.951  0.00  0.00    +0.000 NA
ATOM      7  C   UNL     1       6.855   5.366  18.280  0.00  0.00    +0.000 A 
ATOM      8  N   UNL     1       7.721   6.179  18.991  0.00  0.00    +0.000 N 
ATOM      9  C   UNL     1       8.233   5.665  20.251  0.00  0.00    +0.000 C 
ATOM     10  N   UNL     1       5.984   4.596  18.964  0.00  0.00    +0.000 NA
ENDROOT
BRANCH   5  11
ATOM     11  C   UNL     1       5.788   4.907  14.838  0.00  0.00    +0.000 C 
ATOM     12  O   UNL     1       5.416   5.935  14.283  0.00  0.00    +0.000 OA
ATOM     13  N   UNL     1       6.152   3.763  14.163  0.00  0.00    +0.000 N 
ATOM     14  H   UNL     1       6.353   2.937  14.716  0.00  0.00    +0.000 HD
BRANCH  13  15
ATOM     15  C   UNL     1       6.018   3.681  12.733  0.00  0.00    +0.000 C 
BRANCH  15  16
ATOM     16  C   UNL     1       6.402   2.316  12.267  0.00  0.00    +0.000 C 
ATOM     17  C   UNL     1       5.729   1.699  11.065  0.00  0.00    +0.000 C 
ATOM     18  C   UNL     1       7.165   2.133  10.979  0.00  0.00    +0.000 C 
ENDBRANCH  15  16
ENDBRANCH  13  15
ENDBRANCH   5  11
BRANCH   2  19
ATOM     19  C   UNL     1       2.624   3.497  18.791  0.00  0.00    +0.000 C 
BRANCH  19  20
ATOM     20  C   UNL     1       2.214   4.907  19.178  0.00  0.00    +0.000 A 
ATOM     21  C   UNL     1       1.734   5.247  20.452  0.00  0.00    +0.000 A 
ATOM     22  C   UNL     1       1.405   6.569  20.766  0.00  0.00    +0.000 A 
ATOM     23  C   UNL     1       1.542   7.570  19.808  0.00  0.00    +0.000 A 
ATOM     24  C   UNL     1       1.999   7.250  18.533  0.00  0.00    +0.000 A 
ATOM     25  C   UNL     1       2.331   5.929  18.220  0.00  0.00    +0.000 A 
ENDBRANCH  19  20
ENDBRANCH   2  19
BRANCH   8  26
ATOM     26  C   UNL     1       8.551   7.132  18.254  0.00  0.00    +0.000 C 
BRANCH  26  27
ATOM     27  C   UNL     1       7.790   8.436  17.956  0.00  0.00    +0.000 C 
BRANCH  27  28
ATOM     28  C   UNL     1       8.565   9.665  18.372  0.00  0.00    +0.000 A 
ATOM     29  C   UNL     1       8.653  10.771  17.514  0.00  0.00    +0.000 A 
ATOM     30  C   UNL     1       9.365  11.909  17.896  0.00  0.00    +0.000 A 
ATOM     31  C   UNL     1      10.000  11.951  19.136  0.00  0.00    +0.000 A 
ATOM     32  C   UNL     1       9.920  10.856  19.996  0.00  0.00    +0.000 A 
ATOM     33  C   UNL     1       9.209   9.716  19.615  0.00  0.00    +0.000 A 
ENDBRANCH  27  28
ENDBRANCH  26  27
ENDBRANCH   8  26
TORSDOF 8
ENDMDL
MODEL 8
REMARK VINA RESULT:      -6.8      7.968     11.918
REMARK  Name = 
REMARK  10 active torsions:
REMARK  status: ('A' for Active; 'I' for Inactive)
REMARK    1  A    between atoms: C_1  and  N_2
REMARK    2  A    between atoms: N_2  and  C_3
REMARK    3  A    between atoms: C_3  and  C_4
REMARK    4  A    between atoms: C_12  and  C_13
REMARK    5  A    between atoms: N_15  and  C_16
REMARK    6  A    between atoms: C_16  and  C_17
REMARK    7  A    between atoms: N_22  and  C_23
REMARK    8  A    between atoms: N_22  and  C_24
REMARK    9  A    between atoms: C_24  and  C_25
REMARK   10  A    between atoms: C_25  and  C_26
REMARK                            x       y       z     vdW  Elec       q    Type
REMARK                         _______ _______ _______ _____ _____    ______ ____
ROOT
ATOM      1  C   UNL     1      -2.415  11.064  16.240  0.00  0.00    +0.000 C 
ATOM      2  N   UNL     1      -2.796  11.093  17.644  0.00  0.00    +0.000 N 
ATOM      3  C   UNL     1      -1.818  10.778  18.587  0.00  0.00    +0.000 A 
ATOM      4  C   UNL     1      -1.969  11.203  19.882  0.00  0.00    +0.000 A 
ATOM      5  C   UNL     1      -0.954  10.885  20.740  0.00  0.00    +0.000 A 
ATOM      6  N   UNL     1       0.133  10.157  20.409  0.00  0.00    +0.000 NA
ATOM      7  C   UNL     1       0.187   9.715  19.154  0.00  0.00    +0.000 A 
ATOM      8  N   UNL     1       1.153   8.783  18.812  0.00  0.00    +0.000 N 
ATOM      9  C   UNL     1       1.653   8.814  17.447  0.00  0.00    +0.000 C 
ATOM     10  N   UNL     1      -0.732  10.061  18.230  0.00  0.00    +0.000 NA
ENDROOT
BRANCH   5  11
ATOM     11  C   UNL     1      -1.036  11.367  22.150  0.00  0.00    +0.000 C 
ATOM     12  O   UNL     1      -0.269  10.946  23.009  0.00  0.00    +0.000 OA
ATOM     13  N   UNL     1      -2.047  12.267  22.401  0.00  0.00    +0.000 N 
ATOM     14  H   UNL     1      -2.684  12.479  21.642  0.00  0.00    +0.000 HD
BRANCH  13  15
ATOM     15  C   UNL     1      -2.326  12.701  23.744  0.00  0.00    +0.000 C 
BRANCH  15  16
ATOM     16  C   UNL     1      -2.127  14.175  23.851  0.00  0.00    +0.000 C 
ATOM     17  C   UNL     1      -3.157  15.131  23.298  0.00  0.00    +0.000 C 
ATOM     18  C   UNL     1      -2.980  14.998  24.784  0.00  0.00    +0.000 C 
ENDBRANCH  15  16
ENDBRANCH  13  15
ENDBRANCH   5  11
BRANCH   2  19
ATOM     19  C   UNL     1      -4.189  10.784  17.985  0.00  0.00    +0.000 C 
BRANCH  19  20
ATOM     20  C   UNL     1      -5.073  12.016  18.076  0.00  0.00    +0.000 A 
ATOM     21  C   UNL     1      -5.802  12.523  16.990  0.00  0.00    +0.000 A 
ATOM     22  C   UNL     1      -6.629  13.639  17.139  0.00  0.00    +0.000 A 
ATOM     23  C   UNL     1      -6.733  14.272  18.374  0.00  0.00    +0.000 A 
ATOM     24  C   UNL     1      -6.003  13.796  19.460  0.00  0.00    +0.000 A 
ATOM     25  C   UNL     1      -5.179  12.677  19.312  0.00  0.00    +0.000 A 
ENDBRANCH  19  20
ENDBRANCH   2  19
BRANCH   8  26
ATOM     26  C   UNL     1       2.047   8.286  19.857  0.00  0.00    +0.000 C 
BRANCH  26  27
ATOM     27  C   UNL     1       2.952   7.153  19.339  0.00  0.00    +0.000 C 
BRANCH  27  28
ATOM     28  C   UNL     1       2.263   5.808  19.361  0.00  0.00    +0.000 A 
ATOM     29  C   UNL     1       2.109   5.072  18.177  0.00  0.00    +0.000 A 
ATOM     30  C   UNL     1       1.476   3.828  18.195  0.00  0.00    +0.000 A 
ATOM     31  C   UNL     1       0.989   3.310  19.393  0.00  0.00    +0.000 A 
ATOM     32  C   UNL     1       1.136   4.035  20.575  0.00  0.00    +0.000 A 
ATOM     33  C   UNL     1       1.767   5.280  20.560  0.00  0.00    +0.000 A 
ENDBRANCH  27  28
ENDBRANCH  26  27
ENDBRANCH   8  26
TORSDOF 8
ENDMDL
MODEL 9
REMARK VINA RESULT:      -6.7      7.911     10.636
REMARK  Name = 
REMARK  10 active torsions:
REMARK  status: ('A' for Active; 'I' for Inactive)
REMARK    1  A    between atoms: C_1  and  N_2
REMARK    2  A    between atoms: N_2  and  C_3
REMARK    3  A    between atoms: C_3  and  C_4
REMARK    4  A    between atoms: C_12  and  C_13
REMARK    5  A    between atoms: N_15  and  C_16
REMARK    6  A    between atoms: C_16  and  C_17
REMARK    7  A    between atoms: N_22  and  C_23
REMARK    8  A    between atoms: N_22  and  C_24
REMARK    9  A    between atoms: C_24  and  C_25
REMARK   10  A    between atoms: C_25  and  C_26
REMARK                            x       y       z     vdW  Elec       q    Type
REMARK                         _______ _______ _______ _____ _____    ______ ____
ROOT
ATOM      1  C   UNL     1       1.894   8.775  17.504  0.00  0.00    +0.000 C 
ATOM      2  N   UNL     1       1.531   8.715  18.912  0.00  0.00    +0.000 N 
ATOM      3  C   UNL     1       1.225   9.915  19.553  0.00  0.00    +0.000 A 
ATOM      4  C   UNL     1       0.473   9.894  20.699  0.00  0.00    +0.000 A 
ATOM      5  C   UNL     1       0.187  11.111  21.252  0.00  0.00    +0.000 A 
ATOM      6  N   UNL     1       0.628  12.295  20.776  0.00  0.00    +0.000 NA
ATOM      7  C   UNL     1       1.411  12.242  19.700  0.00  0.00    +0.000 A 
ATOM      8  N   UNL     1       2.075  13.389  19.297  0.00  0.00    +0.000 N 
ATOM      9  C   UNL     1       2.335  13.543  17.875  0.00  0.00    +0.000 C 
ATOM     10  N   UNL     1       1.665  11.088  19.051  0.00  0.00    +0.000 NA
ENDROOT
BRANCH   5  11
ATOM     11  C   UNL     1      -0.674  11.156  22.469  0.00  0.00    +0.000 C 
ATOM     12  O   UNL     1      -0.417  10.469  23.452  0.00  0.00    +0.000 OA
ATOM     13  N   UNL     1      -1.773  11.979  22.377  0.00  0.00    +0.000 N 
ATOM     14  H   UNL     1      -1.946  12.431  21.486  0.00  0.00    +0.000 HD
BRANCH  13  15
ATOM     15  C   UNL     1      -2.761  12.004  23.424  0.00  0.00    +0.000 C 
BRANCH  15  16
ATOM     16  C   UNL     1      -3.960  12.766  22.968  0.00  0.00    +0.000 C 
ATOM     17  C   UNL     1      -4.419  13.994  23.717  0.00  0.00    +0.000 C 
ATOM     18  C   UNL     1      -3.810  14.134  22.350  0.00  0.00    +0.000 C 
ENDBRANCH  15  16
ENDBRANCH  13  15
ENDBRANCH   5  11
BRANCH   2  19
ATOM     19  C   UNL     1       2.111   7.642  19.727  0.00  0.00    +0.000 C 
BRANCH  19  20
ATOM     20  C   UNL     1       2.606   6.464  18.905  0.00  0.00    +0.000 A 
ATOM     21  C   UNL     1       3.865   6.432  18.287  0.00  0.00    +0.000 A 
ATOM     22  C   UNL     1       4.285   5.307  17.572  0.00  0.00    +0.000 A 
ATOM     23  C   UNL     1       3.449   4.200  17.457  0.00  0.00    +0.000 A 
ATOM     24  C   UNL     1       2.189   4.220  18.048  0.00  0.00    +0.000 A 
ATOM     25  C   UNL     1       1.770   5.343  18.765  0.00  0.00    +0.000 A 
ENDBRANCH  19  20
ENDBRANCH   2  19
BRANCH   8  26
ATOM     26  C   UNL     1       1.925  14.603  20.100  0.00  0.00    +0.000 C 
BRANCH  26  27
ATOM     27  C   UNL     1       2.530  15.830  19.392  0.00  0.00    +0.000 C 
BRANCH  27  28
ATOM     28  C   UNL     1       1.497  16.624  18.629  0.00  0.00    +0.000 A 
ATOM     29  C   UNL     1       1.891  17.508  17.614  0.00  0.00    +0.000 A 
ATOM     30  C   UNL     1       0.939  18.241  16.904  0.00  0.00    +0.000 A 
ATOM     31  C   UNL     1      -0.415  18.102  17.204  0.00  0.00    +0.000 A 
ATOM     32  C   UNL     1      -0.817  17.228  18.213  0.00  0.00    +0.000 A 
ATOM     33  C   UNL     1       0.134  16.493  18.925  0.00  0.00    +0.000 A 
ENDBRANCH  27  28
ENDBRANCH  26  27
ENDBRANCH   8  26
TORSDOF 8
ENDMDL
