MODEL 1
REMARK VINA RESULT:      -6.6      0.000      0.000
REMARK  Name = 
REMARK  7 active torsions:
REMARK  status: ('A' for Active; 'I' for Inactive)
REMARK    1  A    between atoms: C_1  and  C_2
REMARK    2  A    between atoms: C_2  and  S_3
REMARK    3  A    between atoms: S_3  and  C_4
REMARK    4  A    between atoms: N_14  and  C_15
REMARK    5  A    between atoms: C_15  and  C_16
REMARK    6  A    between atoms: C_16  and  C_17
REMARK    7  A    between atoms: C_17  and  O_18
REMARK                            x       y       z     vdW  Elec       q    Type
REMARK                         _______ _______ _______ _____ _____    ______ ____
ROOT
ATOM      1  C   UNL     1       5.737   4.321  16.522  0.00  0.00    +0.000 A 
ATOM      2  N   UNL     1       4.522   3.917  16.345  0.00  0.00    +0.000 NA
ATOM      3  C   UNL     1       3.662   3.860  17.440  0.00  0.00    +0.000 A 
ATOM      4  C   UNL     1       2.320   3.538  17.237  0.00  0.00    +0.000 A 
ATOM      5  C   UNL     1       1.407   3.577  18.296  0.00  0.00    +0.000 A 
ATOM      6  C   UNL     1       1.832   3.938  19.574  0.00  0.00    +0.000 A 
ATOM      7  C   UNL     1       3.172   4.237  19.796  0.00  0.00    +0.000 A 
ATOM      8  C   UNL     1       4.073   4.190  18.725  0.00  0.00    +0.000 A 
ATOM      9  C   UNL     1       5.479   4.525  18.917  0.00  0.00    +0.000 A 
ATOM     10  O   UNL     1       5.886   4.735  20.059  0.00  0.00    +0.000 OA
ATOM     11  N   UNL     1       6.276   4.626  17.773  0.00  0.00    +0.000 N 
ENDROOT
BRANCH   1  12
ATOM     12  S   UNL     1       6.726   4.540  15.089  0.00  0.00    +0.000 S 
BRANCH  12  14
ATOM     13  C   UNL     1       6.332   3.494  12.451  0.00  0.00    +0.000 C 
ATOM     14  C   UNL     1       5.642   4.036  13.698  0.00  0.00    +0.000 C 
ENDBRANCH  12  14
ENDBRANCH   1  12
BRANCH  11  15
ATOM     15  C   UNL     1       7.668   5.022  18.039  0.00  0.00    +0.000 C 
BRANCH  15  16
ATOM     16  C   UNL     1       7.850   6.486  18.473  0.00  0.00    +0.000 C 
BRANCH  16  17
ATOM     17  C   UNL     1       7.509   7.563  17.444  0.00  0.00    +0.000 C 
BRANCH  17  18
ATOM     18  O   UNL     1       8.052   8.824  17.802  0.00  0.00    +0.000 OA
ATOM     19  H   UNL     1       8.507   9.183  17.008  0.00  0.00    +0.000 HD
ENDBRANCH  17  18
ENDBRANCH  16  17
ENDBRANCH  15  16
ENDBRANCH  11  15
TORSDOF 6
ENDMDL
MODEL 2
REMARK VINA RESULT:      -6.5      2.130      3.732
REMARK  Name = 
REMARK  7 active torsions:
REMARK  status: ('A' for Active; 'I' for Inactive)
REMARK    1  A    between atoms: C_1  and  C_2
REMARK    2  A    between atoms: C_2  and  S_3
REMARK    3  A    between atoms: S_3  and  C_4
REMARK    4  A    between atoms: N_14  and  C_15
REMARK    5  A    between atoms: C_15  and  C_16
REMARK    6  A    between atoms: C_16  and  C_17
REMARK    7  A    between atoms: C_17  and  O_18
REMARK                            x       y       z     vdW  Elec       q    Type
REMARK                         _______ _______ _______ _____ _____    ______ ____
ROOT
ATOM      1  C   UNL     1       5.295   4.766  18.222  0.00  0.00    +0.000 A 
ATOM      2  N   UNL     1       4.657   5.174  19.269  0.00  0.00    +0.000 NA
ATOM      3  C   UNL     1       3.336   4.770  19.456  0.00  0.00    +0.000 A 
ATOM      4  C   UNL     1       2.681   5.109  20.640  0.00  0.00    +0.000 A 
ATOM      5  C   UNL     1       1.394   4.630  20.908  0.00  0.00    +0.000 A 
ATOM      6  C   UNL     1       0.748   3.806  19.986  0.00  0.00    +0.000 A 
ATOM      7  C   UNL     1       1.379   3.481  18.791  0.00  0.00    +0.000 A 
ATOM      8  C   UNL     1       2.667   3.972  18.538  0.00  0.00    +0.000 A 
ATOM      9  C   UNL     1       3.368   3.627  17.308  0.00  0.00    +0.000 A 
ATOM     10  O   UNL     1       2.766   2.996  16.440  0.00  0.00    +0.000 OA
ATOM     11  N   UNL     1       4.709   4.008  17.206  0.00  0.00    +0.000 N 
ENDROOT
BRANCH   1  12
ATOM     12  S   UNL     1       7.003   5.157  18.120  0.00  0.00    +0.000 S 
BRANCH  12  14
ATOM     13  C   UNL     1       7.983   7.849  18.046  0.00  0.00    +0.000 C 
ATOM     14  C   UNL     1       7.048   6.840  17.389  0.00  0.00    +0.000 C 
ENDBRANCH  12  14
ENDBRANCH   1  12
BRANCH  11  15
ATOM     15  C   UNL     1       5.368   3.578  15.962  0.00  0.00    +0.000 C 
BRANCH  15  16
ATOM     16  C   UNL     1       5.596   4.698  14.934  0.00  0.00    +0.000 C 
BRANCH  16  17
ATOM     17  C   UNL     1       6.762   4.521  13.961  0.00  0.00    +0.000 C 
BRANCH  17  18
ATOM     18  O   UNL     1       7.739   5.537  14.119  0.00  0.00    +0.000 OA
ATOM     19  H   UNL     1       8.494   5.312  13.531  0.00  0.00    +0.000 HD
ENDBRANCH  17  18
ENDBRANCH  16  17
ENDBRANCH  15  16
ENDBRANCH  11  15
TORSDOF 6
ENDMDL
MODEL 3
REMARK VINA RESULT:      -6.5      1.540      1.807
REMARK  Name = 
REMARK  7 active torsions:
REMARK  status: ('A' for Active; 'I' for Inactive)
REMARK    1  A    between atoms: C_1  and  C_2
REMARK    2  A    between atoms: C_2  and  S_3
REMARK    3  A    between atoms: S_3  and  C_4
REMARK    4  A    between atoms: N_14  and  C_15
REMARK    5  A    between atoms: C_15  and  C_16
REMARK    6  A    between atoms: C_16  and  C_17
REMARK    7  A    between atoms: C_17  and  O_18
REMARK                            x       y       z     vdW  Elec       q    Type
REMARK                         _______ _______ _______ _____ _____    ______ ____
ROOT
ATOM      1  C   UNL     1       5.212   4.346  16.452  0.00  0.00    +0.000 A 
ATOM      2  N   UNL     1       4.520   3.280  16.691  0.00  0.00    +0.000 NA
ATOM      3  C   UNL     1       3.445   3.355  17.573  0.00  0.00    +0.000 A 
ATOM      4  C   UNL     1       2.625   2.239  17.744  0.00  0.00    +0.000 A 
ATOM      5  C   UNL     1       1.475   2.312  18.537  0.00  0.00    +0.000 A 
ATOM      6  C   UNL     1       1.136   3.507  19.171  0.00  0.00    +0.000 A 
ATOM      7  C   UNL     1       1.958   4.619  19.030  0.00  0.00    +0.000 A 
ATOM      8  C   UNL     1       3.107   4.528  18.234  0.00  0.00    +0.000 A 
ATOM      9  C   UNL     1       3.975   5.684  18.042  0.00  0.00    +0.000 A 
ATOM     10  O   UNL     1       3.748   6.708  18.686  0.00  0.00    +0.000 OA
ATOM     11  N   UNL     1       5.000   5.565  17.099  0.00  0.00    +0.000 N 
ENDROOT
BRANCH   1  12
ATOM     12  S   UNL     1       6.444   4.242  15.207  0.00  0.00    +0.000 S 
BRANCH  12  14
ATOM     13  C   UNL     1       6.317   3.511  12.439  0.00  0.00    +0.000 C 
ATOM     14  C   UNL     1       5.508   3.948  13.656  0.00  0.00    +0.000 C 
ENDBRANCH  12  14
ENDBRANCH   1  12
BRANCH  11  15
ATOM     15  C   UNL     1       5.800   6.788  16.918  0.00  0.00    +0.000 C 
BRANCH  15  16
ATOM     16  C   UNL     1       7.221   6.720  17.499  0.00  0.00    +0.000 C 
BRANCH  16  17
ATOM     17  C   UNL     1       7.405   5.931  18.796  0.00  0.00    +0.000 C 
BRANCH  17  18
ATOM     18  O   UNL     1       7.986   4.658  18.560  0.00  0.00    +0.000 OA
ATOM     19  H   UNL     1       7.288   4.085  18.174  0.00  0.00    +0.000 HD
ENDBRANCH  17  18
ENDBRANCH  16  17
ENDBRANCH  15  16
ENDBRANCH  11  15
TORSDOF 6
ENDMDL
MODEL 4
REMARK VINA RESULT:      -6.5      3.005      4.340
REMARK  Name = 
REMARK  7 active torsions:
REMARK  status: ('A' for Active; 'I' for Inactive)
REMARK    1  A    between atoms: C_1  and  C_2
REMARK    2  A    between atoms: C_2  and  S_3
REMARK    3  A    between atoms: S_3  and  C_4
REMARK    4  A    between atoms: N_14  and  C_15
REMARK    5  A    between atoms: C_15  and  C_16
REMARK    6  A    between atoms: C_16  and  C_17
REMARK    7  A    between atoms: C_17  and  O_18
REMARK                            x       y       z     vdW  Elec       q    Type
REMARK                         _______ _______ _______ _____ _____    ______ ____
ROOT
ATOM      1  C   UNL     1       3.166   6.335  18.433  0.00  0.00    +0.000 A 
ATOM      2  N   UNL     1       2.120   5.847  19.015  0.00  0.00    +0.000 NA
ATOM      3  C   UNL     1       2.237   4.655  19.727  0.00  0.00    +0.000 A 
ATOM      4  C   UNL     1       1.142   4.186  20.453  0.00  0.00    +0.000 A 
ATOM      5  C   UNL     1       1.256   3.052  21.265  0.00  0.00    +0.000 A 
ATOM      6  C   UNL     1       2.471   2.373  21.353  0.00  0.00    +0.000 A 
ATOM      7  C   UNL     1       3.563   2.815  20.614  0.00  0.00    +0.000 A 
ATOM      8  C   UNL     1       3.430   3.950  19.805  0.00  0.00    +0.000 A 
ATOM      9  C   UNL     1       4.563   4.457  19.039  0.00  0.00    +0.000 A 
ATOM     10  O   UNL     1       5.605   3.802  19.021  0.00  0.00    +0.000 OA
ATOM     11  N   UNL     1       4.403   5.688  18.397  0.00  0.00    +0.000 N 
ENDROOT
BRANCH   1  12
ATOM     12  S   UNL     1       3.010   7.921  17.698  0.00  0.00    +0.000 S 
BRANCH  12  14
ATOM     13  C   UNL     1       0.765   9.668  18.048  0.00  0.00    +0.000 C 
ATOM     14  C   UNL     1       1.801   8.804  18.759  0.00  0.00    +0.000 C 
ENDBRANCH  12  14
ENDBRANCH   1  12
BRANCH  11  15
ATOM     15  C   UNL     1       5.604   6.163  17.691  0.00  0.00    +0.000 C 
BRANCH  15  16
ATOM     16  C   UNL     1       5.663   5.793  16.200  0.00  0.00    +0.000 C 
BRANCH  16  17
ATOM     17  C   UNL     1       6.601   4.653  15.803  0.00  0.00    +0.000 C 
BRANCH  17  18
ATOM     18  O   UNL     1       6.019   3.383  16.049  0.00  0.00    +0.000 OA
ATOM     19  H   UNL     1       5.684   3.042  15.190  0.00  0.00    +0.000 HD
ENDBRANCH  17  18
ENDBRANCH  16  17
ENDBRANCH  15  16
ENDBRANCH  11  15
TORSDOF 6
ENDMDL
MODEL 5
REMARK VINA RESULT:      -6.4      3.343      5.867
REMARK  Name = 
REMARK  7 active torsions:
REMARK  status: ('A' for Active; 'I' for Inactive)
REMARK    1  A    between atoms: C_1  and  C_2
REMARK    2  A    between atoms: C_2  and  S_3
REMARK    3  A    between atoms: S_3  and  C_4
REMARK    4  A    between atoms: N_14  and  C_15
REMARK    5  A    between atoms: C_15  and  C_16
REMARK    6  A    between atoms: C_16  and  C_17
REMARK    7  A    between atoms: C_17  and  O_18
REMARK                            x       y       z     vdW  Elec       q    Type
REMARK                         _______ _______ _______ _____ _____    ______ ____
ROOT
ATOM      1  C   UNL     1       3.103   6.641  18.742  0.00  0.00    +0.000 A 
ATOM      2  N   UNL     1       3.719   6.959  17.651  0.00  0.00    +0.000 NA
ATOM      3  C   UNL     1       4.495   5.997  17.008  0.00  0.00    +0.000 A 
ATOM      4  C   UNL     1       5.066   6.299  15.772  0.00  0.00    +0.000 A 
ATOM      5  C   UNL     1       5.760   5.323  15.048  0.00  0.00    +0.000 A 
ATOM      6  C   UNL     1       5.892   4.032  15.560  0.00  0.00    +0.000 A 
ATOM      7  C   UNL     1       5.349   3.726  16.803  0.00  0.00    +0.000 A 
ATOM      8  C   UNL     1       4.660   4.715  17.515  0.00  0.00    +0.000 A 
ATOM      9  C   UNL     1       4.055   4.419  18.808  0.00  0.00    +0.000 A 
ATOM     10  O   UNL     1       4.261   3.319  19.320  0.00  0.00    +0.000 OA
ATOM     11  N   UNL     1       3.238   5.403  19.373  0.00  0.00    +0.000 N 
ENDROOT
BRANCH   1  12
ATOM     12  S   UNL     1       2.003   7.829  19.419  0.00  0.00    +0.000 S 
BRANCH  12  14
ATOM     13  C   UNL     1       0.990  10.323  18.436  0.00  0.00    +0.000 C 
ATOM     14  C   UNL     1       1.791   9.073  18.087  0.00  0.00    +0.000 C 
ENDBRANCH  12  14
ENDBRANCH   1  12
BRANCH  11  15
ATOM     15  C   UNL     1       2.617   5.013  20.650  0.00  0.00    +0.000 C 
BRANCH  15  16
ATOM     16  C   UNL     1       1.373   4.120  20.515  0.00  0.00    +0.000 C 
BRANCH  16  17
ATOM     17  C   UNL     1       1.382   2.795  21.277  0.00  0.00    +0.000 C 
BRANCH  17  18
ATOM     18  O   UNL     1       2.614   2.584  21.950  0.00  0.00    +0.000 OA
ATOM     19  H   UNL     1       3.078   3.448  21.990  0.00  0.00    +0.000 HD
ENDBRANCH  17  18
ENDBRANCH  16  17
ENDBRANCH  15  16
ENDBRANCH  11  15
TORSDOF 6
ENDMDL
MODEL 6
REMARK VINA RESULT:      -6.4      2.118      3.678
REMARK  Name = 
REMARK  7 active torsions:
REMARK  status: ('A' for Active; 'I' for Inactive)
REMARK    1  A    between atoms: C_1  and  C_2
REMARK    2  A    between atoms: C_2  and  S_3
REMARK    3  A    between atoms: S_3  and  C_4
REMARK    4  A    between atoms: N_14  and  C_15
REMARK    5  A    between atoms: C_15  and  C_16
REMARK    6  A    between atoms: C_16  and  C_17
REMARK    7  A    between atoms: C_17  and  O_18
REMARK                            x       y       z     vdW  Elec       q    Type
REMARK                         _______ _______ _______ _____ _____    ______ ____
ROOT
ATOM      1  C   UNL     1       4.678   5.670  17.625  0.00  0.00    +0.000 A 
ATOM      2  N   UNL     1       3.773   6.075  18.454  0.00  0.00    +0.000 NA
ATOM      3  C   UNL     1       2.916   5.140  19.030  0.00  0.00    +0.000 A 
ATOM      4  C   UNL     1       2.016   5.556  20.013  0.00  0.00    +0.000 A 
ATOM      5  C   UNL     1       1.218   4.627  20.690  0.00  0.00    +0.000 A 
ATOM      6  C   UNL     1       1.312   3.270  20.384  0.00  0.00    +0.000 A 
ATOM      7  C   UNL     1       2.185   2.845  19.390  0.00  0.00    +0.000 A 
ATOM      8  C   UNL     1       2.976   3.788  18.721  0.00  0.00    +0.000 A 
ATOM      9  C   UNL     1       3.922   3.373  17.693  0.00  0.00    +0.000 A 
ATOM     10  O   UNL     1       3.932   2.196  17.338  0.00  0.00    +0.000 OA
ATOM     11  N   UNL     1       4.796   4.346  17.197  0.00  0.00    +0.000 N 
ENDROOT
BRANCH   1  12
ATOM     12  S   UNL     1       5.840   6.857  17.060  0.00  0.00    +0.000 S 
BRANCH  12  14
ATOM     13  C   UNL     1       8.236   7.726  18.370  0.00  0.00    +0.000 C 
ATOM     14  C   UNL     1       7.353   6.526  18.045  0.00  0.00    +0.000 C 
ENDBRANCH  12  14
ENDBRANCH   1  12
BRANCH  11  15
ATOM     15  C   UNL     1       5.760   3.843  16.205  0.00  0.00    +0.000 C 
BRANCH  15  16
ATOM     16  C   UNL     1       5.479   4.277  14.757  0.00  0.00    +0.000 C 
BRANCH  16  17
ATOM     17  C   UNL     1       6.686   4.438  13.833  0.00  0.00    +0.000 C 
BRANCH  17  18
ATOM     18  O   UNL     1       7.641   5.341  14.367  0.00  0.00    +0.000 OA
ATOM     19  H   UNL     1       7.189   6.204  14.496  0.00  0.00    +0.000 HD
ENDBRANCH  17  18
ENDBRANCH  16  17
ENDBRANCH  15  16
ENDBRANCH  11  15
TORSDOF 6
ENDMDL
MODEL 7
REMARK VINA RESULT:      -6.3      2.751      3.902
REMARK  Name = 
REMARK  7 active torsions:
REMARK  status: ('A' for Active; 'I' for Inactive)
REMARK    1  A    between atoms: C_1  and  C_2
REMARK    2  A    between atoms: C_2  and  S_3
REMARK    3  A    between atoms: S_3  and  C_4
REMARK    4  A    between atoms: N_14  and  C_15
REMARK    5  A    between atoms: C_15  and  C_16
REMARK    6  A    between atoms: C_16  and  C_17
REMARK    7  A    between atoms: C_17  and  O_18
REMARK                            x       y       z     vdW  Elec       q    Type
REMARK                         _______ _______ _______ _____ _____    ______ ____
ROOT
ATOM      1  C   UNL     1       3.428   6.078  18.300  0.00  0.00    +0.000 A 
ATOM      2  N   UNL     1       2.351   5.733  18.924  0.00  0.00    +0.000 NA
ATOM      3  C   UNL     1       2.363   4.583  19.709  0.00  0.00    +0.000 A 
ATOM      4  C   UNL     1       1.241   4.270  20.477  0.00  0.00    +0.000 A 
ATOM      5  C   UNL     1       1.258   3.184  21.359  0.00  0.00    +0.000 A 
ATOM      6  C   UNL     1       2.403   2.396  21.477  0.00  0.00    +0.000 A 
ATOM      7  C   UNL     1       3.519   2.681  20.699  0.00  0.00    +0.000 A 
ATOM      8  C   UNL     1       3.483   3.771  19.819  0.00  0.00    +0.000 A 
ATOM      9  C   UNL     1       4.647   4.114  19.010  0.00  0.00    +0.000 A 
ATOM     10  O   UNL     1       5.619   3.361  19.022  0.00  0.00    +0.000 OA
ATOM     11  N   UNL     1       4.596   5.312  18.292  0.00  0.00    +0.000 N 
ENDROOT
BRANCH   1  12
ATOM     12  S   UNL     1       3.415   7.622  17.466  0.00  0.00    +0.000 S 
BRANCH  12  14
ATOM     13  C   UNL     1       1.908  10.019  17.910  0.00  0.00    +0.000 C 
ATOM     14  C   UNL     1       1.984   8.521  18.183  0.00  0.00    +0.000 C 
ENDBRANCH  12  14
ENDBRANCH   1  12
BRANCH  11  15
ATOM     15  C   UNL     1       5.825   5.621  17.543  0.00  0.00    +0.000 C 
BRANCH  15  16
ATOM     16  C   UNL     1       6.807   6.552  18.272  0.00  0.00    +0.000 C 
BRANCH  16  17
ATOM     17  C   UNL     1       7.992   5.896  18.980  0.00  0.00    +0.000 C 
BRANCH  17  18
ATOM     18  O   UNL     1       7.647   5.451  20.283  0.00  0.00    +0.000 OA
ATOM     19  H   UNL     1       8.067   6.066  20.923  0.00  0.00    +0.000 HD
ENDBRANCH  17  18
ENDBRANCH  16  17
ENDBRANCH  15  16
ENDBRANCH  11  15
TORSDOF 6
ENDMDL
MODEL 8
REMARK VINA RESULT:      -6.3      2.824      6.151
REMARK  Name = 
REMARK  7 active torsions:
REMARK  status: ('A' for Active; 'I' for Inactive)
REMARK    1  A    between atoms: C_1  and  C_2
REMARK    2  A    between atoms: C_2  and  S_3
REMARK    3  A    between atoms: S_3  and  C_4
REMARK    4  A    between atoms: N_14  and  C_15
REMARK    5  A    between atoms: C_15  and  C_16
REMARK    6  A    between atoms: C_16  and  C_17
REMARK    7  A    between atoms: C_17  and  O_18
REMARK                            x       y       z     vdW  Elec       q    Type
REMARK                         _______ _______ _______ _____ _____    ______ ____
ROOT
ATOM      1  C   UNL     1       4.849   3.635  19.086  0.00  0.00    +0.000 A 
ATOM      2  N   UNL     1       5.938   4.173  19.527  0.00  0.00    +0.000 NA
ATOM      3  C   UNL     1       6.516   5.217  18.808  0.00  0.00    +0.000 A 
ATOM      4  C   UNL     1       7.625   5.878  19.338  0.00  0.00    +0.000 A 
ATOM      5  C   UNL     1       8.164   6.998  18.697  0.00  0.00    +0.000 A 
ATOM      6  C   UNL     1       7.597   7.466  17.512  0.00  0.00    +0.000 A 
ATOM      7  C   UNL     1       6.509   6.802  16.958  0.00  0.00    +0.000 A 
ATOM      8  C   UNL     1       5.983   5.680  17.613  0.00  0.00    +0.000 A 
ATOM      9  C   UNL     1       4.825   4.977  17.074  0.00  0.00    +0.000 A 
ATOM     10  O   UNL     1       4.389   5.312  15.974  0.00  0.00    +0.000 OA
ATOM     11  N   UNL     1       4.254   3.980  17.870  0.00  0.00    +0.000 N 
ENDROOT
BRANCH   1  12
ATOM     12  S   UNL     1       4.067   2.446  20.112  0.00  0.00    +0.000 S 
BRANCH  12  14
ATOM     13  C   UNL     1       1.764   2.641  21.806  0.00  0.00    +0.000 C 
ATOM     14  C   UNL     1       2.889   3.417  21.129  0.00  0.00    +0.000 C 
ENDBRANCH  12  14
ENDBRANCH   1  12
BRANCH  11  15
ATOM     15  C   UNL     1       3.056   3.353  17.288  0.00  0.00    +0.000 C 
BRANCH  15  16
ATOM     16  C   UNL     1       1.726   4.015  17.683  0.00  0.00    +0.000 C 
BRANCH  16  17
ATOM     17  C   UNL     1       0.706   3.144  18.415  0.00  0.00    +0.000 C 
BRANCH  17  18
ATOM     18  O   UNL     1       1.096   1.779  18.433  0.00  0.00    +0.000 OA
ATOM     19  H   UNL     1       0.585   1.338  19.147  0.00  0.00    +0.000 HD
ENDBRANCH  17  18
ENDBRANCH  16  17
ENDBRANCH  15  16
ENDBRANCH  11  15
TORSDOF 6
ENDMDL
MODEL 9
REMARK VINA RESULT:      -6.2      3.444      4.625
REMARK  Name = 
REMARK  7 active torsions:
REMARK  status: ('A' for Active; 'I' for Inactive)
REMARK    1  A    between atoms: C_1  and  C_2
REMARK    2  A    between atoms: C_2  and  S_3
REMARK    3  A    between atoms: S_3  and  C_4
REMARK    4  A    between atoms: N_14  and  C_15
REMARK    5  A    between atoms: C_15  and  C_16
REMARK    6  A    between atoms: C_16  and  C_17
REMARK    7  A    between atoms: C_17  and  O_18
REMARK                            x       y       z     vdW  Elec       q    Type
REMARK                         _______ _______ _______ _____ _____    ______ ____
ROOT
ATOM      1  C   UNL     1       3.420   4.735  19.413  0.00  0.00    +0.000 A 
ATOM      2  N   UNL     1       2.720   5.571  20.107  0.00  0.00    +0.000 NA
ATOM      3  C   UNL     1       2.460   6.834  19.582  0.00  0.00    +0.000 A 
ATOM      4  C   UNL     1       1.608   7.697  20.273  0.00  0.00    +0.000 A 
ATOM      5  C   UNL     1       1.239   8.929  19.723  0.00  0.00    +0.000 A 
ATOM      6  C   UNL     1       1.724   9.311  18.472  0.00  0.00    +0.000 A 
ATOM      7  C   UNL     1       2.594   8.472  17.784  0.00  0.00    +0.000 A 
ATOM      8  C   UNL     1       2.955   7.243  18.351  0.00  0.00    +0.000 A 
ATOM      9  C   UNL     1       3.842   6.328  17.644  0.00  0.00    +0.000 A 
ATOM     10  O   UNL     1       4.364   6.702  16.594  0.00  0.00    +0.000 OA
ATOM     11  N   UNL     1       4.015   5.053  18.191  0.00  0.00    +0.000 N 
ENDROOT
BRANCH   1  12
ATOM     12  S   UNL     1       3.574   3.102  20.039  0.00  0.00    +0.000 S 
BRANCH  12  14
ATOM     13  C   UNL     1       1.208   2.986  18.426  0.00  0.00    +0.000 C 
ATOM     14  C   UNL     1       2.089   2.226  19.412  0.00  0.00    +0.000 C 
ENDBRANCH  12  14
ENDBRANCH   1  12
BRANCH  11  15
ATOM     15  C   UNL     1       4.878   4.165  17.394  0.00  0.00    +0.000 C 
BRANCH  15  16
ATOM     16  C   UNL     1       6.386   4.404  17.571  0.00  0.00    +0.000 C 
BRANCH  16  17
ATOM     17  C   UNL     1       7.199   4.680  16.306  0.00  0.00    +0.000 C 
BRANCH  17  18
ATOM     18  O   UNL     1       7.399   6.070  16.101  0.00  0.00    +0.000 OA
ATOM     19  H   UNL     1       7.400   6.226  15.131  0.00  0.00    +0.000 HD
ENDBRANCH  17  18
ENDBRANCH  16  17
ENDBRANCH  15  16
ENDBRANCH  11  15
TORSDOF 6
ENDMDL
