MODEL 1
REMARK VINA RESULT:      -7.9      0.000      0.000
REMARK  Name = 
REMARK  8 active torsions:
REMARK  status: ('A' for Active; 'I' for Inactive)
REMARK    1  A    between atoms: C_1  and  C_2
REMARK    2  A    between atoms: C_2  and  C_3
REMARK    3  A    between atoms: C_6  and  C_7
REMARK    4  A    between atoms: C_7  and  C_9
REMARK    5  A    between atoms: C_9  and  S_10
REMARK    6  A    between atoms: S_10  and  C_11
REMARK    7  A    between atoms: C_14  and  C_15
REMARK    8  A    between atoms: N_18  and  C_19
REMARK                            x       y       z     vdW  Elec       q    Type
REMARK                         _______ _______ _______ _____ _____    ______ ____
ROOT
ATOM      1  S   UNL     1       6.477   5.317  19.163  0.00  0.00    +0.000 S 
ENDROOT
BRANCH   1   2
ATOM      2  C   UNL     1       5.164   4.167  19.098  0.00  0.00    +0.000 A 
ATOM      3  N   UNL     1       5.234   2.972  19.651  0.00  0.00    +0.000 NA
ATOM      4  N   UNL     1       4.066   2.297  19.389  0.00  0.00    +0.000 NA
ATOM      5  C   UNL     1       3.295   3.084  18.664  0.00  0.00    +0.000 A 
ATOM      6  N   UNL     1       3.933   4.301  18.483  0.00  0.00    +0.000 N 
BRANCH   5   7
ATOM      7  C   UNL     1       1.921   2.663  18.122  0.00  0.00    +0.000 C 
ATOM      8  C   UNL     1       0.771   2.478  19.091  0.00  0.00    +0.000 C 
ATOM      9  C   UNL     1       0.784   3.661  18.185  0.00  0.00    +0.000 C 
ENDBRANCH   5   7
BRANCH   6  10
ATOM     10  C   UNL     1       3.301   5.389  17.754  0.00  0.00    +0.000 C 
ATOM     11  C   UNL     1       2.697   6.637  18.354  0.00  0.00    +0.000 C 
ATOM     12  C   UNL     1       3.955   6.738  17.555  0.00  0.00    +0.000 C 
ENDBRANCH   6  10
ENDBRANCH   1   2
BRANCH   1  13
ATOM     13  C   UNL     1       7.454   4.789  17.703  0.00  0.00    +0.000 C 
BRANCH  13  14
ATOM     14  C   UNL     1       7.307   5.668  16.455  0.00  0.00    +0.000 C 
ATOM     15  O   UNL     1       7.567   6.870  16.428  0.00  0.00    +0.000 OA
BRANCH  14  19
ATOM     16  C   UNL     1       5.912   3.635  12.854  0.00  0.00    +0.000 A 
ATOM     17  C   UNL     1       5.144   3.638  14.027  0.00  0.00    +0.000 A 
ATOM     18  C   UNL     1       5.591   4.308  15.181  0.00  0.00    +0.000 A 
ATOM     19  C   UNL     1       6.815   5.003  15.187  0.00  0.00    +0.000 A 
ATOM     20  C   UNL     1       7.555   5.037  13.995  0.00  0.00    +0.000 A 
ATOM     21  C   UNL     1       7.109   4.358  12.844  0.00  0.00    +0.000 A 
BRANCH  16  23
ATOM     22  C   UNL     1       4.057   3.105  11.198  0.00  0.00    +0.000 C 
ATOM     23  C   UNL     1       5.491   2.848  11.636  0.00  0.00    +0.000 C 
ENDBRANCH  16  23
ENDBRANCH  14  19
ENDBRANCH  13  14
ENDBRANCH   1  13
TORSDOF 7
ENDMDL
MODEL 2
REMARK VINA RESULT:      -7.6      0.782      1.008
REMARK  Name = 
REMARK  8 active torsions:
REMARK  status: ('A' for Active; 'I' for Inactive)
REMARK    1  A    between atoms: C_1  and  C_2
REMARK    2  A    between atoms: C_2  and  C_3
REMARK    3  A    between atoms: C_6  and  C_7
REMARK    4  A    between atoms: C_7  and  C_9
REMARK    5  A    between atoms: C_9  and  S_10
REMARK    6  A    between atoms: S_10  and  C_11
REMARK    7  A    between atoms: C_14  and  C_15
REMARK    8  A    between atoms: N_18  and  C_19
REMARK                            x       y       z     vdW  Elec       q    Type
REMARK                         _______ _______ _______ _____ _____    ______ ____
ROOT
ATOM      1  S   UNL     1       6.728   5.406  19.217  0.00  0.00    +0.000 S 
ENDROOT
BRANCH   1   2
ATOM      2  C   UNL     1       5.267   4.462  19.378  0.00  0.00    +0.000 A 
ATOM      3  N   UNL     1       5.276   3.174  19.659  0.00  0.00    +0.000 NA
ATOM      4  N   UNL     1       3.980   2.718  19.675  0.00  0.00    +0.000 NA
ATOM      5  C   UNL     1       3.188   3.731  19.388  0.00  0.00    +0.000 A 
ATOM      6  N   UNL     1       3.956   4.875  19.228  0.00  0.00    +0.000 N 
BRANCH   5   7
ATOM      7  C   UNL     1       1.663   3.607  19.255  0.00  0.00    +0.000 C 
ATOM      8  C   UNL     1       0.907   2.720  20.223  0.00  0.00    +0.000 C 
ATOM      9  C   UNL     1       0.792   4.199  20.343  0.00  0.00    +0.000 C 
ENDBRANCH   5   7
BRANCH   6  10
ATOM     10  C   UNL     1       3.347   6.165  18.946  0.00  0.00    +0.000 C 
ATOM     11  C   UNL     1       3.740   7.118  17.842  0.00  0.00    +0.000 C 
ATOM     12  C   UNL     1       2.430   6.405  17.768  0.00  0.00    +0.000 C 
ENDBRANCH   6  10
ENDBRANCH   1   2
BRANCH   1  13
ATOM     13  C   UNL     1       7.400   4.713  17.657  0.00  0.00    +0.000 C 
BRANCH  13  14
ATOM     14  C   UNL     1       7.260   5.607  16.420  0.00  0.00    +0.000 C 
ATOM     15  O   UNL     1       7.560   6.800  16.399  0.00  0.00    +0.000 OA
BRANCH  14  19
ATOM     16  C   UNL     1       5.725   3.656  12.830  0.00  0.00    +0.000 A 
ATOM     17  C   UNL     1       4.961   3.715  14.005  0.00  0.00    +0.000 A 
ATOM     18  C   UNL     1       5.454   4.360  15.155  0.00  0.00    +0.000 A 
ATOM     19  C   UNL     1       6.722   4.971  15.156  0.00  0.00    +0.000 A 
ATOM     20  C   UNL     1       7.460   4.951  13.963  0.00  0.00    +0.000 A 
ATOM     21  C   UNL     1       6.967   4.298  12.816  0.00  0.00    +0.000 A 
BRANCH  16  23
ATOM     22  C   UNL     1       6.026   1.613  11.348  0.00  0.00    +0.000 C 
ATOM     23  C   UNL     1       5.250   2.894  11.617  0.00  0.00    +0.000 C 
ENDBRANCH  16  23
ENDBRANCH  14  19
ENDBRANCH  13  14
ENDBRANCH   1  13
TORSDOF 7
ENDMDL
MODEL 3
REMARK VINA RESULT:      -7.2      2.825      6.837
REMARK  Name = 
REMARK  8 active torsions:
REMARK  status: ('A' for Active; 'I' for Inactive)
REMARK    1  A    between atoms: C_1  and  C_2
REMARK    2  A    between atoms: C_2  and  C_3
REMARK    3  A    between atoms: C_6  and  C_7
REMARK    4  A    between atoms: C_7  and  C_9
REMARK    5  A    between atoms: C_9  and  S_10
REMARK    6  A    between atoms: S_10  and  C_11
REMARK    7  A    between atoms: C_14  and  C_15
REMARK    8  A    between atoms: N_18  and  C_19
REMARK                            x       y       z     vdW  Elec       q    Type
REMARK                         _______ _______ _______ _____ _____    ______ ____
ROOT
ATOM      1  S   UNL     1       3.348   3.105  17.884  0.00  0.00    +0.000 S 
ENDROOT
BRANCH   1   2
ATOM      2  C   UNL     1       4.816   4.009  18.161  0.00  0.00    +0.000 A 
ATOM      3  N   UNL     1       5.442   4.016  19.321  0.00  0.00    +0.000 NA
ATOM      4  N   UNL     1       6.531   4.849  19.228  0.00  0.00    +0.000 NA
ATOM      5  C   UNL     1       6.553   5.357  18.012  0.00  0.00    +0.000 A 
ATOM      6  N   UNL     1       5.503   4.824  17.280  0.00  0.00    +0.000 N 
BRANCH   5   7
ATOM      7  C   UNL     1       7.594   6.382  17.537  0.00  0.00    +0.000 C 
ATOM      8  C   UNL     1       7.227   7.852  17.520  0.00  0.00    +0.000 C 
ATOM      9  C   UNL     1       8.173   7.345  18.552  0.00  0.00    +0.000 C 
ENDBRANCH   5   7
BRANCH   6  10
ATOM     10  C   UNL     1       5.299   5.169  15.882  0.00  0.00    +0.000 C 
ATOM     11  C   UNL     1       6.355   5.193  14.802  0.00  0.00    +0.000 C 
ATOM     12  C   UNL     1       5.293   4.144  14.771  0.00  0.00    +0.000 C 
ENDBRANCH   6  10
ENDBRANCH   1   2
BRANCH   1  13
ATOM     13  C   UNL     1       2.094   4.415  18.162  0.00  0.00    +0.000 C 
BRANCH  13  14
ATOM     14  C   UNL     1       2.324   5.300  19.393  0.00  0.00    +0.000 C 
ATOM     15  O   UNL     1       2.653   4.867  20.497  0.00  0.00    +0.000 OA
BRANCH  14  19
ATOM     16  C   UNL     1       1.651   9.585  18.904  0.00  0.00    +0.000 A 
ATOM     17  C   UNL     1       1.350   8.937  20.112  0.00  0.00    +0.000 A 
ATOM     18  C   UNL     1       1.583   7.558  20.269  0.00  0.00    +0.000 A 
ATOM     19  C   UNL     1       2.135   6.793  19.225  0.00  0.00    +0.000 A 
ATOM     20  C   UNL     1       2.479   7.456  18.037  0.00  0.00    +0.000 A 
ATOM     21  C   UNL     1       2.237   8.835  17.880  0.00  0.00    +0.000 A 
BRANCH  16  23
ATOM     22  C   UNL     1       1.059  11.815  19.970  0.00  0.00    +0.000 C 
ATOM     23  C   UNL     1       1.325  11.042  18.687  0.00  0.00    +0.000 C 
ENDBRANCH  16  23
ENDBRANCH  14  19
ENDBRANCH  13  14
ENDBRANCH   1  13
TORSDOF 7
ENDMDL
MODEL 4
REMARK VINA RESULT:      -7.2      2.673      6.508
REMARK  Name = 
REMARK  8 active torsions:
REMARK  status: ('A' for Active; 'I' for Inactive)
REMARK    1  A    between atoms: C_1  and  C_2
REMARK    2  A    between atoms: C_2  and  C_3
REMARK    3  A    between atoms: C_6  and  C_7
REMARK    4  A    between atoms: C_7  and  C_9
REMARK    5  A    between atoms: C_9  and  S_10
REMARK    6  A    between atoms: S_10  and  C_11
REMARK    7  A    between atoms: C_14  and  C_15
REMARK    8  A    between atoms: N_18  and  C_19
REMARK                            x       y       z     vdW  Elec       q    Type
REMARK                         _______ _______ _______ _____ _____    ______ ____
ROOT
ATOM      1  S   UNL     1       4.005   2.868  17.921  0.00  0.00    +0.000 S 
ENDROOT
BRANCH   1   2
ATOM      2  C   UNL     1       5.309   3.999  18.188  0.00  0.00    +0.000 A 
ATOM      3  N   UNL     1       5.847   4.203  19.375  0.00  0.00    +0.000 NA
ATOM      4  N   UNL     1       6.811   5.175  19.260  0.00  0.00    +0.000 NA
ATOM      5  C   UNL     1       6.846   5.568  18.003  0.00  0.00    +0.000 A 
ATOM      6  N   UNL     1       5.934   4.823  17.270  0.00  0.00    +0.000 N 
BRANCH   5   7
ATOM      7  C   UNL     1       7.762   6.688  17.486  0.00  0.00    +0.000 C 
ATOM      8  C   UNL     1       7.242   8.110  17.453  0.00  0.00    +0.000 C 
ATOM      9  C   UNL     1       8.259   7.725  18.471  0.00  0.00    +0.000 C 
ENDBRANCH   5   7
BRANCH   6  10
ATOM     10  C   UNL     1       5.780   5.007  15.835  0.00  0.00    +0.000 C 
ATOM     11  C   UNL     1       6.870   4.893  14.796  0.00  0.00    +0.000 C 
ATOM     12  C   UNL     1       5.793   3.860  14.850  0.00  0.00    +0.000 C 
ENDBRANCH   6  10
ENDBRANCH   1   2
BRANCH   1  13
ATOM     13  C   UNL     1       3.284   2.792  19.607  0.00  0.00    +0.000 C 
BRANCH  13  14
ATOM     14  C   UNL     1       2.005   3.611  19.817  0.00  0.00    +0.000 C 
ATOM     15  O   UNL     1       0.979   3.163  20.325  0.00  0.00    +0.000 OA
BRANCH  14  19
ATOM     16  C   UNL     1       2.181   7.769  18.501  0.00  0.00    +0.000 A 
ATOM     17  C   UNL     1       2.171   6.716  17.575  0.00  0.00    +0.000 A 
ATOM     18  C   UNL     1       2.098   5.377  18.004  0.00  0.00    +0.000 A 
ATOM     19  C   UNL     1       2.023   5.059  19.372  0.00  0.00    +0.000 A 
ATOM     20  C   UNL     1       1.984   6.118  20.291  0.00  0.00    +0.000 A 
ATOM     21  C   UNL     1       2.066   7.457  19.859  0.00  0.00    +0.000 A 
BRANCH  16  23
ATOM     22  C   UNL     1       1.239  10.130  18.541  0.00  0.00    +0.000 C 
ATOM     23  C   UNL     1       2.348   9.204  18.064  0.00  0.00    +0.000 C 
ENDBRANCH  16  23
ENDBRANCH  14  19
ENDBRANCH  13  14
ENDBRANCH   1  13
TORSDOF 7
ENDMDL
MODEL 5
REMARK VINA RESULT:      -7.1      1.628      2.010
REMARK  Name = 
REMARK  8 active torsions:
REMARK  status: ('A' for Active; 'I' for Inactive)
REMARK    1  A    between atoms: C_1  and  C_2
REMARK    2  A    between atoms: C_2  and  C_3
REMARK    3  A    between atoms: C_6  and  C_7
REMARK    4  A    between atoms: C_7  and  C_9
REMARK    5  A    between atoms: C_9  and  S_10
REMARK    6  A    between atoms: S_10  and  C_11
REMARK    7  A    between atoms: C_14  and  C_15
REMARK    8  A    between atoms: N_18  and  C_19
REMARK                            x       y       z     vdW  Elec       q    Type
REMARK                         _______ _______ _______ _____ _____    ______ ____
ROOT
ATOM      1  S   UNL     1       5.226   6.919  16.961  0.00  0.00    +0.000 S 
ENDROOT
BRANCH   1   2
ATOM      2  C   UNL     1       4.452   5.968  18.205  0.00  0.00    +0.000 A 
ATOM      3  N   UNL     1       4.912   4.795  18.597  0.00  0.00    +0.000 NA
ATOM      4  N   UNL     1       4.063   4.287  19.551  0.00  0.00    +0.000 NA
ATOM      5  C   UNL     1       3.083   5.150  19.725  0.00  0.00    +0.000 A 
ATOM      6  N   UNL     1       3.304   6.256  18.918  0.00  0.00    +0.000 N 
BRANCH   5   7
ATOM      7  C   UNL     1       1.899   4.912  20.676  0.00  0.00    +0.000 C 
ATOM      8  C   UNL     1       0.823   3.921  20.281  0.00  0.00    +0.000 C 
ATOM      9  C   UNL     1       1.784   3.567  21.362  0.00  0.00    +0.000 C 
ENDBRANCH   5   7
BRANCH   6  10
ATOM     10  C   UNL     1       2.402   7.397  18.930  0.00  0.00    +0.000 C 
ATOM     11  C   UNL     1       2.565   8.675  18.141  0.00  0.00    +0.000 C 
ATOM     12  C   UNL     1       1.470   7.724  17.785  0.00  0.00    +0.000 C 
ENDBRANCH   6  10
ENDBRANCH   1   2
BRANCH   1  13
ATOM     13  C   UNL     1       6.984   6.491  17.262  0.00  0.00    +0.000 C 
BRANCH  13  14
ATOM     14  C   UNL     1       7.426   5.113  16.756  0.00  0.00    +0.000 C 
ATOM     15  O   UNL     1       8.154   4.351  17.389  0.00  0.00    +0.000 OA
BRANCH  14  19
ATOM     16  C   UNL     1       6.022   3.731  12.861  0.00  0.00    +0.000 A 
ATOM     17  C   UNL     1       5.350   3.378  14.040  0.00  0.00    +0.000 A 
ATOM     18  C   UNL     1       5.797   3.840  15.293  0.00  0.00    +0.000 A 
ATOM     19  C   UNL     1       6.925   4.676  15.396  0.00  0.00    +0.000 A 
ATOM     20  C   UNL     1       7.564   5.064  14.209  0.00  0.00    +0.000 A 
ATOM     21  C   UNL     1       7.118   4.594  12.958  0.00  0.00    +0.000 A 
BRANCH  16  23
ATOM     22  C   UNL     1       5.768   1.666  11.400  0.00  0.00    +0.000 C 
ATOM     23  C   UNL     1       5.610   3.174  11.520  0.00  0.00    +0.000 C 
ENDBRANCH  16  23
ENDBRANCH  14  19
ENDBRANCH  13  14
ENDBRANCH   1  13
TORSDOF 7
ENDMDL
MODEL 6
REMARK VINA RESULT:      -7.0      3.057      7.068
REMARK  Name = 
REMARK  8 active torsions:
REMARK  status: ('A' for Active; 'I' for Inactive)
REMARK    1  A    between atoms: C_1  and  C_2
REMARK    2  A    between atoms: C_2  and  C_3
REMARK    3  A    between atoms: C_6  and  C_7
REMARK    4  A    between atoms: C_7  and  C_9
REMARK    5  A    between atoms: C_9  and  S_10
REMARK    6  A    between atoms: S_10  and  C_11
REMARK    7  A    between atoms: C_14  and  C_15
REMARK    8  A    between atoms: N_18  and  C_19
REMARK                            x       y       z     vdW  Elec       q    Type
REMARK                         _______ _______ _______ _____ _____    ______ ____
ROOT
ATOM      1  S   UNL     1       5.001   3.681  18.674  0.00  0.00    +0.000 S 
ENDROOT
BRANCH   1   2
ATOM      2  C   UNL     1       6.233   4.917  18.750  0.00  0.00    +0.000 A 
ATOM      3  N   UNL     1       6.940   5.155  19.837  0.00  0.00    +0.000 NA
ATOM      4  N   UNL     1       7.789   6.207  19.588  0.00  0.00    +0.000 NA
ATOM      5  C   UNL     1       7.582   6.613  18.352  0.00  0.00    +0.000 A 
ATOM      6  N   UNL     1       6.627   5.800  17.761  0.00  0.00    +0.000 N 
BRANCH   5   7
ATOM      7  C   UNL     1       8.305   7.812  17.718  0.00  0.00    +0.000 C 
ATOM      8  C   UNL     1       7.598   9.150  17.655  0.00  0.00    +0.000 C 
ATOM      9  C   UNL     1       8.720   8.960  18.615  0.00  0.00    +0.000 C 
ENDBRANCH   5   7
BRANCH   6  10
ATOM     10  C   UNL     1       6.225   5.983  16.376  0.00  0.00    +0.000 C 
ATOM     11  C   UNL     1       5.151   5.211  15.646  0.00  0.00    +0.000 C 
ATOM     12  C   UNL     1       4.929   6.650  15.975  0.00  0.00    +0.000 C 
ENDBRANCH   6  10
ENDBRANCH   1   2
BRANCH   1  13
ATOM     13  C   UNL     1       3.622   4.536  19.530  0.00  0.00    +0.000 C 
BRANCH  13  14
ATOM     14  C   UNL     1       2.629   5.267  18.619  0.00  0.00    +0.000 C 
ATOM     15  O   UNL     1       2.156   4.784  17.592  0.00  0.00    +0.000 OA
BRANCH  14  19
ATOM     16  C   UNL     1       1.301   9.255  19.797  0.00  0.00    +0.000 A 
ATOM     17  C   UNL     1       1.398   8.217  20.735  0.00  0.00    +0.000 A 
ATOM     18  C   UNL     1       1.842   6.937  20.353  0.00  0.00    +0.000 A 
ATOM     19  C   UNL     1       2.211   6.666  19.023  0.00  0.00    +0.000 A 
ATOM     20  C   UNL     1       2.158   7.721  18.099  0.00  0.00    +0.000 A 
ATOM     21  C   UNL     1       1.706   8.999  18.483  0.00  0.00    +0.000 A 
BRANCH  16  23
ATOM     22  C   UNL     1       0.616  11.568  18.996  0.00  0.00    +0.000 C 
ATOM     23  C   UNL     1       0.744  10.607  20.169  0.00  0.00    +0.000 C 
ENDBRANCH  16  23
ENDBRANCH  14  19
ENDBRANCH  13  14
ENDBRANCH   1  13
TORSDOF 7
ENDMDL
MODEL 7
REMARK VINA RESULT:      -6.9      1.104      1.553
REMARK  Name = 
REMARK  8 active torsions:
REMARK  status: ('A' for Active; 'I' for Inactive)
REMARK    1  A    between atoms: C_1  and  C_2
REMARK    2  A    between atoms: C_2  and  C_3
REMARK    3  A    between atoms: C_6  and  C_7
REMARK    4  A    between atoms: C_7  and  C_9
REMARK    5  A    between atoms: C_9  and  S_10
REMARK    6  A    between atoms: S_10  and  C_11
REMARK    7  A    between atoms: C_14  and  C_15
REMARK    8  A    between atoms: N_18  and  C_19
REMARK                            x       y       z     vdW  Elec       q    Type
REMARK                         _______ _______ _______ _____ _____    ______ ____
ROOT
ATOM      1  S   UNL     1       6.377   6.435  18.345  0.00  0.00    +0.000 S 
ENDROOT
BRANCH   1   2
ATOM      2  C   UNL     1       5.227   5.172  18.710  0.00  0.00    +0.000 A 
ATOM      3  N   UNL     1       5.586   3.995  19.184  0.00  0.00    +0.000 NA
ATOM      4  N   UNL     1       4.463   3.216  19.324  0.00  0.00    +0.000 NA
ATOM      5  C   UNL     1       3.426   3.920  18.919  0.00  0.00    +0.000 A 
ATOM      6  N   UNL     1       3.854   5.188  18.554  0.00  0.00    +0.000 N 
BRANCH   5   7
ATOM      7  C   UNL     1       1.991   3.372  18.870  0.00  0.00    +0.000 C 
ATOM      8  C   UNL     1       1.531   2.413  19.950  0.00  0.00    +0.000 C 
ATOM      9  C   UNL     1       1.014   3.810  19.941  0.00  0.00    +0.000 C 
ENDBRANCH   5   7
BRANCH   6  10
ATOM     10  C   UNL     1       2.917   6.206  18.104  0.00  0.00    +0.000 C 
ATOM     11  C   UNL     1       2.370   7.346  18.929  0.00  0.00    +0.000 C 
ATOM     12  C   UNL     1       3.325   7.633  17.819  0.00  0.00    +0.000 C 
ENDBRANCH   6  10
ENDBRANCH   1   2
BRANCH   1  13
ATOM     13  C   UNL     1       6.449   6.300  16.517  0.00  0.00    +0.000 C 
BRANCH  13  14
ATOM     14  C   UNL     1       7.106   5.026  15.974  0.00  0.00    +0.000 C 
ATOM     15  O   UNL     1       8.039   4.446  16.527  0.00  0.00    +0.000 OA
BRANCH  14  19
ATOM     16  C   UNL     1       5.522   3.509  12.200  0.00  0.00    +0.000 A 
ATOM     17  C   UNL     1       6.800   4.082  12.271  0.00  0.00    +0.000 A 
ATOM     18  C   UNL     1       7.313   4.555  13.493  0.00  0.00    +0.000 A 
ATOM     19  C   UNL     1       6.562   4.458  14.680  0.00  0.00    +0.000 A 
ATOM     20  C   UNL     1       5.304   3.840  14.611  0.00  0.00    +0.000 A 
ATOM     21  C   UNL     1       4.791   3.374  13.384  0.00  0.00    +0.000 A 
BRANCH  16  23
ATOM     22  C   UNL     1       3.442   3.403  10.742  0.00  0.00    +0.000 C 
ATOM     23  C   UNL     1       4.922   3.078  10.885  0.00  0.00    +0.000 C 
ENDBRANCH  16  23
ENDBRANCH  14  19
ENDBRANCH  13  14
ENDBRANCH   1  13
TORSDOF 7
ENDMDL
MODEL 8
REMARK VINA RESULT:      -6.9      4.142      8.465
REMARK  Name = 
REMARK  8 active torsions:
REMARK  status: ('A' for Active; 'I' for Inactive)
REMARK    1  A    between atoms: C_1  and  C_2
REMARK    2  A    between atoms: C_2  and  C_3
REMARK    3  A    between atoms: C_6  and  C_7
REMARK    4  A    between atoms: C_7  and  C_9
REMARK    5  A    between atoms: C_9  and  S_10
REMARK    6  A    between atoms: S_10  and  C_11
REMARK    7  A    between atoms: C_14  and  C_15
REMARK    8  A    between atoms: N_18  and  C_19
REMARK                            x       y       z     vdW  Elec       q    Type
REMARK                         _______ _______ _______ _____ _____    ______ ____
ROOT
ATOM      1  S   UNL     1       2.208   5.610  18.911  0.00  0.00    +0.000 S 
ENDROOT
BRANCH   1   2
ATOM      2  C   UNL     1       3.551   5.512  17.799  0.00  0.00    +0.000 A 
ATOM      3  N   UNL     1       4.138   6.579  17.291  0.00  0.00    +0.000 NA
ATOM      4  N   UNL     1       5.123   6.169  16.426  0.00  0.00    +0.000 NA
ATOM      5  C   UNL     1       5.121   4.852  16.401  0.00  0.00    +0.000 A 
ATOM      6  N   UNL     1       4.164   4.383  17.287  0.00  0.00    +0.000 N 
BRANCH   5   7
ATOM      7  C   UNL     1       6.048   4.016  15.504  0.00  0.00    +0.000 C 
ATOM      8  C   UNL     1       5.777   3.960  14.014  0.00  0.00    +0.000 C 
ATOM      9  C   UNL     1       6.941   4.739  14.518  0.00  0.00    +0.000 C 
ENDBRANCH   5   7
BRANCH   6  10
ATOM     10  C   UNL     1       3.962   2.959  17.506  0.00  0.00    +0.000 C 
ATOM     11  C   UNL     1       3.442   2.312  18.768  0.00  0.00    +0.000 C 
ATOM     12  C   UNL     1       2.595   2.315  17.539  0.00  0.00    +0.000 C 
ENDBRANCH   6  10
ENDBRANCH   1   2
BRANCH   1  13
ATOM     13  C   UNL     1       2.554   7.228  19.705  0.00  0.00    +0.000 C 
BRANCH  13  14
ATOM     14  C   UNL     1       1.691   8.400  19.221  0.00  0.00    +0.000 C 
ATOM     15  O   UNL     1       1.588   8.735  18.043  0.00  0.00    +0.000 OA
BRANCH  14  19
ATOM     16  C   UNL     1      -0.630  10.569  22.215  0.00  0.00    +0.000 A 
ATOM     17  C   UNL     1      -0.172   9.266  22.458  0.00  0.00    +0.000 A 
ATOM     18  C   UNL     1       0.590   8.576  21.495  0.00  0.00    +0.000 A 
ATOM     19  C   UNL     1       0.922   9.179  20.268  0.00  0.00    +0.000 A 
ATOM     20  C   UNL     1       0.503  10.500  20.050  0.00  0.00    +0.000 A 
ATOM     21  C   UNL     1      -0.266  11.185  21.012  0.00  0.00    +0.000 A 
BRANCH  16  23
ATOM     22  C   UNL     1      -2.440  12.320  22.558  0.00  0.00    +0.000 C 
ATOM     23  C   UNL     1      -1.520  11.290  23.196  0.00  0.00    +0.000 C 
ENDBRANCH  16  23
ENDBRANCH  14  19
ENDBRANCH  13  14
ENDBRANCH   1  13
TORSDOF 7
ENDMDL
MODEL 9
REMARK VINA RESULT:      -6.9      3.765      8.137
REMARK  Name = 
REMARK  8 active torsions:
REMARK  status: ('A' for Active; 'I' for Inactive)
REMARK    1  A    between atoms: C_1  and  C_2
REMARK    2  A    between atoms: C_2  and  C_3
REMARK    3  A    between atoms: C_6  and  C_7
REMARK    4  A    between atoms: C_7  and  C_9
REMARK    5  A    between atoms: C_9  and  S_10
REMARK    6  A    between atoms: S_10  and  C_11
REMARK    7  A    between atoms: C_14  and  C_15
REMARK    8  A    between atoms: N_18  and  C_19
REMARK                            x       y       z     vdW  Elec       q    Type
REMARK                         _______ _______ _______ _____ _____    ______ ____
ROOT
ATOM      1  S   UNL     1       3.361   6.125  19.114  0.00  0.00    +0.000 S 
ENDROOT
BRANCH   1   2
ATOM      2  C   UNL     1       4.478   5.824  17.805  0.00  0.00    +0.000 A 
ATOM      3  N   UNL     1       5.236   6.767  17.280  0.00  0.00    +0.000 NA
ATOM      4  N   UNL     1       5.965   6.223  16.251  0.00  0.00    +0.000 NA
ATOM      5  C   UNL     1       5.637   4.952  16.146  0.00  0.00    +0.000 A 
ATOM      6  N   UNL     1       4.721   4.637  17.138  0.00  0.00    +0.000 N 
BRANCH   5   7
ATOM      7  C   UNL     1       6.202   4.013  15.069  0.00  0.00    +0.000 C 
ATOM      8  C   UNL     1       5.555   3.989  13.699  0.00  0.00    +0.000 C 
ATOM      9  C   UNL     1       6.891   4.626  13.867  0.00  0.00    +0.000 C 
ENDBRANCH   5   7
BRANCH   6  10
ATOM     10  C   UNL     1       4.207   3.286  17.298  0.00  0.00    +0.000 C 
ATOM     11  C   UNL     1       3.645   2.685  18.564  0.00  0.00    +0.000 C 
ATOM     12  C   UNL     1       2.733   2.973  17.418  0.00  0.00    +0.000 C 
ENDBRANCH   6  10
ENDBRANCH   1   2
BRANCH   1  13
ATOM     13  C   UNL     1       2.026   7.003  18.213  0.00  0.00    +0.000 C 
BRANCH  13  14
ATOM     14  C   UNL     1       1.971   8.521  18.425  0.00  0.00    +0.000 C 
ATOM     15  O   UNL     1       2.515   9.337  17.682  0.00  0.00    +0.000 OA
BRANCH  14  19
ATOM     16  C   UNL     1      -0.183  10.094  21.879  0.00  0.00    +0.000 A 
ATOM     17  C   UNL     1      -0.272  10.716  20.626  0.00  0.00    +0.000 A 
ATOM     18  C   UNL     1       0.412  10.195  19.511  0.00  0.00    +0.000 A 
ATOM     19  C   UNL     1       1.195   9.031  19.621  0.00  0.00    +0.000 A 
ATOM     20  C   UNL     1       1.241   8.386  20.866  0.00  0.00    +0.000 A 
ATOM     21  C   UNL     1       0.561   8.914  21.981  0.00  0.00    +0.000 A 
BRANCH  16  23
ATOM     22  C   UNL     1      -1.834  11.794  22.798  0.00  0.00    +0.000 C 
ATOM     23  C   UNL     1      -0.837  10.686  23.103  0.00  0.00    +0.000 C 
ENDBRANCH  16  23
ENDBRANCH  14  19
ENDBRANCH  13  14
ENDBRANCH   1  13
TORSDOF 7
ENDMDL
