MODEL 1
REMARK VINA RESULT:      -7.4      0.000      0.000
REMARK  Name = 
REMARK  5 active torsions:
REMARK  status: ('A' for Active; 'I' for Inactive)
REMARK    1  A    between atoms: C_1  and  N_2
REMARK    2  A    between atoms: N_2  and  C_3
REMARK    3  A    between atoms: C_3  and  C_4
REMARK    4  A    between atoms: N_11  and  C_12
REMARK    5  A    between atoms: C_14  and  C_15
REMARK                            x       y       z     vdW  Elec       q    Type
REMARK                         _______ _______ _______ _____ _____    ______ ____
ROOT
ATOM      1  C   UNL     1       2.603   7.163  19.081  0.00  0.00    +0.000 C 
ATOM      2  N   UNL     1       3.487   6.057  18.753  0.00  0.00    +0.000 N 
ATOM      3  C   UNL     1       4.102   6.112  17.513  0.00  0.00    +0.000 C 
ATOM      4  O   UNL     1       3.988   7.118  16.816  0.00  0.00    +0.000 OA
ATOM      5  N   UNL     1       4.829   5.010  17.133  0.00  0.00    +0.000 N 
ATOM      6  H   UNL     1       4.510   4.107  17.487  0.00  0.00    +0.000 HD
ENDROOT
BRANCH   5   7
ATOM      7  C   UNL     1       5.628   4.941  16.003  0.00  0.00    +0.000 A 
ATOM      8  C   UNL     1       5.270   4.376  14.834  0.00  0.00    +0.000 A 
ATOM      9  C   UNL     1       6.171   4.277  13.696  0.00  0.00    +0.000 A 
ATOM     10  C   UNL     1       7.399   4.811  13.807  0.00  0.00    +0.000 A 
ATOM     11  N   UNL     1       7.794   5.434  14.965  0.00  0.00    +0.000 N 
ATOM     12  C   UNL     1       7.006   5.551  16.090  0.00  0.00    +0.000 A 
ATOM     13  O   UNL     1       7.404   6.112  17.106  0.00  0.00    +0.000 OA
ATOM     14  H   UNL     1       8.722   5.830  15.038  0.00  0.00    +0.000 HD
BRANCH   9  15
ATOM     15  C   UNL     1       5.713   3.562  12.456  0.00  0.00    +0.000 C 
ATOM     16  F   UNL     1       4.381   3.682  12.220  0.00  0.00    +0.000 F 
ATOM     17  F   UNL     1       6.347   4.033  11.352  0.00  0.00    +0.000 F 
ATOM     18  F   UNL     1       5.980   2.233  12.520  0.00  0.00    +0.000 F 
ENDBRANCH   9  15
ENDBRANCH   5   7
BRANCH   2  19
ATOM     19  C   UNL     1       3.628   4.983  19.728  0.00  0.00    +0.000 C 
BRANCH  19  20
ATOM     20  C   UNL     1       2.732   3.845  19.351  0.00  0.00    +0.000 A 
ATOM     21  C   UNL     1       1.397   3.693  19.677  0.00  0.00    +0.000 A 
ATOM     22  S   UNL     1       0.793   2.230  19.020  0.00  0.00    +0.000 S 
ATOM     23  C   UNL     1       2.341   1.913  18.354  0.00  0.00    +0.000 A 
ATOM     24  N   UNL     1       3.265   2.818  18.582  0.00  0.00    +0.000 NA
ENDBRANCH  19  20
ENDBRANCH   2  19
TORSDOF 4
ENDMDL
MODEL 2
REMARK VINA RESULT:      -7.1      0.907      1.377
REMARK  Name = 
REMARK  5 active torsions:
REMARK  status: ('A' for Active; 'I' for Inactive)
REMARK    1  A    between atoms: C_1  and  N_2
REMARK    2  A    between atoms: N_2  and  C_3
REMARK    3  A    between atoms: C_3  and  C_4
REMARK    4  A    between atoms: N_11  and  C_12
REMARK    5  A    between atoms: C_14  and  C_15
REMARK                            x       y       z     vdW  Elec       q    Type
REMARK                         _______ _______ _______ _____ _____    ______ ____
ROOT
ATOM      1  C   UNL     1       3.036   6.557  19.119  0.00  0.00    +0.000 C 
ATOM      2  N   UNL     1       3.939   5.520  18.650  0.00  0.00    +0.000 N 
ATOM      3  C   UNL     1       4.444   5.682  17.370  0.00  0.00    +0.000 C 
ATOM      4  O   UNL     1       4.226   6.721  16.751  0.00  0.00    +0.000 OA
ATOM      5  N   UNL     1       5.186   4.644  16.861  0.00  0.00    +0.000 N 
ATOM      6  H   UNL     1       4.940   3.706  17.180  0.00  0.00    +0.000 HD
ENDROOT
BRANCH   5   7
ATOM      7  C   UNL     1       5.889   4.684  15.668  0.00  0.00    +0.000 A 
ATOM      8  C   UNL     1       5.544   4.032  14.541  0.00  0.00    +0.000 A 
ATOM      9  C   UNL     1       6.351   4.061  13.332  0.00  0.00    +0.000 A 
ATOM     10  C   UNL     1       7.469   4.807  13.330  0.00  0.00    +0.000 A 
ATOM     11  N   UNL     1       7.840   5.523  14.441  0.00  0.00    +0.000 N 
ATOM     12  C   UNL     1       7.139   5.531  15.628  0.00  0.00    +0.000 A 
ATOM     13  O   UNL     1       7.512   6.183  16.599  0.00  0.00    +0.000 OA
ATOM     14  H   UNL     1       8.685   6.079  14.430  0.00  0.00    +0.000 HD
BRANCH   9  15
ATOM     15  C   UNL     1       5.928   3.242  12.146  0.00  0.00    +0.000 C 
ATOM     16  F   UNL     1       6.903   3.092  11.213  0.00  0.00    +0.000 F 
ATOM     17  F   UNL     1       5.551   1.991  12.518  0.00  0.00    +0.000 F 
ATOM     18  F   UNL     1       4.862   3.796  11.512  0.00  0.00    +0.000 F 
ENDBRANCH   9  15
ENDBRANCH   5   7
BRANCH   2  19
ATOM     19  C   UNL     1       4.210   4.397  19.537  0.00  0.00    +0.000 C 
BRANCH  19  20
ATOM     20  C   UNL     1       2.960   3.598  19.730  0.00  0.00    +0.000 A 
ATOM     21  C   UNL     1       2.262   2.897  18.764  0.00  0.00    +0.000 A 
ATOM     22  S   UNL     1       0.893   2.137  19.460  0.00  0.00    +0.000 S 
ATOM     23  C   UNL     1       1.330   2.791  20.984  0.00  0.00    +0.000 A 
ATOM     24  N   UNL     1       2.419   3.525  21.007  0.00  0.00    +0.000 NA
ENDBRANCH  19  20
ENDBRANCH   2  19
TORSDOF 4
ENDMDL
MODEL 3
REMARK VINA RESULT:      -7.1      0.899      1.090
REMARK  Name = 
REMARK  5 active torsions:
REMARK  status: ('A' for Active; 'I' for Inactive)
REMARK    1  A    between atoms: C_1  and  N_2
REMARK    2  A    between atoms: N_2  and  C_3
REMARK    3  A    between atoms: C_3  and  C_4
REMARK    4  A    between atoms: N_11  and  C_12
REMARK    5  A    between atoms: C_14  and  C_15
REMARK                            x       y       z     vdW  Elec       q    Type
REMARK                         _______ _______ _______ _____ _____    ______ ____
ROOT
ATOM      1  C   UNL     1       3.001   6.689  18.971  0.00  0.00    +0.000 C 
ATOM      2  N   UNL     1       3.977   5.688  18.574  0.00  0.00    +0.000 N 
ATOM      3  C   UNL     1       4.453   5.779  17.275  0.00  0.00    +0.000 C 
ATOM      4  O   UNL     1       4.147   6.742  16.576  0.00  0.00    +0.000 OA
ATOM      5  N   UNL     1       5.267   4.761  16.842  0.00  0.00    +0.000 N 
ATOM      6  H   UNL     1       5.099   3.838  17.243  0.00  0.00    +0.000 HD
ENDROOT
BRANCH   5   7
ATOM      7  C   UNL     1       5.952   4.755  15.637  0.00  0.00    +0.000 A 
ATOM      8  C   UNL     1       5.577   4.075  14.537  0.00  0.00    +0.000 A 
ATOM      9  C   UNL     1       6.365   4.055  13.315  0.00  0.00    +0.000 A 
ATOM     10  C   UNL     1       7.495   4.781  13.272  0.00  0.00    +0.000 A 
ATOM     11  N   UNL     1       7.895   5.524  14.355  0.00  0.00    +0.000 N 
ATOM     12  C   UNL     1       7.213   5.579  15.551  0.00  0.00    +0.000 A 
ATOM     13  O   UNL     1       7.613   6.254  16.497  0.00  0.00    +0.000 OA
ATOM     14  H   UNL     1       8.749   6.066  14.313  0.00  0.00    +0.000 HD
BRANCH   9  15
ATOM     15  C   UNL     1       5.910   3.207  12.160  0.00  0.00    +0.000 C 
ATOM     16  F   UNL     1       5.531   1.954  12.522  0.00  0.00    +0.000 F 
ATOM     17  F   UNL     1       4.847   3.766  11.526  0.00  0.00    +0.000 F 
ATOM     18  F   UNL     1       6.887   3.066  11.229  0.00  0.00    +0.000 F 
ENDBRANCH   9  15
ENDBRANCH   5   7
BRANCH   2  19
ATOM     19  C   UNL     1       4.345   4.668  19.547  0.00  0.00    +0.000 C 
BRANCH  19  20
ATOM     20  C   UNL     1       3.135   3.868  19.915  0.00  0.00    +0.000 A 
ATOM     21  C   UNL     1       2.505   3.831  21.145  0.00  0.00    +0.000 A 
ATOM     22  S   UNL     1       1.158   2.771  21.085  0.00  0.00    +0.000 S 
ATOM     23  C   UNL     1       1.512   2.448  19.439  0.00  0.00    +0.000 A 
ATOM     24  N   UNL     1       2.551   3.074  18.937  0.00  0.00    +0.000 NA
ENDBRANCH  19  20
ENDBRANCH   2  19
TORSDOF 4
ENDMDL
MODEL 4
REMARK VINA RESULT:      -6.9      0.748      1.056
REMARK  Name = 
REMARK  5 active torsions:
REMARK  status: ('A' for Active; 'I' for Inactive)
REMARK    1  A    between atoms: C_1  and  N_2
REMARK    2  A    between atoms: N_2  and  C_3
REMARK    3  A    between atoms: C_3  and  C_4
REMARK    4  A    between atoms: N_11  and  C_12
REMARK    5  A    between atoms: C_14  and  C_15
REMARK                            x       y       z     vdW  Elec       q    Type
REMARK                         _______ _______ _______ _____ _____    ______ ____
ROOT
ATOM      1  C   UNL     1       2.918   7.226  18.974  0.00  0.00    +0.000 C 
ATOM      2  N   UNL     1       3.864   6.172  18.647  0.00  0.00    +0.000 N 
ATOM      3  C   UNL     1       4.336   6.156  17.345  0.00  0.00    +0.000 C 
ATOM      4  O   UNL     1       4.054   7.076  16.579  0.00  0.00    +0.000 OA
ATOM      5  N   UNL     1       5.120   5.088  16.984  0.00  0.00    +0.000 N 
ATOM      6  H   UNL     1       4.928   4.201  17.450  0.00  0.00    +0.000 HD
ENDROOT
BRANCH   5   7
ATOM      7  C   UNL     1       5.799   4.976  15.780  0.00  0.00    +0.000 A 
ATOM      8  C   UNL     1       5.329   4.358  14.680  0.00  0.00    +0.000 A 
ATOM      9  C   UNL     1       6.108   4.217  13.460  0.00  0.00    +0.000 A 
ATOM     10  C   UNL     1       7.334   4.764  13.419  0.00  0.00    +0.000 A 
ATOM     11  N   UNL     1       7.840   5.440  14.502  0.00  0.00    +0.000 N 
ATOM     12  C   UNL     1       7.171   5.600  15.697  0.00  0.00    +0.000 A 
ATOM     13  O   UNL     1       7.666   6.207  16.643  0.00  0.00    +0.000 OA
ATOM     14  H   UNL     1       8.765   5.846  14.463  0.00  0.00    +0.000 HD
BRANCH   9  15
ATOM     15  C   UNL     1       5.532   3.446  12.306  0.00  0.00    +0.000 C 
ATOM     16  F   UNL     1       5.786   4.008  11.096  0.00  0.00    +0.000 F 
ATOM     17  F   UNL     1       6.028   2.183  12.258  0.00  0.00    +0.000 F 
ATOM     18  F   UNL     1       4.183   3.329  12.407  0.00  0.00    +0.000 F 
ENDBRANCH   9  15
ENDBRANCH   5   7
BRANCH   2  19
ATOM     19  C   UNL     1       4.207   5.214  19.690  0.00  0.00    +0.000 C 
BRANCH  19  20
ATOM     20  C   UNL     1       3.062   4.277  19.906  0.00  0.00    +0.000 A 
ATOM     21  C   UNL     1       2.356   4.080  21.078  0.00  0.00    +0.000 A 
ATOM     22  S   UNL     1       1.130   2.906  20.838  0.00  0.00    +0.000 S 
ATOM     23  C   UNL     1       1.625   2.752  19.204  0.00  0.00    +0.000 A 
ATOM     24  N   UNL     1       2.629   3.512  18.829  0.00  0.00    +0.000 NA
ENDBRANCH  19  20
ENDBRANCH   2  19
TORSDOF 4
ENDMDL
MODEL 5
REMARK VINA RESULT:      -6.7      4.637      7.019
REMARK  Name = 
REMARK  5 active torsions:
REMARK  status: ('A' for Active; 'I' for Inactive)
REMARK    1  A    between atoms: C_1  and  N_2
REMARK    2  A    between atoms: N_2  and  C_3
REMARK    3  A    between atoms: C_3  and  C_4
REMARK    4  A    between atoms: N_11  and  C_12
REMARK    5  A    between atoms: C_14  and  C_15
REMARK                            x       y       z     vdW  Elec       q    Type
REMARK                         _______ _______ _______ _____ _____    ______ ____
ROOT
ATOM      1  C   UNL     1       6.481   7.283  16.857  0.00  0.00    +0.000 C 
ATOM      2  N   UNL     1       6.202   5.871  17.057  0.00  0.00    +0.000 N 
ATOM      3  C   UNL     1       5.016   5.568  17.706  0.00  0.00    +0.000 C 
ATOM      4  O   UNL     1       4.211   6.461  17.961  0.00  0.00    +0.000 OA
ATOM      5  N   UNL     1       4.804   4.249  18.025  0.00  0.00    +0.000 N 
ATOM      6  H   UNL     1       5.633   3.687  18.223  0.00  0.00    +0.000 HD
ENDROOT
BRANCH   5   7
ATOM      7  C   UNL     1       3.622   3.739  18.537  0.00  0.00    +0.000 A 
ATOM      8  C   UNL     1       3.355   3.564  19.846  0.00  0.00    +0.000 A 
ATOM      9  C   UNL     1       2.119   2.968  20.327  0.00  0.00    +0.000 A 
ATOM     10  C   UNL     1       1.188   2.615  19.425  0.00  0.00    +0.000 A 
ATOM     11  N   UNL     1       1.397   2.812  18.083  0.00  0.00    +0.000 N 
ATOM     12  C   UNL     1       2.547   3.353  17.549  0.00  0.00    +0.000 A 
ATOM     13  O   UNL     1       2.694   3.504  16.340  0.00  0.00    +0.000 OA
ATOM     14  H   UNL     1       0.691   2.540  17.412  0.00  0.00    +0.000 HD
BRANCH   9  15
ATOM     15  C   UNL     1       1.938   2.742  21.802  0.00  0.00    +0.000 C 
ATOM     16  F   UNL     1       0.658   2.454  22.155  0.00  0.00    +0.000 F 
ATOM     17  F   UNL     1       2.703   1.710  22.242  0.00  0.00    +0.000 F 
ATOM     18  F   UNL     1       2.307   3.833  22.522  0.00  0.00    +0.000 F 
ENDBRANCH   9  15
ENDBRANCH   5   7
BRANCH   2  19
ATOM     19  C   UNL     1       7.191   4.906  16.595  0.00  0.00    +0.000 C 
BRANCH  19  20
ATOM     20  C   UNL     1       6.992   4.646  15.135  0.00  0.00    +0.000 A 
ATOM     21  C   UNL     1       6.068   3.794  14.559  0.00  0.00    +0.000 A 
ATOM     22  S   UNL     1       6.217   3.830  12.852  0.00  0.00    +0.000 S 
ATOM     23  C   UNL     1       7.489   4.969  13.007  0.00  0.00    +0.000 A 
ATOM     24  N   UNL     1       7.802   5.324  14.232  0.00  0.00    +0.000 NA
ENDBRANCH  19  20
ENDBRANCH   2  19
TORSDOF 4
ENDMDL
MODEL 6
REMARK VINA RESULT:      -6.7      1.783      2.661
REMARK  Name = 
REMARK  5 active torsions:
REMARK  status: ('A' for Active; 'I' for Inactive)
REMARK    1  A    between atoms: C_1  and  N_2
REMARK    2  A    between atoms: N_2  and  C_3
REMARK    3  A    between atoms: C_3  and  C_4
REMARK    4  A    between atoms: N_11  and  C_12
REMARK    5  A    between atoms: C_14  and  C_15
REMARK                            x       y       z     vdW  Elec       q    Type
REMARK                         _______ _______ _______ _____ _____    ______ ____
ROOT
ATOM      1  C   UNL     1       3.642   3.014  20.400  0.00  0.00    +0.000 C 
ATOM      2  N   UNL     1       3.423   3.722  19.150  0.00  0.00    +0.000 N 
ATOM      3  C   UNL     1       4.527   3.862  18.325  0.00  0.00    +0.000 C 
ATOM      4  O   UNL     1       5.579   3.290  18.604  0.00  0.00    +0.000 OA
ATOM      5  N   UNL     1       4.369   4.647  17.209  0.00  0.00    +0.000 N 
ATOM      6  H   UNL     1       3.707   5.420  17.282  0.00  0.00    +0.000 HD
ENDROOT
BRANCH   5   7
ATOM      7  C   UNL     1       5.308   4.782  16.198  0.00  0.00    +0.000 A 
ATOM      8  C   UNL     1       5.211   4.234  14.971  0.00  0.00    +0.000 A 
ATOM      9  C   UNL     1       6.254   4.357  13.966  0.00  0.00    +0.000 A 
ATOM     10  C   UNL     1       7.344   5.086  14.263  0.00  0.00    +0.000 A 
ATOM     11  N   UNL     1       7.468   5.698  15.486  0.00  0.00    +0.000 N 
ATOM     12  C   UNL     1       6.533   5.613  16.495  0.00  0.00    +0.000 A 
ATOM     13  O   UNL     1       6.690   6.173  17.576  0.00  0.00    +0.000 OA
ATOM     14  H   UNL     1       8.294   6.242  15.701  0.00  0.00    +0.000 HD
BRANCH   9  15
ATOM     15  C   UNL     1       6.095   3.648  12.651  0.00  0.00    +0.000 C 
ATOM     16  F   UNL     1       4.823   3.664  12.175  0.00  0.00    +0.000 F 
ATOM     17  F   UNL     1       6.875   4.208  11.690  0.00  0.00    +0.000 F 
ATOM     18  F   UNL     1       6.464   2.345  12.738  0.00  0.00    +0.000 F 
ENDBRANCH   9  15
ENDBRANCH   5   7
BRANCH   2  19
ATOM     19  C   UNL     1       2.090   4.247  18.887  0.00  0.00    +0.000 C 
BRANCH  19  20
ATOM     20  C   UNL     1       2.006   5.662  19.365  0.00  0.00    +0.000 A 
ATOM     21  C   UNL     1       1.606   6.097  20.615  0.00  0.00    +0.000 A 
ATOM     22  S   UNL     1       1.675   7.808  20.695  0.00  0.00    +0.000 S 
ATOM     23  C   UNL     1       2.231   7.841  19.074  0.00  0.00    +0.000 A 
ATOM     24  N   UNL     1       2.371   6.674  18.486  0.00  0.00    +0.000 NA
ENDBRANCH  19  20
ENDBRANCH   2  19
TORSDOF 4
ENDMDL
MODEL 7
REMARK VINA RESULT:      -6.7      2.680      3.776
REMARK  Name = 
REMARK  5 active torsions:
REMARK  status: ('A' for Active; 'I' for Inactive)
REMARK    1  A    between atoms: C_1  and  N_2
REMARK    2  A    between atoms: N_2  and  C_3
REMARK    3  A    between atoms: C_3  and  C_4
REMARK    4  A    between atoms: N_11  and  C_12
REMARK    5  A    between atoms: C_14  and  C_15
REMARK                            x       y       z     vdW  Elec       q    Type
REMARK                         _______ _______ _______ _____ _____    ______ ____
ROOT
ATOM      1  C   UNL     1       1.013   4.559  20.283  0.00  0.00    +0.000 C 
ATOM      2  N   UNL     1       2.189   5.388  20.080  0.00  0.00    +0.000 N 
ATOM      3  C   UNL     1       3.188   4.848  19.286  0.00  0.00    +0.000 C 
ATOM      4  O   UNL     1       2.997   3.787  18.696  0.00  0.00    +0.000 OA
ATOM      5  N   UNL     1       4.360   5.559  19.198  0.00  0.00    +0.000 N 
ATOM      6  H   UNL     1       4.623   6.111  20.015  0.00  0.00    +0.000 HD
ENDROOT
BRANCH   5   7
ATOM      7  C   UNL     1       5.407   5.255  18.342  0.00  0.00    +0.000 A 
ATOM      8  C   UNL     1       5.303   5.121  17.006  0.00  0.00    +0.000 A 
ATOM      9  C   UNL     1       6.423   4.742  16.160  0.00  0.00    +0.000 A 
ATOM     10  C   UNL     1       7.623   4.558  16.736  0.00  0.00    +0.000 A 
ATOM     11  N   UNL     1       7.788   4.724  18.089  0.00  0.00    +0.000 N 
ATOM     12  C   UNL     1       6.773   5.063  18.957  0.00  0.00    +0.000 A 
ATOM     13  O   UNL     1       6.965   5.195  20.163  0.00  0.00    +0.000 OA
ATOM     14  H   UNL     1       8.695   4.580  18.513  0.00  0.00    +0.000 HD
BRANCH   9  15
ATOM     15  C   UNL     1       6.197   4.542  14.688  0.00  0.00    +0.000 C 
ATOM     16  F   UNL     1       7.130   5.147  13.908  0.00  0.00    +0.000 F 
ATOM     17  F   UNL     1       6.213   3.224  14.360  0.00  0.00    +0.000 F 
ATOM     18  F   UNL     1       4.989   5.024  14.299  0.00  0.00    +0.000 F 
ENDBRANCH   9  15
ENDBRANCH   5   7
BRANCH   2  19
ATOM     19  C   UNL     1       2.234   6.684  20.743  0.00  0.00    +0.000 C 
BRANCH  19  20
ATOM     20  C   UNL     1       1.884   7.760  19.765  0.00  0.00    +0.000 A 
ATOM     21  C   UNL     1       1.149   8.904  20.013  0.00  0.00    +0.000 A 
ATOM     22  S   UNL     1       1.011   9.838  18.582  0.00  0.00    +0.000 S 
ATOM     23  C   UNL     1       1.934   8.659  17.748  0.00  0.00    +0.000 A 
ATOM     24  N   UNL     1       2.339   7.631  18.458  0.00  0.00    +0.000 NA
ENDBRANCH  19  20
ENDBRANCH   2  19
TORSDOF 4
ENDMDL
MODEL 8
REMARK VINA RESULT:      -6.7      5.690      8.068
REMARK  Name = 
REMARK  5 active torsions:
REMARK  status: ('A' for Active; 'I' for Inactive)
REMARK    1  A    between atoms: C_1  and  N_2
REMARK    2  A    between atoms: N_2  and  C_3
REMARK    3  A    between atoms: C_3  and  C_4
REMARK    4  A    between atoms: N_11  and  C_12
REMARK    5  A    between atoms: C_14  and  C_15
REMARK                            x       y       z     vdW  Elec       q    Type
REMARK                         _______ _______ _______ _____ _____    ______ ____
ROOT
ATOM      1  C   UNL     1       3.679   3.423  19.521  0.00  0.00    +0.000 C 
ATOM      2  N   UNL     1       3.928   4.853  19.469  0.00  0.00    +0.000 N 
ATOM      3  C   UNL     1       2.817   5.672  19.597  0.00  0.00    +0.000 C 
ATOM      4  O   UNL     1       1.723   5.184  19.872  0.00  0.00    +0.000 OA
ATOM      5  N   UNL     1       3.017   7.019  19.412  0.00  0.00    +0.000 N 
ATOM      6  H   UNL     1       3.756   7.286  18.761  0.00  0.00    +0.000 HD
ENDROOT
BRANCH   5   7
ATOM      7  C   UNL     1       2.064   7.998  19.643  0.00  0.00    +0.000 A 
ATOM      8  C   UNL     1       1.468   8.236  20.827  0.00  0.00    +0.000 A 
ATOM      9  C   UNL     1       0.430   9.239  21.002  0.00  0.00    +0.000 A 
ATOM     10  C   UNL     1       0.081   9.987  19.942  0.00  0.00    +0.000 A 
ATOM     11  N   UNL     1       0.691   9.810  18.724  0.00  0.00    +0.000 N 
ATOM     12  C   UNL     1       1.668   8.870  18.476  0.00  0.00    +0.000 A 
ATOM     13  O   UNL     1       2.181   8.743  17.368  0.00  0.00    +0.000 OA
ATOM     14  H   UNL     1       0.419  10.377  17.932  0.00  0.00    +0.000 HD
BRANCH   9  15
ATOM     15  C   UNL     1      -0.234   9.384  22.342  0.00  0.00    +0.000 C 
ATOM     16  F   UNL     1      -1.088   8.370  22.639  0.00  0.00    +0.000 F 
ATOM     17  F   UNL     1       0.681   9.426  23.345  0.00  0.00    +0.000 F 
ATOM     18  F   UNL     1      -0.950  10.535  22.422  0.00  0.00    +0.000 F 
ENDBRANCH   9  15
ENDBRANCH   5   7
BRANCH   2  19
ATOM     19  C   UNL     1       5.298   5.302  19.259  0.00  0.00    +0.000 C 
BRANCH  19  20
ATOM     20  C   UNL     1       5.653   5.163  17.812  0.00  0.00    +0.000 A 
ATOM     21  C   UNL     1       4.989   5.719  16.734  0.00  0.00    +0.000 A 
ATOM     22  S   UNL     1       5.769   5.282  15.272  0.00  0.00    +0.000 S 
ATOM     23  C   UNL     1       6.924   4.396  16.177  0.00  0.00    +0.000 A 
ATOM     24  N   UNL     1       6.772   4.409  17.481  0.00  0.00    +0.000 NA
ENDBRANCH  19  20
ENDBRANCH   2  19
TORSDOF 4
ENDMDL
MODEL 9
REMARK VINA RESULT:      -6.7      5.611      7.893
REMARK  Name = 
REMARK  5 active torsions:
REMARK  status: ('A' for Active; 'I' for Inactive)
REMARK    1  A    between atoms: C_1  and  N_2
REMARK    2  A    between atoms: N_2  and  C_3
REMARK    3  A    between atoms: C_3  and  C_4
REMARK    4  A    between atoms: N_11  and  C_12
REMARK    5  A    between atoms: C_14  and  C_15
REMARK                            x       y       z     vdW  Elec       q    Type
REMARK                         _______ _______ _______ _____ _____    ______ ____
ROOT
ATOM      1  C   UNL     1       2.955   2.846  19.393  0.00  0.00    +0.000 C 
ATOM      2  N   UNL     1       3.443   4.215  19.365  0.00  0.00    +0.000 N 
ATOM      3  C   UNL     1       2.487   5.209  19.497  0.00  0.00    +0.000 C 
ATOM      4  O   UNL     1       1.323   4.910  19.757  0.00  0.00    +0.000 OA
ATOM      5  N   UNL     1       2.914   6.504  19.334  0.00  0.00    +0.000 N 
ATOM      6  H   UNL     1       3.694   6.651  18.693  0.00  0.00    +0.000 HD
ENDROOT
BRANCH   5   7
ATOM      7  C   UNL     1       2.140   7.628  19.574  0.00  0.00    +0.000 A 
ATOM      8  C   UNL     1       1.566   7.937  20.752  0.00  0.00    +0.000 A 
ATOM      9  C   UNL     1       0.712   9.100  20.934  0.00  0.00    +0.000 A 
ATOM     10  C   UNL     1       0.525   9.923  19.889  0.00  0.00    +0.000 A 
ATOM     11  N   UNL     1       1.124   9.673  18.679  0.00  0.00    +0.000 N 
ATOM     12  C   UNL     1       1.929   8.584  18.424  0.00  0.00    +0.000 A 
ATOM     13  O   UNL     1       2.440   8.396  17.323  0.00  0.00    +0.000 OA
ATOM     14  H   UNL     1       0.974  10.297  17.898  0.00  0.00    +0.000 HD
BRANCH   9  15
ATOM     15  C   UNL     1       0.051   9.325  22.265  0.00  0.00    +0.000 C 
ATOM     16  F   UNL     1       0.899   9.214  23.319  0.00  0.00    +0.000 F 
ATOM     17  F   UNL     1      -0.501  10.564  22.339  0.00  0.00    +0.000 F 
ATOM     18  F   UNL     1      -0.956   8.440  22.477  0.00  0.00    +0.000 F 
ENDBRANCH   9  15
ENDBRANCH   5   7
BRANCH   2  19
ATOM     19  C   UNL     1       4.872   4.426  19.171  0.00  0.00    +0.000 C 
BRANCH  19  20
ATOM     20  C   UNL     1       5.130   4.827  17.753  0.00  0.00    +0.000 A 
ATOM     21  C   UNL     1       5.146   4.002  16.644  0.00  0.00    +0.000 A 
ATOM     22  S   UNL     1       5.485   4.916  15.234  0.00  0.00    +0.000 S 
ATOM     23  C   UNL     1       5.581   6.330  16.198  0.00  0.00    +0.000 A 
ATOM     24  N   UNL     1       5.375   6.168  17.485  0.00  0.00    +0.000 NA
ENDBRANCH  19  20
ENDBRANCH   2  19
TORSDOF 4
ENDMDL
