MODEL 1
REMARK VINA RESULT:      -9.0      0.000      0.000
REMARK  Name = 
REMARK  8 active torsions:
REMARK  status: ('A' for Active; 'I' for Inactive)
REMARK    1  A    between atoms: C_1  and  C_2
REMARK    2  A    between atoms: C_2  and  C_3
REMARK    3  A    between atoms: C_5  and  C_6
REMARK    4  A    between atoms: N_8  and  C_9
REMARK    5  A    between atoms: C_9  and  C_10
REMARK    6  A    between atoms: C_10  and  N_11
REMARK    7  A    between atoms: C_20  and  C_21
REMARK    8  A    between atoms: N_27  and  C_28
REMARK                            x       y       z     vdW  Elec       q    Type
REMARK                         _______ _______ _______ _____ _____    ______ ____
ROOT
ATOM      1  N   UNL     1       4.383   5.381  17.777  0.00  0.00    +0.000 NA
ATOM      2  C   UNL     1       3.459   4.236  17.646  0.00  0.00    +0.000 C 
ATOM      3  C   UNL     1       2.948   3.711  18.963  0.00  0.00    +0.000 A 
ATOM      4  C   UNL     1       3.284   2.428  19.412  0.00  0.00    +0.000 A 
ATOM      5  C   UNL     1       2.986   2.041  20.719  0.00  0.00    +0.000 A 
ATOM      6  C   UNL     1       2.333   2.923  21.582  0.00  0.00    +0.000 A 
ATOM      7  C   UNL     1       1.910   4.163  21.114  0.00  0.00    +0.000 A 
ATOM      8  C   UNL     1       2.211   4.541  19.809  0.00  0.00    +0.000 A 
ATOM      9  O   UNL     1       1.717   5.720  19.338  0.00  0.00    +0.000 OA
ATOM     10  C   UNL     1       2.716   6.753  19.319  0.00  0.00    +0.000 C 
ATOM     11  C   UNL     1       3.652   6.641  18.069  0.00  0.00    +0.000 C 
ENDROOT
BRANCH  10  12
ATOM     12  C   UNL     1       1.987   8.094  19.293  0.00  0.00    +0.000 A 
ATOM     13  C   UNL     1       1.298   8.687  20.404  0.00  0.00    +0.000 A 
ATOM     14  C   UNL     1       0.747   9.912  20.095  0.00  0.00    +0.000 A 
ATOM     15  S   UNL     1       1.029  10.354  18.471  0.00  0.00    +0.000 S 
ATOM     16  C   UNL     1       1.892   8.912  18.176  0.00  0.00    +0.000 A 
ENDBRANCH  10  12
BRANCH   1  17
ATOM     17  C   UNL     1       5.517   5.163  18.700  0.00  0.00    +0.000 C 
BRANCH  17  18
ATOM     18  C   UNL     1       6.827   4.691  18.025  0.00  0.00    +0.000 C 
BRANCH  18  21
ATOM     19  C   UNL     1       6.997   5.062  15.591  0.00  0.00    +0.000 C 
ATOM     20  O   UNL     1       7.436   6.190  15.781  0.00  0.00    +0.000 OA
ATOM     21  N   UNL     1       6.664   4.245  16.655  0.00  0.00    +0.000 N 
ATOM     22  H   UNL     1       6.066   3.443  16.482  0.00  0.00    +0.000 HD
BRANCH  19  25
ATOM     23  C   UNL     1       6.053   3.396  12.472  0.00  0.00    +0.000 A 
ATOM     24  C   UNL     1       5.873   3.524  13.865  0.00  0.00    +0.000 A 
ATOM     25  C   UNL     1       6.778   4.492  14.283  0.00  0.00    +0.000 A 
ATOM     26  N   UNL     1       7.490   4.803  13.144  0.00  0.00    +0.000 N 
ATOM     27  C   UNL     1       8.550   5.768  12.953  0.00  0.00    +0.000 C 
ATOM     28  N   UNL     1       7.055   4.161  12.039  0.00  0.00    +0.000 NA
BRANCH  23  30
ATOM     29  C   UNL     1       3.930   3.310  11.193  0.00  0.00    +0.000 C 
ATOM     30  C   UNL     1       5.246   2.606  11.500  0.00  0.00    +0.000 C 
ENDBRANCH  23  30
ENDBRANCH  19  25
ENDBRANCH  18  21
ENDBRANCH  17  18
ENDBRANCH   1  17
TORSDOF 6
ENDMDL
MODEL 2
REMARK VINA RESULT:      -8.6      0.885      1.115
REMARK  Name = 
REMARK  8 active torsions:
REMARK  status: ('A' for Active; 'I' for Inactive)
REMARK    1  A    between atoms: C_1  and  C_2
REMARK    2  A    between atoms: C_2  and  C_3
REMARK    3  A    between atoms: C_5  and  C_6
REMARK    4  A    between atoms: N_8  and  C_9
REMARK    5  A    between atoms: C_9  and  C_10
REMARK    6  A    between atoms: C_10  and  N_11
REMARK    7  A    between atoms: C_20  and  C_21
REMARK    8  A    between atoms: N_27  and  C_28
REMARK                            x       y       z     vdW  Elec       q    Type
REMARK                         _______ _______ _______ _____ _____    ______ ____
ROOT
ATOM      1  N   UNL     1       4.495   5.753  17.684  0.00  0.00    +0.000 NA
ATOM      2  C   UNL     1       3.608   4.814  16.968  0.00  0.00    +0.000 C 
ATOM      3  C   UNL     1       2.869   3.863  17.875  0.00  0.00    +0.000 A 
ATOM      4  C   UNL     1       3.119   2.485  17.837  0.00  0.00    +0.000 A 
ATOM      5  C   UNL     1       2.592   1.649  18.823  0.00  0.00    +0.000 A 
ATOM      6  C   UNL     1       1.798   2.177  19.842  0.00  0.00    +0.000 A 
ATOM      7  C   UNL     1       1.467   3.529  19.832  0.00  0.00    +0.000 A 
ATOM      8  C   UNL     1       1.996   4.355  18.845  0.00  0.00    +0.000 A 
ATOM      9  O   UNL     1       1.595   5.657  18.797  0.00  0.00    +0.000 OA
ATOM     10  C   UNL     1       2.583   6.545  19.344  0.00  0.00    +0.000 C 
ATOM     11  C   UNL     1       3.726   6.854  18.320  0.00  0.00    +0.000 C 
ENDROOT
BRANCH  10  12
ATOM     12  C   UNL     1       1.873   7.841  19.724  0.00  0.00    +0.000 A 
ATOM     13  C   UNL     1       1.619   8.941  18.837  0.00  0.00    +0.000 A 
ATOM     14  C   UNL     1       0.944   9.974  19.452  0.00  0.00    +0.000 A 
ATOM     15  S   UNL     1       0.626   9.648  21.097  0.00  0.00    +0.000 S 
ATOM     16  C   UNL     1       1.387   8.124  20.993  0.00  0.00    +0.000 A 
ENDBRANCH  10  12
BRANCH   1  17
ATOM     17  C   UNL     1       5.447   5.119  18.621  0.00  0.00    +0.000 C 
BRANCH  17  18
ATOM     18  C   UNL     1       6.756   4.606  17.975  0.00  0.00    +0.000 C 
BRANCH  18  21
ATOM     19  C   UNL     1       6.939   5.024  15.548  0.00  0.00    +0.000 C 
ATOM     20  O   UNL     1       7.354   6.156  15.763  0.00  0.00    +0.000 OA
ATOM     21  N   UNL     1       6.613   4.181  16.595  0.00  0.00    +0.000 N 
ATOM     22  H   UNL     1       6.032   3.372  16.403  0.00  0.00    +0.000 HD
BRANCH  19  25
ATOM     23  C   UNL     1       6.039   3.415  12.387  0.00  0.00    +0.000 A 
ATOM     24  C   UNL     1       5.824   3.534  13.776  0.00  0.00    +0.000 A 
ATOM     25  C   UNL     1       6.742   4.474  14.229  0.00  0.00    +0.000 A 
ATOM     26  N   UNL     1       7.493   4.777  13.114  0.00  0.00    +0.000 N 
ATOM     27  C   UNL     1       8.583   5.716  12.963  0.00  0.00    +0.000 C 
ATOM     28  N   UNL     1       7.072   4.158  11.990  0.00  0.00    +0.000 NA
BRANCH  23  30
ATOM     29  C   UNL     1       3.831   3.229  11.273  0.00  0.00    +0.000 C 
ATOM     30  C   UNL     1       5.239   2.657  11.385  0.00  0.00    +0.000 C 
ENDBRANCH  23  30
ENDBRANCH  19  25
ENDBRANCH  18  21
ENDBRANCH  17  18
ENDBRANCH   1  17
TORSDOF 6
ENDMDL
MODEL 3
REMARK VINA RESULT:      -8.5      1.068      1.138
REMARK  Name = 
REMARK  8 active torsions:
REMARK  status: ('A' for Active; 'I' for Inactive)
REMARK    1  A    between atoms: C_1  and  C_2
REMARK    2  A    between atoms: C_2  and  C_3
REMARK    3  A    between atoms: C_5  and  C_6
REMARK    4  A    between atoms: N_8  and  C_9
REMARK    5  A    between atoms: C_9  and  C_10
REMARK    6  A    between atoms: C_10  and  N_11
REMARK    7  A    between atoms: C_20  and  C_21
REMARK    8  A    between atoms: N_27  and  C_28
REMARK                            x       y       z     vdW  Elec       q    Type
REMARK                         _______ _______ _______ _____ _____    ______ ____
ROOT
ATOM      1  N   UNL     1       3.516   6.353  17.649  0.00  0.00    +0.000 NA
ATOM      2  C   UNL     1       2.700   5.126  17.542  0.00  0.00    +0.000 C 
ATOM      3  C   UNL     1       2.688   4.292  18.797  0.00  0.00    +0.000 A 
ATOM      4  C   UNL     1       3.259   3.013  18.823  0.00  0.00    +0.000 A 
ATOM      5  C   UNL     1       3.433   2.346  20.037  0.00  0.00    +0.000 A 
ATOM      6  C   UNL     1       3.022   2.940  21.231  0.00  0.00    +0.000 A 
ATOM      7  C   UNL     1       2.367   4.168  21.203  0.00  0.00    +0.000 A 
ATOM      8  C   UNL     1       2.197   4.826  19.989  0.00  0.00    +0.000 A 
ATOM      9  O   UNL     1       1.479   5.984  19.967  0.00  0.00    +0.000 OA
ATOM     10  C   UNL     1       2.327   7.141  19.885  0.00  0.00    +0.000 C 
ATOM     11  C   UNL     1       2.814   7.409  18.422  0.00  0.00    +0.000 C 
ENDROOT
BRANCH  10  12
ATOM     12  C   UNL     1       1.518   8.337  20.382  0.00  0.00    +0.000 A 
ATOM     13  C   UNL     1       1.096   8.549  21.737  0.00  0.00    +0.000 A 
ATOM     14  C   UNL     1       0.393   9.724  21.897  0.00  0.00    +0.000 A 
ATOM     15  S   UNL     1       0.215  10.574  20.427  0.00  0.00    +0.000 S 
ATOM     16  C   UNL     1       1.078   9.374  19.573  0.00  0.00    +0.000 A 
ENDBRANCH  10  12
BRANCH   1  17
ATOM     17  C   UNL     1       4.901   6.139  18.117  0.00  0.00    +0.000 C 
BRANCH  17  18
ATOM     18  C   UNL     1       6.002   6.645  17.155  0.00  0.00    +0.000 C 
BRANCH  18  21
ATOM     19  C   UNL     1       6.760   4.920  15.560  0.00  0.00    +0.000 C 
ATOM     20  O   UNL     1       7.496   4.439  16.413  0.00  0.00    +0.000 OA
ATOM     21  N   UNL     1       5.979   6.025  15.844  0.00  0.00    +0.000 N 
ATOM     22  H   UNL     1       5.594   6.558  15.070  0.00  0.00    +0.000 HD
BRANCH  19  25
ATOM     23  C   UNL     1       6.068   3.387  12.311  0.00  0.00    +0.000 A 
ATOM     24  C   UNL     1       5.793   3.442  13.693  0.00  0.00    +0.000 A 
ATOM     25  C   UNL     1       6.643   4.410  14.216  0.00  0.00    +0.000 A 
ATOM     26  N   UNL     1       7.419   4.794  13.142  0.00  0.00    +0.000 N 
ATOM     27  C   UNL     1       8.462   5.792  13.068  0.00  0.00    +0.000 C 
ATOM     28  N   UNL     1       7.074   4.196  11.982  0.00  0.00    +0.000 NA
BRANCH  23  30
ATOM     29  C   UNL     1       3.897   3.085  11.148  0.00  0.00    +0.000 C 
ATOM     30  C   UNL     1       5.347   2.626  11.251  0.00  0.00    +0.000 C 
ENDBRANCH  23  30
ENDBRANCH  19  25
ENDBRANCH  18  21
ENDBRANCH  17  18
ENDBRANCH   1  17
TORSDOF 6
ENDMDL
MODEL 4
REMARK VINA RESULT:      -8.1      4.025      8.064
REMARK  Name = 
REMARK  8 active torsions:
REMARK  status: ('A' for Active; 'I' for Inactive)
REMARK    1  A    between atoms: C_1  and  C_2
REMARK    2  A    between atoms: C_2  and  C_3
REMARK    3  A    between atoms: C_5  and  C_6
REMARK    4  A    between atoms: N_8  and  C_9
REMARK    5  A    between atoms: C_9  and  C_10
REMARK    6  A    between atoms: C_10  and  N_11
REMARK    7  A    between atoms: C_20  and  C_21
REMARK    8  A    between atoms: N_27  and  C_28
REMARK                            x       y       z     vdW  Elec       q    Type
REMARK                         _______ _______ _______ _____ _____    ______ ____
ROOT
ATOM      1  N   UNL     1       3.773   6.537  18.942  0.00  0.00    +0.000 NA
ATOM      2  C   UNL     1       3.763   5.432  19.922  0.00  0.00    +0.000 C 
ATOM      3  C   UNL     1       2.832   4.304  19.559  0.00  0.00    +0.000 A 
ATOM      4  C   UNL     1       1.707   4.012  20.340  0.00  0.00    +0.000 A 
ATOM      5  C   UNL     1       0.743   3.115  19.877  0.00  0.00    +0.000 A 
ATOM      6  C   UNL     1       0.903   2.488  18.641  0.00  0.00    +0.000 A 
ATOM      7  C   UNL     1       2.064   2.699  17.903  0.00  0.00    +0.000 A 
ATOM      8  C   UNL     1       3.020   3.595  18.372  0.00  0.00    +0.000 A 
ATOM      9  O   UNL     1       4.188   3.726  17.683  0.00  0.00    +0.000 OA
ATOM     10  C   UNL     1       4.211   4.920  16.884  0.00  0.00    +0.000 C 
ATOM     11  C   UNL     1       4.564   6.187  17.734  0.00  0.00    +0.000 C 
ENDROOT
BRANCH  10  12
ATOM     12  C   UNL     1       5.264   4.724  15.797  0.00  0.00    +0.000 A 
ATOM     13  C   UNL     1       6.602   5.242  15.833  0.00  0.00    +0.000 A 
ATOM     14  C   UNL     1       7.336   4.893  14.720  0.00  0.00    +0.000 A 
ATOM     15  S   UNL     1       6.429   3.962  13.614  0.00  0.00    +0.000 S 
ATOM     16  C   UNL     1       5.052   4.020  14.620  0.00  0.00    +0.000 A 
ENDBRANCH  10  12
BRANCH   1  17
ATOM     17  C   UNL     1       2.441   7.081  18.604  0.00  0.00    +0.000 C 
BRANCH  17  18
ATOM     18  C   UNL     1       2.442   8.539  18.088  0.00  0.00    +0.000 C 
BRANCH  18  21
ATOM     19  C   UNL     1       0.504   9.904  18.777  0.00  0.00    +0.000 C 
ATOM     20  O   UNL     1       1.060  10.181  19.833  0.00  0.00    +0.000 OA
ATOM     21  N   UNL     1       1.121   9.088  17.847  0.00  0.00    +0.000 N 
ATOM     22  H   UNL     1       0.552   8.661  17.123  0.00  0.00    +0.000 HD
BRANCH  19  25
ATOM     23  C   UNL     1      -2.802  10.778  17.474  0.00  0.00    +0.000 A 
ATOM     24  C   UNL     1      -1.577  10.106  17.282  0.00  0.00    +0.000 A 
ATOM     25  C   UNL     1      -0.810  10.373  18.410  0.00  0.00    +0.000 A 
ATOM     26  N   UNL     1      -1.583  11.248  19.145  0.00  0.00    +0.000 N 
ATOM     27  C   UNL     1      -1.322  11.853  20.431  0.00  0.00    +0.000 C 
ATOM     28  N   UNL     1      -2.795  11.490  18.600  0.00  0.00    +0.000 NA
BRANCH  23  30
ATOM     29  C   UNL     1      -3.690  10.501  15.175  0.00  0.00    +0.000 C 
ATOM     30  C   UNL     1      -4.037  10.712  16.643  0.00  0.00    +0.000 C 
ENDBRANCH  23  30
ENDBRANCH  19  25
ENDBRANCH  18  21
ENDBRANCH  17  18
ENDBRANCH   1  17
TORSDOF 6
ENDMDL
MODEL 5
REMARK VINA RESULT:      -7.9      3.981      8.201
REMARK  Name = 
REMARK  8 active torsions:
REMARK  status: ('A' for Active; 'I' for Inactive)
REMARK    1  A    between atoms: C_1  and  C_2
REMARK    2  A    between atoms: C_2  and  C_3
REMARK    3  A    between atoms: C_5  and  C_6
REMARK    4  A    between atoms: N_8  and  C_9
REMARK    5  A    between atoms: C_9  and  C_10
REMARK    6  A    between atoms: C_10  and  N_11
REMARK    7  A    between atoms: C_20  and  C_21
REMARK    8  A    between atoms: N_27  and  C_28
REMARK                            x       y       z     vdW  Elec       q    Type
REMARK                         _______ _______ _______ _____ _____    ______ ____
ROOT
ATOM      1  N   UNL     1       3.794   6.646  18.795  0.00  0.00    +0.000 NA
ATOM      2  C   UNL     1       3.795   5.566  19.803  0.00  0.00    +0.000 C 
ATOM      3  C   UNL     1       2.860   4.429  19.477  0.00  0.00    +0.000 A 
ATOM      4  C   UNL     1       1.744   4.157  20.277  0.00  0.00    +0.000 A 
ATOM      5  C   UNL     1       0.775   3.249  19.846  0.00  0.00    +0.000 A 
ATOM      6  C   UNL     1       0.922   2.591  18.624  0.00  0.00    +0.000 A 
ATOM      7  C   UNL     1       2.076   2.784  17.869  0.00  0.00    +0.000 A 
ATOM      8  C   UNL     1       3.036   3.691  18.306  0.00  0.00    +0.000 A 
ATOM      9  O   UNL     1       4.197   3.805  17.602  0.00  0.00    +0.000 OA
ATOM     10  C   UNL     1       4.212   4.979  16.774  0.00  0.00    +0.000 C 
ATOM     11  C   UNL     1       4.573   6.267  17.588  0.00  0.00    +0.000 C 
ENDROOT
BRANCH  10  12
ATOM     12  C   UNL     1       5.254   4.756  15.681  0.00  0.00    +0.000 A 
ATOM     13  C   UNL     1       5.109   3.867  14.564  0.00  0.00    +0.000 A 
ATOM     14  C   UNL     1       6.204   3.882  13.728  0.00  0.00    +0.000 A 
ATOM     15  S   UNL     1       7.423   4.942  14.281  0.00  0.00    +0.000 S 
ATOM     16  C   UNL     1       6.489   5.386  15.638  0.00  0.00    +0.000 A 
ENDBRANCH  10  12
BRANCH   1  17
ATOM     17  C   UNL     1       2.459   7.182  18.458  0.00  0.00    +0.000 C 
BRANCH  17  18
ATOM     18  C   UNL     1       2.464   8.570  17.775  0.00  0.00    +0.000 C 
BRANCH  18  21
ATOM     19  C   UNL     1       0.619   9.993  18.589  0.00  0.00    +0.000 C 
ATOM     20  O   UNL     1       1.248  10.245  19.610  0.00  0.00    +0.000 OA
ATOM     21  N   UNL     1       1.150   9.163  17.619  0.00  0.00    +0.000 N 
ATOM     22  H   UNL     1       0.523   8.761  16.930  0.00  0.00    +0.000 HD
BRANCH  19  25
ATOM     23  C   UNL     1      -2.870  10.831  17.873  0.00  0.00    +0.000 A 
ATOM     24  C   UNL     1      -1.874   9.839  17.982  0.00  0.00    +0.000 A 
ATOM     25  C   UNL     1      -0.699  10.507  18.307  0.00  0.00    +0.000 A 
ATOM     26  N   UNL     1      -1.050  11.841  18.279  0.00  0.00    +0.000 N 
ATOM     27  C   UNL     1      -0.251  13.011  18.562  0.00  0.00    +0.000 C 
ATOM     28  N   UNL     1      -2.361  12.052  18.033  0.00  0.00    +0.000 NA
BRANCH  23  30
ATOM     29  C   UNL     1      -5.115  11.614  18.581  0.00  0.00    +0.000 C 
ATOM     30  C   UNL     1      -4.339  10.656  17.687  0.00  0.00    +0.000 C 
ENDBRANCH  23  30
ENDBRANCH  19  25
ENDBRANCH  18  21
ENDBRANCH  17  18
ENDBRANCH   1  17
TORSDOF 6
ENDMDL
MODEL 6
REMARK VINA RESULT:      -7.9      3.849      8.776
REMARK  Name = 
REMARK  8 active torsions:
REMARK  status: ('A' for Active; 'I' for Inactive)
REMARK    1  A    between atoms: C_1  and  C_2
REMARK    2  A    between atoms: C_2  and  C_3
REMARK    3  A    between atoms: C_5  and  C_6
REMARK    4  A    between atoms: N_8  and  C_9
REMARK    5  A    between atoms: C_9  and  C_10
REMARK    6  A    between atoms: C_10  and  N_11
REMARK    7  A    between atoms: C_20  and  C_21
REMARK    8  A    between atoms: N_27  and  C_28
REMARK                            x       y       z     vdW  Elec       q    Type
REMARK                         _______ _______ _______ _____ _____    ______ ____
ROOT
ATOM      1  N   UNL     1       3.748   6.585  18.614  0.00  0.00    +0.000 NA
ATOM      2  C   UNL     1       3.813   5.543  19.658  0.00  0.00    +0.000 C 
ATOM      3  C   UNL     1       2.946   4.343  19.376  0.00  0.00    +0.000 A 
ATOM      4  C   UNL     1       1.849   4.034  20.190  0.00  0.00    +0.000 A 
ATOM      5  C   UNL     1       0.934   3.057  19.795  0.00  0.00    +0.000 A 
ATOM      6  C   UNL     1       1.117   2.367  18.596  0.00  0.00    +0.000 A 
ATOM      7  C   UNL     1       2.255   2.599  17.830  0.00  0.00    +0.000 A 
ATOM      8  C   UNL     1       3.162   3.576  18.231  0.00  0.00    +0.000 A 
ATOM      9  O   UNL     1       4.313   3.732  17.518  0.00  0.00    +0.000 OA
ATOM     10  C   UNL     1       4.256   4.876  16.650  0.00  0.00    +0.000 C 
ATOM     11  C   UNL     1       4.544   6.210  17.417  0.00  0.00    +0.000 C 
ENDROOT
BRANCH  10  12
ATOM     12  C   UNL     1       5.307   4.676  15.561  0.00  0.00    +0.000 A 
ATOM     13  C   UNL     1       5.152   3.848  14.398  0.00  0.00    +0.000 A 
ATOM     14  C   UNL     1       6.259   3.871  13.578  0.00  0.00    +0.000 A 
ATOM     15  S   UNL     1       7.501   4.865  14.199  0.00  0.00    +0.000 S 
ATOM     16  C   UNL     1       6.561   5.269  15.565  0.00  0.00    +0.000 A 
ENDBRANCH  10  12
BRANCH   1  17
ATOM     17  C   UNL     1       2.382   7.030  18.264  0.00  0.00    +0.000 C 
BRANCH  17  18
ATOM     18  C   UNL     1       2.222   8.556  18.067  0.00  0.00    +0.000 C 
BRANCH  18  21
ATOM     19  C   UNL     1       1.133  10.545  19.043  0.00  0.00    +0.000 C 
ATOM     20  O   UNL     1       1.872  11.280  18.399  0.00  0.00    +0.000 OA
ATOM     21  N   UNL     1       1.240   9.170  18.939  0.00  0.00    +0.000 N 
ATOM     22  H   UNL     1       0.818   8.596  19.662  0.00  0.00    +0.000 HD
BRANCH  19  25
ATOM     23  C   UNL     1      -1.129  11.631  21.706  0.00  0.00    +0.000 A 
ATOM     24  C   UNL     1       0.057  10.962  21.339  0.00  0.00    +0.000 A 
ATOM     25  C   UNL     1       0.118  11.018  19.952  0.00  0.00    +0.000 A 
ATOM     26  N   UNL     1      -1.065  11.626  19.587  0.00  0.00    +0.000 N 
ATOM     27  C   UNL     1      -1.553  11.980  18.273  0.00  0.00    +0.000 C 
ATOM     28  N   UNL     1      -1.822  12.015  20.635  0.00  0.00    +0.000 NA
BRANCH  23  30
ATOM     29  C   UNL     1      -3.036  12.520  23.021  0.00  0.00    +0.000 C 
ATOM     30  C   UNL     1      -1.608  11.989  23.071  0.00  0.00    +0.000 C 
ENDBRANCH  23  30
ENDBRANCH  19  25
ENDBRANCH  18  21
ENDBRANCH  17  18
ENDBRANCH   1  17
TORSDOF 6
ENDMDL
MODEL 7
REMARK VINA RESULT:      -7.9      3.730      8.663
REMARK  Name = 
REMARK  8 active torsions:
REMARK  status: ('A' for Active; 'I' for Inactive)
REMARK    1  A    between atoms: C_1  and  C_2
REMARK    2  A    between atoms: C_2  and  C_3
REMARK    3  A    between atoms: C_5  and  C_6
REMARK    4  A    between atoms: N_8  and  C_9
REMARK    5  A    between atoms: C_9  and  C_10
REMARK    6  A    between atoms: C_10  and  N_11
REMARK    7  A    between atoms: C_20  and  C_21
REMARK    8  A    between atoms: N_27  and  C_28
REMARK                            x       y       z     vdW  Elec       q    Type
REMARK                         _______ _______ _______ _____ _____    ______ ____
ROOT
ATOM      1  N   UNL     1       3.671   6.525  18.652  0.00  0.00    +0.000 NA
ATOM      2  C   UNL     1       3.758   5.488  19.700  0.00  0.00    +0.000 C 
ATOM      3  C   UNL     1       2.932   4.260  19.412  0.00  0.00    +0.000 A 
ATOM      4  C   UNL     1       1.837   3.920  20.216  0.00  0.00    +0.000 A 
ATOM      5  C   UNL     1       0.957   2.913  19.814  0.00  0.00    +0.000 A 
ATOM      6  C   UNL     1       1.173   2.227  18.619  0.00  0.00    +0.000 A 
ATOM      7  C   UNL     1       2.311   2.493  17.864  0.00  0.00    +0.000 A 
ATOM      8  C   UNL     1       3.183   3.498  18.271  0.00  0.00    +0.000 A 
ATOM      9  O   UNL     1       4.336   3.689  17.570  0.00  0.00    +0.000 OA
ATOM     10  C   UNL     1       4.253   4.828  16.698  0.00  0.00    +0.000 C 
ATOM     11  C   UNL     1       4.491   6.172  17.465  0.00  0.00    +0.000 C 
ENDROOT
BRANCH  10  12
ATOM     12  C   UNL     1       5.320   4.658  15.620  0.00  0.00    +0.000 A 
ATOM     13  C   UNL     1       6.671   5.138  15.705  0.00  0.00    +0.000 A 
ATOM     14  C   UNL     1       7.416   4.825  14.589  0.00  0.00    +0.000 A 
ATOM     15  S   UNL     1       6.505   3.975  13.422  0.00  0.00    +0.000 S 
ATOM     16  C   UNL     1       5.112   4.019  14.407  0.00  0.00    +0.000 A 
ENDBRANCH  10  12
BRANCH   1  17
ATOM     17  C   UNL     1       2.296   6.926  18.288  0.00  0.00    +0.000 C 
BRANCH  17  18
ATOM     18  C   UNL     1       2.137   8.407  17.867  0.00  0.00    +0.000 C 
BRANCH  18  21
ATOM     19  C   UNL     1       0.560  10.062  18.796  0.00  0.00    +0.000 C 
ATOM     20  O   UNL     1      -0.101  10.029  17.765  0.00  0.00    +0.000 OA
ATOM     21  N   UNL     1       1.695   9.285  18.932  0.00  0.00    +0.000 N 
ATOM     22  H   UNL     1       2.360   9.522  19.662  0.00  0.00    +0.000 HD
BRANCH  19  25
ATOM     23  C   UNL     1      -0.552  11.811  21.812  0.00  0.00    +0.000 A 
ATOM     24  C   UNL     1      -0.728  10.737  20.916  0.00  0.00    +0.000 A 
ATOM     25  C   UNL     1       0.241  10.894  19.932  0.00  0.00    +0.000 A 
ATOM     26  N   UNL     1       0.859  12.084  20.253  0.00  0.00    +0.000 N 
ATOM     27  C   UNL     1       1.965  12.752  19.606  0.00  0.00    +0.000 C 
ATOM     28  N   UNL     1       0.402  12.642  21.394  0.00  0.00    +0.000 NA
BRANCH  23  30
ATOM     29  C   UNL     1      -1.488  13.534  23.332  0.00  0.00    +0.000 C 
ATOM     30  C   UNL     1      -1.225  12.048  23.121  0.00  0.00    +0.000 C 
ENDBRANCH  23  30
ENDBRANCH  19  25
ENDBRANCH  18  21
ENDBRANCH  17  18
ENDBRANCH   1  17
TORSDOF 6
ENDMDL
MODEL 8
REMARK VINA RESULT:      -7.9      3.718      8.825
REMARK  Name = 
REMARK  8 active torsions:
REMARK  status: ('A' for Active; 'I' for Inactive)
REMARK    1  A    between atoms: C_1  and  C_2
REMARK    2  A    between atoms: C_2  and  C_3
REMARK    3  A    between atoms: C_5  and  C_6
REMARK    4  A    between atoms: N_8  and  C_9
REMARK    5  A    between atoms: C_9  and  C_10
REMARK    6  A    between atoms: C_10  and  N_11
REMARK    7  A    between atoms: C_20  and  C_21
REMARK    8  A    between atoms: N_27  and  C_28
REMARK                            x       y       z     vdW  Elec       q    Type
REMARK                         _______ _______ _______ _____ _____    ______ ____
ROOT
ATOM      1  N   UNL     1       3.639   6.602  18.694  0.00  0.00    +0.000 NA
ATOM      2  C   UNL     1       3.696   5.566  19.746  0.00  0.00    +0.000 C 
ATOM      3  C   UNL     1       2.851   4.353  19.452  0.00  0.00    +0.000 A 
ATOM      4  C   UNL     1       1.741   4.034  20.245  0.00  0.00    +0.000 A 
ATOM      5  C   UNL     1       0.848   3.042  19.836  0.00  0.00    +0.000 A 
ATOM      6  C   UNL     1       1.065   2.348  18.645  0.00  0.00    +0.000 A 
ATOM      7  C   UNL     1       2.216   2.592  17.902  0.00  0.00    +0.000 A 
ATOM      8  C   UNL     1       3.101   3.582  18.316  0.00  0.00    +0.000 A 
ATOM      9  O   UNL     1       4.265   3.751  17.627  0.00  0.00    +0.000 OA
ATOM     10  C   UNL     1       4.212   4.889  16.751  0.00  0.00    +0.000 C 
ATOM     11  C   UNL     1       4.465   6.231  17.517  0.00  0.00    +0.000 C 
ENDROOT
BRANCH  10  12
ATOM     12  C   UNL     1       5.288   4.697  15.686  0.00  0.00    +0.000 A 
ATOM     13  C   UNL     1       6.655   5.119  15.799  0.00  0.00    +0.000 A 
ATOM     14  C   UNL     1       7.404   4.799  14.688  0.00  0.00    +0.000 A 
ATOM     15  S   UNL     1       6.477   4.010  13.491  0.00  0.00    +0.000 S 
ATOM     16  C   UNL     1       5.072   4.092  14.456  0.00  0.00    +0.000 A 
ENDBRANCH  10  12
BRANCH   1  17
ATOM     17  C   UNL     1       2.275   7.026  18.313  0.00  0.00    +0.000 C 
BRANCH  17  18
ATOM     18  C   UNL     1       2.038   8.555  18.331  0.00  0.00    +0.000 C 
BRANCH  18  21
ATOM     19  C   UNL     1       0.691  10.247  19.522  0.00  0.00    +0.000 C 
ATOM     20  O   UNL     1       0.645  10.938  18.512  0.00  0.00    +0.000 OA
ATOM     21  N   UNL     1       1.368   9.041  19.521  0.00  0.00    +0.000 N 
ATOM     22  H   UNL     1       1.618   8.626  20.413  0.00  0.00    +0.000 HD
BRANCH  19  25
ATOM     23  C   UNL     1      -1.182  11.428  22.435  0.00  0.00    +0.000 A 
ATOM     24  C   UNL     1      -0.930  11.527  21.051  0.00  0.00    +0.000 A 
ATOM     25  C   UNL     1       0.077  10.609  20.776  0.00  0.00    +0.000 A 
ATOM     26  N   UNL     1       0.417  10.100  22.012  0.00  0.00    +0.000 N 
ATOM     27  C   UNL     1       1.386   9.085  22.357  0.00  0.00    +0.000 C 
ATOM     28  N   UNL     1      -0.345  10.573  23.022  0.00  0.00    +0.000 NA
BRANCH  23  30
ATOM     29  C   UNL     1      -3.366  12.598  22.321  0.00  0.00    +0.000 C 
ATOM     30  C   UNL     1      -2.260  12.079  23.232  0.00  0.00    +0.000 C 
ENDBRANCH  23  30
ENDBRANCH  19  25
ENDBRANCH  18  21
ENDBRANCH  17  18
ENDBRANCH   1  17
TORSDOF 6
ENDMDL
MODEL 9
REMARK VINA RESULT:      -7.8      3.727      8.373
REMARK  Name = 
REMARK  8 active torsions:
REMARK  status: ('A' for Active; 'I' for Inactive)
REMARK    1  A    between atoms: C_1  and  C_2
REMARK    2  A    between atoms: C_2  and  C_3
REMARK    3  A    between atoms: C_5  and  C_6
REMARK    4  A    between atoms: N_8  and  C_9
REMARK    5  A    between atoms: C_9  and  C_10
REMARK    6  A    between atoms: C_10  and  N_11
REMARK    7  A    between atoms: C_20  and  C_21
REMARK    8  A    between atoms: N_27  and  C_28
REMARK                            x       y       z     vdW  Elec       q    Type
REMARK                         _______ _______ _______ _____ _____    ______ ____
ROOT
ATOM      1  N   UNL     1       3.863   6.407  18.901  0.00  0.00    +0.000 NA
ATOM      2  C   UNL     1       3.894   5.283  19.860  0.00  0.00    +0.000 C 
ATOM      3  C   UNL     1       2.960   4.154  19.505  0.00  0.00    +0.000 A 
ATOM      4  C   UNL     1       1.864   3.838  20.317  0.00  0.00    +0.000 A 
ATOM      5  C   UNL     1       0.892   2.942  19.868  0.00  0.00    +0.000 A 
ATOM      6  C   UNL     1       1.016   2.341  18.615  0.00  0.00    +0.000 A 
ATOM      7  C   UNL     1       2.150   2.576  17.843  0.00  0.00    +0.000 A 
ATOM      8  C   UNL     1       3.114   3.470  18.298  0.00  0.00    +0.000 A 
ATOM      9  O   UNL     1       4.258   3.624  17.574  0.00  0.00    +0.000 OA
ATOM     10  C   UNL     1       4.245   4.834  16.799  0.00  0.00    +0.000 C 
ATOM     11  C   UNL     1       4.616   6.087  17.661  0.00  0.00    +0.000 C 
ENDROOT
BRANCH  10  12
ATOM     12  C   UNL     1       5.264   4.668  15.674  0.00  0.00    +0.000 A 
ATOM     13  C   UNL     1       5.127   3.782  14.553  0.00  0.00    +0.000 A 
ATOM     14  C   UNL     1       6.195   3.854  13.686  0.00  0.00    +0.000 A 
ATOM     15  S   UNL     1       7.380   4.965  14.212  0.00  0.00    +0.000 S 
ATOM     16  C   UNL     1       6.467   5.355  15.600  0.00  0.00    +0.000 A 
ENDBRANCH  10  12
BRANCH   1  17
ATOM     17  C   UNL     1       2.516   6.946  18.618  0.00  0.00    +0.000 C 
BRANCH  17  18
ATOM     18  C   UNL     1       1.901   7.798  19.754  0.00  0.00    +0.000 C 
BRANCH  18  21
ATOM     19  C   UNL     1       0.368   9.716  20.005  0.00  0.00    +0.000 C 
ATOM     20  O   UNL     1      -0.143   9.194  20.988  0.00  0.00    +0.000 OA
ATOM     21  N   UNL     1       1.395   9.087  19.325  0.00  0.00    +0.000 N 
ATOM     22  H   UNL     1       1.613   9.396  18.383  0.00  0.00    +0.000 HD
BRANCH  19  25
ATOM     23  C   UNL     1      -0.325  13.142  18.923  0.00  0.00    +0.000 A 
ATOM     24  C   UNL     1       0.332  12.279  19.825  0.00  0.00    +0.000 A 
ATOM     25  C   UNL     1      -0.041  10.990  19.464  0.00  0.00    +0.000 A 
ATOM     26  N   UNL     1      -0.953  11.174  18.447  0.00  0.00    +0.000 N 
ATOM     27  C   UNL     1      -1.663  10.194  17.656  0.00  0.00    +0.000 C 
ATOM     28  N   UNL     1      -1.124  12.467  18.098  0.00  0.00    +0.000 NA
BRANCH  23  30
ATOM     29  C   UNL     1       1.270  15.038  19.053  0.00  0.00    +0.000 C 
ATOM     30  C   UNL     1      -0.165  14.616  18.765  0.00  0.00    +0.000 C 
ENDBRANCH  23  30
ENDBRANCH  19  25
ENDBRANCH  18  21
ENDBRANCH  17  18
ENDBRANCH   1  17
TORSDOF 6
ENDMDL
