MODEL 1
REMARK VINA RESULT:      -7.9      0.000      0.000
REMARK  Name = 
REMARK  3 active torsions:
REMARK  status: ('A' for Active; 'I' for Inactive)
REMARK    1  A    between atoms: C_1  and  C_2
REMARK    2  A    between atoms: C_5  and  N_6
REMARK    3  A    between atoms: C_12  and  C_13
REMARK                            x       y       z     vdW  Elec       q    Type
REMARK                         _______ _______ _______ _____ _____    ______ ____
ROOT
ATOM      1  N   UNL     1       3.110   6.555  19.247  0.00  0.00    +0.000 N 
ATOM      2  C   UNL     1       3.867   6.230  18.158  0.00  0.00    +0.000 C 
ATOM      3  N   UNL     1       4.188   6.962  17.149  0.00  0.00    +0.000 NA
ATOM      4  C   UNL     1       4.934   6.320  16.197  0.00  0.00    +0.000 C 
ATOM      5  O   UNL     1       5.334   6.864  15.181  0.00  0.00    +0.000 OA
ATOM      6  C   UNL     1       5.182   4.890  16.568  0.00  0.00    +0.000 C 
ATOM      7  C   UNL     1       5.851   3.972  15.860  0.00  0.00    +0.000 C 
ATOM      8  S   UNL     1       4.466   4.580  18.109  0.00  0.00    +0.000 S 
ATOM      9  H   UNL     1       2.940   5.805  19.902  0.00  0.00    +0.000 HD
ENDROOT
BRANCH   1  14
ATOM     10  C   UNL     1      -0.613  10.889  19.807  0.00  0.00    +0.000 C 
ATOM     11  C   UNL     1       0.379   9.775  19.673  0.00  0.00    +0.000 A 
ATOM     12  C   UNL     1       0.705   8.953  20.754  0.00  0.00    +0.000 A 
ATOM     13  C   UNL     1       1.628   7.911  20.601  0.00  0.00    +0.000 A 
ATOM     14  C   UNL     1       2.237   7.656  19.364  0.00  0.00    +0.000 A 
ATOM     15  C   UNL     1       1.927   8.514  18.301  0.00  0.00    +0.000 A 
ATOM     16  C   UNL     1       1.005   9.553  18.447  0.00  0.00    +0.000 A 
ENDBRANCH   1  14
BRANCH   7  17
ATOM     17  C   UNL     1       6.437   4.292  14.611  0.00  0.00    +0.000 A 
ATOM     18  C   UNL     1       6.092   3.838  13.345  0.00  0.00    +0.000 A 
ATOM     19  C   UNL     1       7.044   4.348  12.433  0.00  0.00    +0.000 A 
ATOM     20  C   UNL     1       7.903   5.114  13.179  0.00  0.00    +0.000 A 
ATOM     21  O   UNL     1       7.533   5.110  14.483  0.00  0.00    +0.000 OA
ENDBRANCH   7  17
TORSDOF 2
ENDMDL
MODEL 2
REMARK VINA RESULT:      -7.8      0.186      1.088
REMARK  Name = 
REMARK  3 active torsions:
REMARK  status: ('A' for Active; 'I' for Inactive)
REMARK    1  A    between atoms: C_1  and  C_2
REMARK    2  A    between atoms: C_5  and  N_6
REMARK    3  A    between atoms: C_12  and  C_13
REMARK                            x       y       z     vdW  Elec       q    Type
REMARK                         _______ _______ _______ _____ _____    ______ ____
ROOT
ATOM      1  N   UNL     1       3.214   6.439  19.437  0.00  0.00    +0.000 N 
ATOM      2  C   UNL     1       3.947   6.142  18.323  0.00  0.00    +0.000 C 
ATOM      3  N   UNL     1       4.187   6.875  17.294  0.00  0.00    +0.000 NA
ATOM      4  C   UNL     1       4.933   6.263  16.322  0.00  0.00    +0.000 C 
ATOM      5  O   UNL     1       5.262   6.814  15.286  0.00  0.00    +0.000 OA
ATOM      6  C   UNL     1       5.276   4.856  16.701  0.00  0.00    +0.000 C 
ATOM      7  C   UNL     1       5.970   3.967  15.980  0.00  0.00    +0.000 C 
ATOM      8  S   UNL     1       4.638   4.527  18.273  0.00  0.00    +0.000 S 
ATOM      9  H   UNL     1       3.113   5.690  20.108  0.00  0.00    +0.000 HD
ENDROOT
BRANCH   1  14
ATOM     10  C   UNL     1      -0.405  10.870  19.910  0.00  0.00    +0.000 C 
ATOM     11  C   UNL     1       0.518   9.698  19.774  0.00  0.00    +0.000 A 
ATOM     12  C   UNL     1       1.146   9.399  18.563  0.00  0.00    +0.000 A 
ATOM     13  C   UNL     1       2.013   8.304  18.464  0.00  0.00    +0.000 A 
ATOM     14  C   UNL     1       2.284   7.489  19.573  0.00  0.00    +0.000 A 
ATOM     15  C   UNL     1       1.616   7.782  20.769  0.00  0.00    +0.000 A 
ATOM     16  C   UNL     1       0.753   8.875  20.874  0.00  0.00    +0.000 A 
ENDBRANCH   1  14
BRANCH   7  17
ATOM     17  C   UNL     1       6.489   4.301  14.706  0.00  0.00    +0.000 A 
ATOM     18  C   UNL     1       6.091   3.846  13.455  0.00  0.00    +0.000 A 
ATOM     19  C   UNL     1       6.989   4.375  12.501  0.00  0.00    +0.000 A 
ATOM     20  C   UNL     1       7.871   5.153  13.208  0.00  0.00    +0.000 A 
ATOM     21  O   UNL     1       7.565   5.138  14.528  0.00  0.00    +0.000 OA
ENDBRANCH   7  17
TORSDOF 2
ENDMDL
MODEL 3
REMARK VINA RESULT:      -7.2      3.263      8.086
REMARK  Name = 
REMARK  3 active torsions:
REMARK  status: ('A' for Active; 'I' for Inactive)
REMARK    1  A    between atoms: C_1  and  C_2
REMARK    2  A    between atoms: C_5  and  N_6
REMARK    3  A    between atoms: C_12  and  C_13
REMARK                            x       y       z     vdW  Elec       q    Type
REMARK                         _______ _______ _______ _____ _____    ______ ____
ROOT
ATOM      1  N   UNL     1       5.763   5.781  15.324  0.00  0.00    +0.000 N 
ATOM      2  C   UNL     1       5.015   5.361  16.387  0.00  0.00    +0.000 C 
ATOM      3  N   UNL     1       4.746   4.160  16.761  0.00  0.00    +0.000 NA
ATOM      4  C   UNL     1       3.930   4.077  17.858  0.00  0.00    +0.000 C 
ATOM      5  O   UNL     1       3.581   3.020  18.354  0.00  0.00    +0.000 OA
ATOM      6  C   UNL     1       3.532   5.435  18.348  0.00  0.00    +0.000 C 
ATOM      7  C   UNL     1       2.728   5.723  19.378  0.00  0.00    +0.000 C 
ATOM      8  S   UNL     1       4.299   6.632  17.366  0.00  0.00    +0.000 S 
ATOM      9  H   UNL     1       5.804   6.781  15.184  0.00  0.00    +0.000 HD
ENDROOT
BRANCH   1  14
ATOM     10  C   UNL     1       7.255   2.437  10.902  0.00  0.00    +0.000 C 
ATOM     11  C   UNL     1       6.851   3.327  12.038  0.00  0.00    +0.000 A 
ATOM     12  C   UNL     1       5.599   3.211  12.646  0.00  0.00    +0.000 A 
ATOM     13  C   UNL     1       5.247   4.047  13.713  0.00  0.00    +0.000 A 
ATOM     14  C   UNL     1       6.141   5.009  14.207  0.00  0.00    +0.000 A 
ATOM     15  C   UNL     1       7.376   5.136  13.560  0.00  0.00    +0.000 A 
ATOM     16  C   UNL     1       7.733   4.303  12.498  0.00  0.00    +0.000 A 
ENDBRANCH   1  14
BRANCH   7  17
ATOM     17  C   UNL     1       2.145   4.699  20.163  0.00  0.00    +0.000 A 
ATOM     18  C   UNL     1       2.571   4.184  21.380  0.00  0.00    +0.000 A 
ATOM     19  C   UNL     1       1.727   3.097  21.704  0.00  0.00    +0.000 A 
ATOM     20  C   UNL     1       0.807   3.022  20.690  0.00  0.00    +0.000 A 
ATOM     21  O   UNL     1       1.031   3.995  19.773  0.00  0.00    +0.000 OA
ENDBRANCH   7  17
TORSDOF 2
ENDMDL
MODEL 4
REMARK VINA RESULT:      -7.2      1.294      1.710
REMARK  Name = 
REMARK  3 active torsions:
REMARK  status: ('A' for Active; 'I' for Inactive)
REMARK    1  A    between atoms: C_1  and  C_2
REMARK    2  A    between atoms: C_5  and  N_6
REMARK    3  A    between atoms: C_12  and  C_13
REMARK                            x       y       z     vdW  Elec       q    Type
REMARK                         _______ _______ _______ _____ _____    ______ ____
ROOT
ATOM      1  N   UNL     1       2.208   6.972  20.369  0.00  0.00    +0.000 N 
ATOM      2  C   UNL     1       3.009   6.511  19.363  0.00  0.00    +0.000 C 
ATOM      3  N   UNL     1       3.471   7.144  18.343  0.00  0.00    +0.000 NA
ATOM      4  C   UNL     1       4.221   6.379  17.491  0.00  0.00    +0.000 C 
ATOM      5  O   UNL     1       4.744   6.818  16.482  0.00  0.00    +0.000 OA
ATOM      6  C   UNL     1       4.303   4.958  17.961  0.00  0.00    +0.000 C 
ATOM      7  C   UNL     1       4.931   3.940  17.361  0.00  0.00    +0.000 C 
ATOM      8  S   UNL     1       3.449   4.813  19.456  0.00  0.00    +0.000 S 
ATOM      9  H   UNL     1       1.920   6.283  21.051  0.00  0.00    +0.000 HD
ENDROOT
BRANCH   1  14
ATOM     10  C   UNL     1      -1.113  11.655  20.391  0.00  0.00    +0.000 C 
ATOM     11  C   UNL     1      -0.225  10.448  20.398  0.00  0.00    +0.000 A 
ATOM     12  C   UNL     1      -0.046   9.679  21.550  0.00  0.00    +0.000 A 
ATOM     13  C   UNL     1       0.782   8.549  21.528  0.00  0.00    +0.000 A 
ATOM     14  C   UNL     1       1.439   8.153  20.355  0.00  0.00    +0.000 A 
ATOM     15  C   UNL     1       1.278   8.958  19.220  0.00  0.00    +0.000 A 
ATOM     16  C   UNL     1       0.452  10.083  19.235  0.00  0.00    +0.000 A 
ENDBRANCH   1  14
BRANCH   7  17
ATOM     17  C   UNL     1       5.635   4.125  16.146  0.00  0.00    +0.000 A 
ATOM     18  C   UNL     1       6.954   4.516  15.954  0.00  0.00    +0.000 A 
ATOM     19  C   UNL     1       7.155   4.672  14.564  0.00  0.00    +0.000 A 
ATOM     20  C   UNL     1       5.964   4.338  13.973  0.00  0.00    +0.000 A 
ATOM     21  O   UNL     1       5.052   3.981  14.910  0.00  0.00    +0.000 OA
ENDBRANCH   7  17
TORSDOF 2
ENDMDL
MODEL 5
REMARK VINA RESULT:      -7.1      4.413      8.671
REMARK  Name = 
REMARK  3 active torsions:
REMARK  status: ('A' for Active; 'I' for Inactive)
REMARK    1  A    between atoms: C_1  and  C_2
REMARK    2  A    between atoms: C_5  and  N_6
REMARK    3  A    between atoms: C_12  and  C_13
REMARK                            x       y       z     vdW  Elec       q    Type
REMARK                         _______ _______ _______ _____ _____    ______ ____
ROOT
ATOM      1  N   UNL     1       2.998   7.189  17.930  0.00  0.00    +0.000 N 
ATOM      2  C   UNL     1       2.278   8.077  18.677  0.00  0.00    +0.000 C 
ATOM      3  N   UNL     1       1.762   7.919  19.846  0.00  0.00    +0.000 NA
ATOM      4  C   UNL     1       1.061   9.000  20.308  0.00  0.00    +0.000 C 
ATOM      5  O   UNL     1       0.516   9.028  21.398  0.00  0.00    +0.000 OA
ATOM      6  C   UNL     1       1.056  10.116  19.309  0.00  0.00    +0.000 C 
ATOM      7  C   UNL     1       0.450  11.304  19.422  0.00  0.00    +0.000 C 
ATOM      8  S   UNL     1       1.991   9.643  17.936  0.00  0.00    +0.000 S 
ATOM      9  H   UNL     1       3.267   7.508  17.010  0.00  0.00    +0.000 HD
ENDROOT
BRANCH   1  14
ATOM     10  C   UNL     1       3.474   1.504  18.569  0.00  0.00    +0.000 C 
ATOM     11  C   UNL     1       3.344   2.990  18.431  0.00  0.00    +0.000 A 
ATOM     12  C   UNL     1       4.388   3.849  18.778  0.00  0.00    +0.000 A 
ATOM     13  C   UNL     1       4.246   5.235  18.630  0.00  0.00    +0.000 A 
ATOM     14  C   UNL     1       3.066   5.794  18.120  0.00  0.00    +0.000 A 
ATOM     15  C   UNL     1       2.016   4.919  17.813  0.00  0.00    +0.000 A 
ATOM     16  C   UNL     1       2.153   3.537  17.955  0.00  0.00    +0.000 A 
ENDBRANCH   1  14
BRANCH   7  17
ATOM     17  C   UNL     1      -0.285  11.645  20.584  0.00  0.00    +0.000 A 
ATOM     18  C   UNL     1      -1.659  11.614  20.786  0.00  0.00    +0.000 A 
ATOM     19  C   UNL     1      -1.916  12.158  22.065  0.00  0.00    +0.000 A 
ATOM     20  C   UNL     1      -0.688  12.464  22.595  0.00  0.00    +0.000 A 
ATOM     21  O   UNL     1       0.299  12.136  21.727  0.00  0.00    +0.000 OA
ENDBRANCH   7  17
TORSDOF 2
ENDMDL
MODEL 6
REMARK VINA RESULT:      -7.0      1.344      2.109
REMARK  Name = 
REMARK  3 active torsions:
REMARK  status: ('A' for Active; 'I' for Inactive)
REMARK    1  A    between atoms: C_1  and  C_2
REMARK    2  A    between atoms: C_5  and  N_6
REMARK    3  A    between atoms: C_12  and  C_13
REMARK                            x       y       z     vdW  Elec       q    Type
REMARK                         _______ _______ _______ _____ _____    ______ ____
ROOT
ATOM      1  N   UNL     1       2.089   7.069  20.438  0.00  0.00    +0.000 N 
ATOM      2  C   UNL     1       2.904   6.593  19.451  0.00  0.00    +0.000 C 
ATOM      3  N   UNL     1       3.350   7.199  18.407  0.00  0.00    +0.000 NA
ATOM      4  C   UNL     1       4.123   6.424  17.586  0.00  0.00    +0.000 C 
ATOM      5  O   UNL     1       4.635   6.838  16.561  0.00  0.00    +0.000 OA
ATOM      6  C   UNL     1       4.246   5.026  18.111  0.00  0.00    +0.000 C 
ATOM      7  C   UNL     1       4.906   4.004  17.552  0.00  0.00    +0.000 C 
ATOM      8  S   UNL     1       3.395   4.913  19.610  0.00  0.00    +0.000 S 
ATOM      9  H   UNL     1       1.820   6.399  21.146  0.00  0.00    +0.000 HD
ENDROOT
BRANCH   1  14
ATOM     10  C   UNL     1      -0.991  11.903  20.131  0.00  0.00    +0.000 C 
ATOM     11  C   UNL     1      -0.208  10.628  20.196  0.00  0.00    +0.000 A 
ATOM     12  C   UNL     1       0.572  10.194  19.122  0.00  0.00    +0.000 A 
ATOM     13  C   UNL     1       1.303   9.003  19.210  0.00  0.00    +0.000 A 
ATOM     14  C   UNL     1       1.285   8.225  20.377  0.00  0.00    +0.000 A 
ATOM     15  C   UNL     1       0.467   8.656  21.429  0.00  0.00    +0.000 A 
ATOM     16  C   UNL     1      -0.262   9.844  21.347  0.00  0.00    +0.000 A 
ENDBRANCH   1  14
BRANCH   7  17
ATOM     17  C   UNL     1       5.606   4.162  16.331  0.00  0.00    +0.000 A 
ATOM     18  C   UNL     1       6.942   4.485  16.128  0.00  0.00    +0.000 A 
ATOM     19  C   UNL     1       7.137   4.643  14.737  0.00  0.00    +0.000 A 
ATOM     20  C   UNL     1       5.923   4.377  14.156  0.00  0.00    +0.000 A 
ATOM     21  O   UNL     1       5.004   4.061  15.100  0.00  0.00    +0.000 OA
ENDBRANCH   7  17
TORSDOF 2
ENDMDL
MODEL 7
REMARK VINA RESULT:      -7.0      3.283      8.126
REMARK  Name = 
REMARK  3 active torsions:
REMARK  status: ('A' for Active; 'I' for Inactive)
REMARK    1  A    between atoms: C_1  and  C_2
REMARK    2  A    between atoms: C_5  and  N_6
REMARK    3  A    between atoms: C_12  and  C_13
REMARK                            x       y       z     vdW  Elec       q    Type
REMARK                         _______ _______ _______ _____ _____    ______ ____
ROOT
ATOM      1  N   UNL     1       5.713   5.727  15.400  0.00  0.00    +0.000 N 
ATOM      2  C   UNL     1       4.975   5.309  16.470  0.00  0.00    +0.000 C 
ATOM      3  N   UNL     1       4.738   4.109  16.870  0.00  0.00    +0.000 NA
ATOM      4  C   UNL     1       3.921   4.026  17.966  0.00  0.00    +0.000 C 
ATOM      5  O   UNL     1       3.602   2.970  18.483  0.00  0.00    +0.000 OA
ATOM      6  C   UNL     1       3.484   5.383  18.426  0.00  0.00    +0.000 C 
ATOM      7  C   UNL     1       2.669   5.670  19.447  0.00  0.00    +0.000 C 
ATOM      8  S   UNL     1       4.220   6.579  17.420  0.00  0.00    +0.000 S 
ATOM      9  H   UNL     1       5.726   6.725  15.240  0.00  0.00    +0.000 HD
ENDROOT
BRANCH   1  14
ATOM     10  C   UNL     1       7.399   2.733  10.802  0.00  0.00    +0.000 C 
ATOM     11  C   UNL     1       6.975   3.497  12.018  0.00  0.00    +0.000 A 
ATOM     12  C   UNL     1       7.804   4.455  12.605  0.00  0.00    +0.000 A 
ATOM     13  C   UNL     1       7.381   5.163  13.737  0.00  0.00    +0.000 A 
ATOM     14  C   UNL     1       6.116   4.942  14.301  0.00  0.00    +0.000 A 
ATOM     15  C   UNL     1       5.314   3.951  13.722  0.00  0.00    +0.000 A 
ATOM     16  C   UNL     1       5.729   3.244  12.592  0.00  0.00    +0.000 A 
ENDBRANCH   1  14
BRANCH   7  17
ATOM     17  C   UNL     1       2.112   4.646  20.253  0.00  0.00    +0.000 A 
ATOM     18  C   UNL     1       2.571   4.143  21.463  0.00  0.00    +0.000 A 
ATOM     19  C   UNL     1       1.744   3.052  21.814  0.00  0.00    +0.000 A 
ATOM     20  C   UNL     1       0.802   2.962  20.822  0.00  0.00    +0.000 A 
ATOM     21  O   UNL     1       0.996   3.930  19.893  0.00  0.00    +0.000 OA
ENDBRANCH   7  17
TORSDOF 2
ENDMDL
MODEL 8
REMARK VINA RESULT:      -7.0      2.821      8.160
REMARK  Name = 
REMARK  3 active torsions:
REMARK  status: ('A' for Active; 'I' for Inactive)
REMARK    1  A    between atoms: C_1  and  C_2
REMARK    2  A    between atoms: C_5  and  N_6
REMARK    3  A    between atoms: C_12  and  C_13
REMARK                            x       y       z     vdW  Elec       q    Type
REMARK                         _______ _______ _______ _____ _____    ______ ____
ROOT
ATOM      1  N   UNL     1       3.030   5.660  18.648  0.00  0.00    +0.000 N 
ATOM      2  C   UNL     1       2.440   6.834  19.023  0.00  0.00    +0.000 C 
ATOM      3  N   UNL     1       2.294   7.918  18.346  0.00  0.00    +0.000 NA
ATOM      4  C   UNL     1       1.687   8.937  19.029  0.00  0.00    +0.000 C 
ATOM      5  O   UNL     1       1.459  10.029  18.538  0.00  0.00    +0.000 OA
ATOM      6  C   UNL     1       1.352   8.532  20.432  0.00  0.00    +0.000 C 
ATOM      7  C   UNL     1       0.778   9.284  21.379  0.00  0.00    +0.000 C 
ATOM      8  S   UNL     1       1.818   6.885  20.665  0.00  0.00    +0.000 S 
ATOM      9  H   UNL     1       3.080   4.947  19.363  0.00  0.00    +0.000 HD
ENDROOT
BRANCH   1  14
ATOM     10  C   UNL     1       6.691   4.723  14.328  0.00  0.00    +0.000 C 
ATOM     11  C   UNL     1       5.714   4.967  15.437  0.00  0.00    +0.000 A 
ATOM     12  C   UNL     1       4.990   3.922  16.015  0.00  0.00    +0.000 A 
ATOM     13  C   UNL     1       4.089   4.173  17.057  0.00  0.00    +0.000 A 
ATOM     14  C   UNL     1       3.899   5.470  17.556  0.00  0.00    +0.000 A 
ATOM     15  C   UNL     1       4.605   6.510  16.938  0.00  0.00    +0.000 A 
ATOM     16  C   UNL     1       5.507   6.265  15.901  0.00  0.00    +0.000 A 
ENDBRANCH   1  14
BRANCH   7  17
ATOM     17  C   UNL     1       0.397  10.624  21.122  0.00  0.00    +0.000 A 
ATOM     18  C   UNL     1      -0.818  11.110  20.656  0.00  0.00    +0.000 A 
ATOM     19  C   UNL     1      -0.671  12.500  20.449  0.00  0.00    +0.000 A 
ATOM     20  C   UNL     1       0.612  12.802  20.829  0.00  0.00    +0.000 A 
ATOM     21  O   UNL     1       1.253  11.689  21.260  0.00  0.00    +0.000 OA
ENDBRANCH   7  17
TORSDOF 2
ENDMDL
MODEL 9
REMARK VINA RESULT:      -7.0      2.734      8.001
REMARK  Name = 
REMARK  3 active torsions:
REMARK  status: ('A' for Active; 'I' for Inactive)
REMARK    1  A    between atoms: C_1  and  C_2
REMARK    2  A    between atoms: C_5  and  N_6
REMARK    3  A    between atoms: C_12  and  C_13
REMARK                            x       y       z     vdW  Elec       q    Type
REMARK                         _______ _______ _______ _____ _____    ______ ____
ROOT
ATOM      1  N   UNL     1       3.258   5.945  18.732  0.00  0.00    +0.000 N 
ATOM      2  C   UNL     1       2.568   7.123  18.784  0.00  0.00    +0.000 C 
ATOM      3  N   UNL     1       2.388   7.996  17.855  0.00  0.00    +0.000 NA
ATOM      4  C   UNL     1       1.672   9.097  18.242  0.00  0.00    +0.000 C 
ATOM      5  O   UNL     1       1.401  10.016  17.489  0.00  0.00    +0.000 OA
ATOM      6  C   UNL     1       1.283   9.017  19.686  0.00  0.00    +0.000 C 
ATOM      7  C   UNL     1       0.603   9.926  20.395  0.00  0.00    +0.000 C 
ATOM      8  S   UNL     1       1.846   7.518  20.336  0.00  0.00    +0.000 S 
ATOM      9  H   UNL     1       3.314   5.432  19.601  0.00  0.00    +0.000 HD
ENDROOT
BRANCH   1  14
ATOM     10  C   UNL     1       7.073   4.623  14.652  0.00  0.00    +0.000 C 
ATOM     11  C   UNL     1       6.095   4.958  15.737  0.00  0.00    +0.000 A 
ATOM     12  C   UNL     1       6.234   6.109  16.515  0.00  0.00    +0.000 A 
ATOM     13  C   UNL     1       5.301   6.406  17.517  0.00  0.00    +0.000 A 
ATOM     14  C   UNL     1       4.202   5.568  17.757  0.00  0.00    +0.000 A 
ATOM     15  C   UNL     1       4.101   4.399  16.992  0.00  0.00    +0.000 A 
ATOM     16  C   UNL     1       5.026   4.100  15.990  0.00  0.00    +0.000 A 
ENDBRANCH   1  14
BRANCH   7  17
ATOM     17  C   UNL     1       0.147  11.128  19.802  0.00  0.00    +0.000 A 
ATOM     18  C   UNL     1      -1.086  11.402  19.224  0.00  0.00    +0.000 A 
ATOM     19  C   UNL     1      -1.019  12.699  18.668  0.00  0.00    +0.000 A 
ATOM     20  C   UNL     1       0.236  13.168  18.961  0.00  0.00    +0.000 A 
ATOM     21  O   UNL     1       0.935  12.245  19.665  0.00  0.00    +0.000 OA
ENDBRANCH   7  17
TORSDOF 2
ENDMDL
