MODEL 1
REMARK VINA RESULT:      -7.8      0.000      0.000
REMARK  Name = 
REMARK  4 active torsions:
REMARK  status: ('A' for Active; 'I' for Inactive)
REMARK    1  A    between atoms: C_1  and  C_2
REMARK    2  A    between atoms: C_2  and  C_3
REMARK    3  A    between atoms: C_2  and  C_4
REMARK    4  A    between atoms: N_14  and  C_15
REMARK                            x       y       z     vdW  Elec       q    Type
REMARK                         _______ _______ _______ _____ _____    ______ ____
ROOT
ATOM      1  C   UNL     1       3.778   5.983  17.831  0.00  0.00    +0.000 C 
ATOM      2  S   UNL     1       3.177   4.257  17.943  0.00  0.00    +0.000 S 
ATOM      3  C   UNL     1       1.724   4.379  19.003  0.00  0.00    +0.000 C 
ATOM      4  C   UNL     1       2.045   4.898  20.377  0.00  0.00    +0.000 C 
ATOM      5  O   UNL     1       2.094   4.218  21.391  0.00  0.00    +0.000 OA
ATOM      6  N   UNL     1       2.161   6.305  20.588  0.00  0.00    +0.000 N 
ATOM      7  C   UNL     1       2.224   7.231  19.560  0.00  0.00    +0.000 A 
ATOM      8  C   UNL     1       2.852   7.050  18.339  0.00  0.00    +0.000 A 
ATOM      9  C   UNL     1       2.479   8.205  17.608  0.00  0.00    +0.000 A 
ATOM     10  N   UNL     1       1.669   9.016  18.284  0.00  0.00    +0.000 NA
ATOM     11  N   UNL     1       1.635   8.493  19.531  0.00  0.00    +0.000 N 
ATOM     12  H   UNL     1       2.017   6.585  21.549  0.00  0.00    +0.000 HD
ENDROOT
BRANCH  11  13
ATOM     13  C   UNL     1       0.936   9.158  20.572  0.00  0.00    +0.000 A 
ATOM     14  C   UNL     1       0.066  10.211  20.244  0.00  0.00    +0.000 A 
ATOM     15  C   UNL     1      -0.670  10.843  21.247  0.00  0.00    +0.000 A 
ATOM     16  C   UNL     1      -0.503  10.451  22.570  0.00  0.00    +0.000 A 
ATOM     17  F   UNL     1      -1.201  11.065  23.534  0.00  0.00    +0.000 F 
ATOM     18  C   UNL     1       0.389   9.439  22.911  0.00  0.00    +0.000 A 
ATOM     19  C   UNL     1       1.113   8.786  21.911  0.00  0.00    +0.000 A 
ENDBRANCH  11  13
BRANCH   1  21
ATOM     20  C   UNL     1       5.827   4.947  19.066  0.00  0.00    +0.000 C 
ATOM     21  C   UNL     1       5.243   6.159  18.333  0.00  0.00    +0.000 C 
ATOM     22  C   UNL     1       6.189   6.565  17.190  0.00  0.00    +0.000 C 
ENDBRANCH   1  21
TORSDOF 2
ENDMDL
MODEL 2
REMARK VINA RESULT:      -7.7      0.089      1.062
REMARK  Name = 
REMARK  4 active torsions:
REMARK  status: ('A' for Active; 'I' for Inactive)
REMARK    1  A    between atoms: C_1  and  C_2
REMARK    2  A    between atoms: C_2  and  C_3
REMARK    3  A    between atoms: C_2  and  C_4
REMARK    4  A    between atoms: N_14  and  C_15
REMARK                            x       y       z     vdW  Elec       q    Type
REMARK                         _______ _______ _______ _____ _____    ______ ____
ROOT
ATOM      1  C   UNL     1       3.856   5.980  17.813  0.00  0.00    +0.000 C 
ATOM      2  S   UNL     1       3.287   4.245  17.935  0.00  0.00    +0.000 S 
ATOM      3  C   UNL     1       1.821   4.349  18.978  0.00  0.00    +0.000 C 
ATOM      4  C   UNL     1       2.117   4.886  20.350  0.00  0.00    +0.000 C 
ATOM      5  O   UNL     1       2.167   4.217  21.372  0.00  0.00    +0.000 OA
ATOM      6  N   UNL     1       2.203   6.297  20.549  0.00  0.00    +0.000 N 
ATOM      7  C   UNL     1       2.261   7.215  19.513  0.00  0.00    +0.000 A 
ATOM      8  C   UNL     1       2.905   7.034  18.301  0.00  0.00    +0.000 A 
ATOM      9  C   UNL     1       2.519   8.175  17.555  0.00  0.00    +0.000 A 
ATOM     10  N   UNL     1       1.686   8.977  18.214  0.00  0.00    +0.000 NA
ATOM     11  N   UNL     1       1.648   8.466  19.466  0.00  0.00    +0.000 N 
ATOM     12  H   UNL     1       2.043   6.584  21.506  0.00  0.00    +0.000 HD
ENDROOT
BRANCH  11  13
ATOM     13  C   UNL     1       0.925   9.127  20.492  0.00  0.00    +0.000 A 
ATOM     14  C   UNL     1       1.145   8.755  21.829  0.00  0.00    +0.000 A 
ATOM     15  C   UNL     1       0.482   9.428  22.856  0.00  0.00    +0.000 A 
ATOM     16  C   UNL     1      -0.424  10.435  22.542  0.00  0.00    +0.000 A 
ATOM     17  F   UNL     1      -1.068  11.074  23.527  0.00  0.00    +0.000 F 
ATOM     18  C   UNL     1      -0.681  10.782  21.220  0.00  0.00    +0.000 A 
ATOM     19  C   UNL     1      -0.007  10.128  20.186  0.00  0.00    +0.000 A 
ENDBRANCH  11  13
BRANCH   1  21
ATOM     20  C   UNL     1       5.907   5.000  19.090  0.00  0.00    +0.000 C 
ATOM     21  C   UNL     1       5.313   6.189  18.329  0.00  0.00    +0.000 C 
ATOM     22  C   UNL     1       6.265   6.591  17.192  0.00  0.00    +0.000 C 
ENDBRANCH   1  21
TORSDOF 2
ENDMDL
MODEL 3
REMARK VINA RESULT:      -7.7      3.088      4.372
REMARK  Name = 
REMARK  4 active torsions:
REMARK  status: ('A' for Active; 'I' for Inactive)
REMARK    1  A    between atoms: C_1  and  C_2
REMARK    2  A    between atoms: C_2  and  C_3
REMARK    3  A    between atoms: C_2  and  C_4
REMARK    4  A    between atoms: N_14  and  C_15
REMARK                            x       y       z     vdW  Elec       q    Type
REMARK                         _______ _______ _______ _____ _____    ______ ____
ROOT
ATOM      1  C   UNL     1       5.925   4.330  16.060  0.00  0.00    +0.000 C 
ATOM      2  S   UNL     1       7.592   4.458  16.805  0.00  0.00    +0.000 S 
ATOM      3  C   UNL     1       7.360   5.604  18.176  0.00  0.00    +0.000 C 
ATOM      4  C   UNL     1       6.894   6.963  17.730  0.00  0.00    +0.000 C 
ATOM      5  O   UNL     1       7.592   7.964  17.682  0.00  0.00    +0.000 OA
ATOM      6  N   UNL     1       5.506   7.182  17.477  0.00  0.00    +0.000 N 
ATOM      7  C   UNL     1       4.573   6.163  17.391  0.00  0.00    +0.000 A 
ATOM      8  C   UNL     1       4.788   4.904  16.855  0.00  0.00    +0.000 A 
ATOM      9  C   UNL     1       3.593   4.210  17.165  0.00  0.00    +0.000 A 
ATOM     10  N   UNL     1       2.725   4.942  17.858  0.00  0.00    +0.000 NA
ATOM     11  N   UNL     1       3.262   6.183  17.866  0.00  0.00    +0.000 N 
ATOM     12  H   UNL     1       5.230   8.153  17.538  0.00  0.00    +0.000 HD
ENDROOT
BRANCH  11  13
ATOM     13  C   UNL     1       2.556   7.271  18.441  0.00  0.00    +0.000 A 
ATOM     14  C   UNL     1       2.221   8.370  17.632  0.00  0.00    +0.000 A 
ATOM     15  C   UNL     1       1.481   9.426  18.166  0.00  0.00    +0.000 A 
ATOM     16  C   UNL     1       1.118   9.399  19.507  0.00  0.00    +0.000 A 
ATOM     17  F   UNL     1       0.417  10.418  20.022  0.00  0.00    +0.000 F 
ATOM     18  C   UNL     1       1.481   8.337  20.328  0.00  0.00    +0.000 A 
ATOM     19  C   UNL     1       2.203   7.265  19.797  0.00  0.00    +0.000 A 
ENDBRANCH  11  13
BRANCH   1  21
ATOM     20  C   UNL     1       7.238   5.161  13.966  0.00  0.00    +0.000 C 
ATOM     21  C   UNL     1       5.887   4.745  14.557  0.00  0.00    +0.000 C 
ATOM     22  C   UNL     1       5.266   3.645  13.681  0.00  0.00    +0.000 C 
ENDBRANCH   1  21
TORSDOF 2
ENDMDL
MODEL 4
REMARK VINA RESULT:      -7.7      3.089      4.483
REMARK  Name = 
REMARK  4 active torsions:
REMARK  status: ('A' for Active; 'I' for Inactive)
REMARK    1  A    between atoms: C_1  and  C_2
REMARK    2  A    between atoms: C_2  and  C_3
REMARK    3  A    between atoms: C_2  and  C_4
REMARK    4  A    between atoms: N_14  and  C_15
REMARK                            x       y       z     vdW  Elec       q    Type
REMARK                         _______ _______ _______ _____ _____    ______ ____
ROOT
ATOM      1  C   UNL     1       5.924   4.321  16.036  0.00  0.00    +0.000 C 
ATOM      2  S   UNL     1       7.589   4.455  16.786  0.00  0.00    +0.000 S 
ATOM      3  C   UNL     1       7.346   5.593  18.162  0.00  0.00    +0.000 C 
ATOM      4  C   UNL     1       6.875   6.951  17.721  0.00  0.00    +0.000 C 
ATOM      5  O   UNL     1       7.568   7.957  17.680  0.00  0.00    +0.000 OA
ATOM      6  N   UNL     1       5.487   7.165  17.465  0.00  0.00    +0.000 N 
ATOM      7  C   UNL     1       4.559   6.141  17.371  0.00  0.00    +0.000 A 
ATOM      8  C   UNL     1       4.783   4.886  16.830  0.00  0.00    +0.000 A 
ATOM      9  C   UNL     1       3.590   4.184  17.134  0.00  0.00    +0.000 A 
ATOM     10  N   UNL     1       2.716   4.909  17.827  0.00  0.00    +0.000 NA
ATOM     11  N   UNL     1       3.247   6.153  17.843  0.00  0.00    +0.000 N 
ATOM     12  H   UNL     1       5.206   8.134  17.530  0.00  0.00    +0.000 HD
ENDROOT
BRANCH  11  13
ATOM     13  C   UNL     1       2.533   7.234  18.420  0.00  0.00    +0.000 A 
ATOM     14  C   UNL     1       2.195   7.178  19.783  0.00  0.00    +0.000 A 
ATOM     15  C   UNL     1       1.539   8.253  20.381  0.00  0.00    +0.000 A 
ATOM     16  C   UNL     1       1.188   9.356  19.612  0.00  0.00    +0.000 A 
ATOM     17  F   UNL     1       0.548  10.384  20.184  0.00  0.00    +0.000 F 
ATOM     18  C   UNL     1       1.479   9.404  18.252  0.00  0.00    +0.000 A 
ATOM     19  C   UNL     1       2.155   8.341  17.649  0.00  0.00    +0.000 A 
ENDBRANCH  11  13
BRANCH   1  21
ATOM     20  C   UNL     1       7.245   5.139  13.942  0.00  0.00    +0.000 C 
ATOM     21  C   UNL     1       5.889   4.743  14.535  0.00  0.00    +0.000 C 
ATOM     22  C   UNL     1       5.247   3.658  13.656  0.00  0.00    +0.000 C 
ENDBRANCH   1  21
TORSDOF 2
ENDMDL
MODEL 5
REMARK VINA RESULT:      -7.3      0.957      1.017
REMARK  Name = 
REMARK  4 active torsions:
REMARK  status: ('A' for Active; 'I' for Inactive)
REMARK    1  A    between atoms: C_1  and  C_2
REMARK    2  A    between atoms: C_2  and  C_3
REMARK    3  A    between atoms: C_2  and  C_4
REMARK    4  A    between atoms: N_14  and  C_15
REMARK                            x       y       z     vdW  Elec       q    Type
REMARK                         _______ _______ _______ _____ _____    ______ ____
ROOT
ATOM      1  C   UNL     1       3.980   5.178  17.646  0.00  0.00    +0.000 C 
ATOM      2  S   UNL     1       3.004   3.657  17.357  0.00  0.00    +0.000 S 
ATOM      3  C   UNL     1       1.398   4.036  18.083  0.00  0.00    +0.000 C 
ATOM      4  C   UNL     1       1.476   4.320  19.558  0.00  0.00    +0.000 C 
ATOM      5  O   UNL     1       1.121   3.553  20.441  0.00  0.00    +0.000 OA
ATOM      6  N   UNL     1       1.844   5.625  20.004  0.00  0.00    +0.000 N 
ATOM      7  C   UNL     1       2.364   6.601  19.171  0.00  0.00    +0.000 A 
ATOM      8  C   UNL     1       3.218   6.389  18.101  0.00  0.00    +0.000 A 
ATOM      9  C   UNL     1       3.303   7.666  17.495  0.00  0.00    +0.000 A 
ATOM     10  N   UNL     1       2.552   8.584  18.097  0.00  0.00    +0.000 NA
ATOM     11  N   UNL     1       2.095   7.968  19.211  0.00  0.00    +0.000 N 
ATOM     12  H   UNL     1       1.533   5.836  20.943  0.00  0.00    +0.000 HD
ENDROOT
BRANCH  11  13
ATOM     13  C   UNL     1       1.325   8.682  20.165  0.00  0.00    +0.000 A 
ATOM     14  C   UNL     1       0.433   9.671  19.719  0.00  0.00    +0.000 A 
ATOM     15  C   UNL     1      -0.370  10.348  20.638  0.00  0.00    +0.000 A 
ATOM     16  C   UNL     1      -0.249  10.065  21.994  0.00  0.00    +0.000 A 
ATOM     17  F   UNL     1      -1.012  10.723  22.876  0.00  0.00    +0.000 F 
ATOM     18  C   UNL     1       0.662   9.118  22.450  0.00  0.00    +0.000 A 
ATOM     19  C   UNL     1       1.455   8.420  21.536  0.00  0.00    +0.000 A 
ENDBRANCH  11  13
BRANCH   1  21
ATOM     20  C   UNL     1       5.199   3.765  19.467  0.00  0.00    +0.000 C 
ATOM     21  C   UNL     1       5.278   4.929  18.475  0.00  0.00    +0.000 C 
ATOM     22  C   UNL     1       6.503   4.740  17.566  0.00  0.00    +0.000 C 
ENDBRANCH   1  21
TORSDOF 2
ENDMDL
MODEL 6
REMARK VINA RESULT:      -7.1      3.004      4.345
REMARK  Name = 
REMARK  4 active torsions:
REMARK  status: ('A' for Active; 'I' for Inactive)
REMARK    1  A    between atoms: C_1  and  C_2
REMARK    2  A    between atoms: C_2  and  C_3
REMARK    3  A    between atoms: C_2  and  C_4
REMARK    4  A    between atoms: N_14  and  C_15
REMARK                            x       y       z     vdW  Elec       q    Type
REMARK                         _______ _______ _______ _____ _____    ______ ____
ROOT
ATOM      1  C   UNL     1       6.145   4.076  16.946  0.00  0.00    +0.000 C 
ATOM      2  S   UNL     1       7.827   4.553  17.488  0.00  0.00    +0.000 S 
ATOM      3  C   UNL     1       7.553   6.036  18.476  0.00  0.00    +0.000 C 
ATOM      4  C   UNL     1       6.934   7.157  17.688  0.00  0.00    +0.000 C 
ATOM      5  O   UNL     1       7.526   8.150  17.295  0.00  0.00    +0.000 OA
ATOM      6  N   UNL     1       5.520   7.180  17.492  0.00  0.00    +0.000 N 
ATOM      7  C   UNL     1       4.688   6.111  17.782  0.00  0.00    +0.000 A 
ATOM      8  C   UNL     1       5.000   4.771  17.625  0.00  0.00    +0.000 A 
ATOM      9  C   UNL     1       3.896   4.109  18.218  0.00  0.00    +0.000 A 
ATOM     10  N   UNL     1       2.997   4.944  18.731  0.00  0.00    +0.000 NA
ATOM     11  N   UNL     1       3.409   6.169  18.332  0.00  0.00    +0.000 N 
ATOM     12  H   UNL     1       5.153   8.100  17.287  0.00  0.00    +0.000 HD
ENDROOT
BRANCH  11  13
ATOM     13  C   UNL     1       2.628   7.319  18.615  0.00  0.00    +0.000 A 
ATOM     14  C   UNL     1       2.396   8.254  17.593  0.00  0.00    +0.000 A 
ATOM     15  C   UNL     1       1.588   9.365  17.838  0.00  0.00    +0.000 A 
ATOM     16  C   UNL     1       1.054   9.559  19.106  0.00  0.00    +0.000 A 
ATOM     17  F   UNL     1       0.287  10.631  19.344  0.00  0.00    +0.000 F 
ATOM     18  C   UNL     1       1.313   8.662  20.138  0.00  0.00    +0.000 A 
ATOM     19  C   UNL     1       2.103   7.535  19.897  0.00  0.00    +0.000 A 
ENDBRANCH  11  13
BRANCH   1  21
ATOM     20  C   UNL     1       4.624   4.467  14.865  0.00  0.00    +0.000 C 
ATOM     21  C   UNL     1       5.989   4.018  15.396  0.00  0.00    +0.000 C 
ATOM     22  C   UNL     1       7.097   4.812  14.685  0.00  0.00    +0.000 C 
ENDBRANCH   1  21
TORSDOF 2
ENDMDL
MODEL 7
REMARK VINA RESULT:      -7.1      1.245      1.916
REMARK  Name = 
REMARK  4 active torsions:
REMARK  status: ('A' for Active; 'I' for Inactive)
REMARK    1  A    between atoms: C_1  and  C_2
REMARK    2  A    between atoms: C_2  and  C_3
REMARK    3  A    between atoms: C_2  and  C_4
REMARK    4  A    between atoms: N_14  and  C_15
REMARK                            x       y       z     vdW  Elec       q    Type
REMARK                         _______ _______ _______ _____ _____    ______ ____
ROOT
ATOM      1  C   UNL     1       3.941   4.581  17.697  0.00  0.00    +0.000 C 
ATOM      2  S   UNL     1       2.811   3.168  17.420  0.00  0.00    +0.000 S 
ATOM      3  C   UNL     1       1.230   3.754  18.058  0.00  0.00    +0.000 C 
ATOM      4  C   UNL     1       1.279   4.089  19.523  0.00  0.00    +0.000 C 
ATOM      5  O   UNL     1       0.803   3.405  20.416  0.00  0.00    +0.000 OA
ATOM      6  N   UNL     1       1.774   5.362  19.937  0.00  0.00    +0.000 N 
ATOM      7  C   UNL     1       2.435   6.238  19.092  0.00  0.00    +0.000 A 
ATOM      8  C   UNL     1       3.303   5.887  18.071  0.00  0.00    +0.000 A 
ATOM      9  C   UNL     1       3.558   7.121  17.422  0.00  0.00    +0.000 A 
ATOM     10  N   UNL     1       2.891   8.142  17.955  0.00  0.00    +0.000 NA
ATOM     11  N   UNL     1       2.322   7.628  19.069  0.00  0.00    +0.000 N 
ATOM     12  H   UNL     1       1.451   5.647  20.852  0.00  0.00    +0.000 HD
ENDROOT
BRANCH  11  13
ATOM     13  C   UNL     1       1.600   8.462  19.960  0.00  0.00    +0.000 A 
ATOM     14  C   UNL     1       1.600   8.158  21.331  0.00  0.00    +0.000 A 
ATOM     15  C   UNL     1       0.939   8.996  22.230  0.00  0.00    +0.000 A 
ATOM     16  C   UNL     1       0.249  10.104  21.753  0.00  0.00    +0.000 A 
ATOM     17  F   UNL     1      -0.394  10.903  22.615  0.00  0.00    +0.000 F 
ATOM     18  C   UNL     1       0.206  10.391  20.393  0.00  0.00    +0.000 A 
ATOM     19  C   UNL     1       0.883   9.570  19.488  0.00  0.00    +0.000 A 
ENDBRANCH  11  13
BRANCH   1  21
ATOM     20  C   UNL     1       5.871   5.424  19.235  0.00  0.00    +0.000 C 
ATOM     21  C   UNL     1       5.167   4.224  18.593  0.00  0.00    +0.000 C 
ATOM     22  C   UNL     1       4.794   3.210  19.686  0.00  0.00    +0.000 C 
ENDBRANCH   1  21
TORSDOF 2
ENDMDL
MODEL 8
REMARK VINA RESULT:      -7.1      5.110      7.956
REMARK  Name = 
REMARK  4 active torsions:
REMARK  status: ('A' for Active; 'I' for Inactive)
REMARK    1  A    between atoms: C_1  and  C_2
REMARK    2  A    between atoms: C_2  and  C_3
REMARK    3  A    between atoms: C_2  and  C_4
REMARK    4  A    between atoms: N_14  and  C_15
REMARK                            x       y       z     vdW  Elec       q    Type
REMARK                         _______ _______ _______ _____ _____    ______ ____
ROOT
ATOM      1  C   UNL     1       4.030   4.766  19.928  0.00  0.00    +0.000 C 
ATOM      2  S   UNL     1       3.260   3.165  20.369  0.00  0.00    +0.000 S 
ATOM      3  C   UNL     1       3.658   2.100  18.971  0.00  0.00    +0.000 C 
ATOM      4  C   UNL     1       3.087   2.601  17.673  0.00  0.00    +0.000 C 
ATOM      5  O   UNL     1       2.118   2.125  17.102  0.00  0.00    +0.000 OA
ATOM      6  N   UNL     1       3.784   3.610  16.941  0.00  0.00    +0.000 N 
ATOM      7  C   UNL     1       4.845   4.335  17.456  0.00  0.00    +0.000 A 
ATOM      8  C   UNL     1       4.984   4.755  18.769  0.00  0.00    +0.000 A 
ATOM      9  C   UNL     1       6.296   5.290  18.802  0.00  0.00    +0.000 A 
ATOM     10  N   UNL     1       6.935   5.185  17.640  0.00  0.00    +0.000 NA
ATOM     11  N   UNL     1       5.994   4.736  16.777  0.00  0.00    +0.000 N 
ATOM     12  H   UNL     1       3.551   3.631  15.957  0.00  0.00    +0.000 HD
ENDROOT
BRANCH  11  13
ATOM     13  C   UNL     1       6.291   4.595  15.397  0.00  0.00    +0.000 A 
ATOM     14  C   UNL     1       7.380   5.299  14.858  0.00  0.00    +0.000 A 
ATOM     15  C   UNL     1       7.719   5.133  13.515  0.00  0.00    +0.000 A 
ATOM     16  C   UNL     1       6.949   4.302  12.711  0.00  0.00    +0.000 A 
ATOM     17  F   UNL     1       7.268   4.151  11.419  0.00  0.00    +0.000 F 
ATOM     18  C   UNL     1       5.842   3.634  13.223  0.00  0.00    +0.000 A 
ATOM     19  C   UNL     1       5.507   3.776  14.572  0.00  0.00    +0.000 A 
ENDBRANCH  11  13
BRANCH   1  21
ATOM     20  C   UNL     1       2.781   6.529  18.470  0.00  0.00    +0.000 C 
ATOM     21  C   UNL     1       3.011   5.945  19.867  0.00  0.00    +0.000 C 
ATOM     22  C   UNL     1       1.658   5.557  20.485  0.00  0.00    +0.000 C 
ENDBRANCH   1  21
TORSDOF 2
ENDMDL
MODEL 9
REMARK VINA RESULT:      -7.0      5.048      7.931
REMARK  Name = 
REMARK  4 active torsions:
REMARK  status: ('A' for Active; 'I' for Inactive)
REMARK    1  A    between atoms: C_1  and  C_2
REMARK    2  A    between atoms: C_2  and  C_3
REMARK    3  A    between atoms: C_2  and  C_4
REMARK    4  A    between atoms: N_14  and  C_15
REMARK                            x       y       z     vdW  Elec       q    Type
REMARK                         _______ _______ _______ _____ _____    ______ ____
ROOT
ATOM      1  C   UNL     1       3.938   4.898  19.894  0.00  0.00    +0.000 C 
ATOM      2  S   UNL     1       3.167   3.305  20.361  0.00  0.00    +0.000 S 
ATOM      3  C   UNL     1       3.611   2.203  19.005  0.00  0.00    +0.000 C 
ATOM      4  C   UNL     1       3.072   2.661  17.679  0.00  0.00    +0.000 C 
ATOM      5  O   UNL     1       2.122   2.160  17.095  0.00  0.00    +0.000 OA
ATOM      6  N   UNL     1       3.781   3.653  16.936  0.00  0.00    +0.000 N 
ATOM      7  C   UNL     1       4.823   4.401  17.458  0.00  0.00    +0.000 A 
ATOM      8  C   UNL     1       4.923   4.861  18.761  0.00  0.00    +0.000 A 
ATOM      9  C   UNL     1       6.230   5.406  18.814  0.00  0.00    +0.000 A 
ATOM     10  N   UNL     1       6.901   5.272  17.673  0.00  0.00    +0.000 NA
ATOM     11  N   UNL     1       5.987   4.792  16.799  0.00  0.00    +0.000 N 
ATOM     12  H   UNL     1       3.576   3.643  15.946  0.00  0.00    +0.000 HD
ENDROOT
BRANCH  11  13
ATOM     13  C   UNL     1       6.323   4.612  15.432  0.00  0.00    +0.000 A 
ATOM     14  C   UNL     1       5.527   3.768  14.641  0.00  0.00    +0.000 A 
ATOM     15  C   UNL     1       5.810   3.619  13.282  0.00  0.00    +0.000 A 
ATOM     16  C   UNL     1       6.904   4.277  12.733  0.00  0.00    +0.000 A 
ATOM     17  F   UNL     1       7.182   4.125  11.432  0.00  0.00    +0.000 F 
ATOM     18  C   UNL     1       7.724   5.081  13.518  0.00  0.00    +0.000 A 
ATOM     19  C   UNL     1       7.437   5.254  14.874  0.00  0.00    +0.000 A 
ENDBRANCH  11  13
BRANCH   1  21
ATOM     20  C   UNL     1       2.598   6.502  18.336  0.00  0.00    +0.000 C 
ATOM     21  C   UNL     1       2.913   6.067  19.770  0.00  0.00    +0.000 C 
ATOM     22  C   UNL     1       1.600   5.749  20.504  0.00  0.00    +0.000 C 
ENDBRANCH   1  21
TORSDOF 2
ENDMDL
