MODEL 1
REMARK VINA RESULT:      -8.0      0.000      0.000
REMARK  Name = 
REMARK  6 active torsions:
REMARK  status: ('A' for Active; 'I' for Inactive)
REMARK    1  A    between atoms: C_1  and  C_2
REMARK    2  A    between atoms: C_6  and  C_7
REMARK    3  A    between atoms: C_16  and  N_17
REMARK    4  A    between atoms: N_17  and  C_18
REMARK    5  A    between atoms: C_18  and  C_19
REMARK    6  A    between atoms: C_22  and  C_23
REMARK                            x       y       z     vdW  Elec       q    Type
REMARK                         _______ _______ _______ _____ _____    ______ ____
ROOT
ATOM      1  C   UNL     1       7.081   4.992  16.387  0.00  0.00    +0.000 A 
ATOM      2  N   UNL     1       7.783   5.390  15.267  0.00  0.00    +0.000 NA
ATOM      3  C   UNL     1       7.149   4.862  14.250  0.00  0.00    +0.000 A 
ATOM      4  C   UNL     1       7.422   4.949  12.854  0.00  0.00    +0.000 A 
ATOM      5  C   UNL     1       6.620   4.334  11.963  0.00  0.00    +0.000 A 
ATOM      6  C   UNL     1       5.469   3.573  12.397  0.00  0.00    +0.000 A 
ATOM      7 BR   UNL     1       4.392   2.747  11.123  0.00  0.00    +0.000 Br
ATOM      8  C   UNL     1       5.210   3.488  13.709  0.00  0.00    +0.000 A 
ATOM      9  N   UNL     1       6.036   4.120  14.648  0.00  0.00    +0.000 N 
ATOM     10  C   UNL     1       5.991   4.188  16.053  0.00  0.00    +0.000 A 
ENDROOT
BRANCH   1  16
ATOM     11  C   UNL     1       7.646   8.080  17.394  0.00  0.00    +0.000 C 
ATOM     12  C   UNL     1       7.747   6.784  18.105  0.00  0.00    +0.000 A 
ATOM     13  N   UNL     1       8.091   6.693  19.431  0.00  0.00    +0.000 N 
ATOM     14  C   UNL     1       8.076   5.371  19.774  0.00  0.00    +0.000 A 
ATOM     15  N   UNL     1       7.741   4.605  18.758  0.00  0.00    +0.000 NA
ATOM     16  C   UNL     1       7.525   5.475  17.706  0.00  0.00    +0.000 A 
ATOM     17  H   UNL     1       8.299   7.464  20.049  0.00  0.00    +0.000 HD
ENDBRANCH   1  16
BRANCH  10  18
ATOM     18  N   UNL     1       5.055   3.588  16.860  0.00  0.00    +0.000 N 
ATOM     19  H   UNL     1       5.366   2.850  17.498  0.00  0.00    +0.000 HD
BRANCH  18  20
ATOM     20  C   UNL     1       3.656   3.930  16.862  0.00  0.00    +0.000 C 
BRANCH  20  21
ATOM     21  C   UNL     1       3.237   4.939  17.888  0.00  0.00    +0.000 A 
ATOM     22  C   UNL     1       3.334   6.309  17.615  0.00  0.00    +0.000 A 
ATOM     23  C   UNL     1       2.827   7.238  18.520  0.00  0.00    +0.000 A 
ATOM     24  C   UNL     1       2.224   6.800  19.704  0.00  0.00    +0.000 A 
ATOM     25  C   UNL     1       2.112   5.433  19.974  0.00  0.00    +0.000 A 
ATOM     26  C   UNL     1       2.623   4.507  19.071  0.00  0.00    +0.000 A 
BRANCH  24  27
ATOM     27  C   UNL     1       1.717   7.751  20.640  0.00  0.00    +0.000 C 
ATOM     28  N   UNL     1       1.309   8.529  21.403  0.00  0.00    +0.000 NA
ENDBRANCH  24  27
ENDBRANCH  20  21
ENDBRANCH  18  20
ENDBRANCH  10  18
TORSDOF 5
ENDMDL
MODEL 2
REMARK VINA RESULT:      -7.9      1.922      2.207
REMARK  Name = 
REMARK  6 active torsions:
REMARK  status: ('A' for Active; 'I' for Inactive)
REMARK    1  A    between atoms: C_1  and  C_2
REMARK    2  A    between atoms: C_6  and  C_7
REMARK    3  A    between atoms: C_16  and  N_17
REMARK    4  A    between atoms: N_17  and  C_18
REMARK    5  A    between atoms: C_18  and  C_19
REMARK    6  A    between atoms: C_22  and  C_23
REMARK                            x       y       z     vdW  Elec       q    Type
REMARK                         _______ _______ _______ _____ _____    ______ ____
ROOT
ATOM      1  C   UNL     1       7.133   5.002  16.286  0.00  0.00    +0.000 A 
ATOM      2  N   UNL     1       7.861   5.410  15.188  0.00  0.00    +0.000 NA
ATOM      3  C   UNL     1       7.261   4.877  14.152  0.00  0.00    +0.000 A 
ATOM      4  C   UNL     1       7.573   4.970  12.765  0.00  0.00    +0.000 A 
ATOM      5  C   UNL     1       6.803   4.348  11.851  0.00  0.00    +0.000 A 
ATOM      6  C   UNL     1       5.649   3.574  12.251  0.00  0.00    +0.000 A 
ATOM      7 BR   UNL     1       4.617   2.738  10.946  0.00  0.00    +0.000 Br
ATOM      8  C   UNL     1       5.354   3.483  13.555  0.00  0.00    +0.000 A 
ATOM      9  N   UNL     1       6.147   4.122  14.518  0.00  0.00    +0.000 N 
ATOM     10  C   UNL     1       6.061   4.186  15.921  0.00  0.00    +0.000 A 
ENDROOT
BRANCH   1  16
ATOM     11  C   UNL     1       7.664   8.092  17.307  0.00  0.00    +0.000 C 
ATOM     12  C   UNL     1       7.743   6.796  18.023  0.00  0.00    +0.000 A 
ATOM     13  N   UNL     1       8.045   6.708  19.359  0.00  0.00    +0.000 N 
ATOM     14  C   UNL     1       8.019   5.387  19.703  0.00  0.00    +0.000 A 
ATOM     15  N   UNL     1       7.718   4.619  18.678  0.00  0.00    +0.000 NA
ATOM     16  C   UNL     1       7.534   5.487  17.618  0.00  0.00    +0.000 A 
ATOM     17  H   UNL     1       8.233   7.480  19.982  0.00  0.00    +0.000 HD
ENDBRANCH   1  16
BRANCH  10  18
ATOM     18  N   UNL     1       5.111   3.574  16.701  0.00  0.00    +0.000 N 
ATOM     19  H   UNL     1       5.361   2.703  17.177  0.00  0.00    +0.000 HD
BRANCH  18  20
ATOM     20  C   UNL     1       3.775   4.080  16.886  0.00  0.00    +0.000 C 
BRANCH  20  21
ATOM     21  C   UNL     1       3.143   3.768  18.209  0.00  0.00    +0.000 A 
ATOM     22  C   UNL     1       1.774   3.985  18.409  0.00  0.00    +0.000 A 
ATOM     23  C   UNL     1       1.169   3.575  19.594  0.00  0.00    +0.000 A 
ATOM     24  C   UNL     1       1.932   2.950  20.586  0.00  0.00    +0.000 A 
ATOM     25  C   UNL     1       3.295   2.718  20.386  0.00  0.00    +0.000 A 
ATOM     26  C   UNL     1       3.899   3.132  19.203  0.00  0.00    +0.000 A 
BRANCH  24  27
ATOM     27  C   UNL     1       1.316   2.544  21.809  0.00  0.00    +0.000 C 
ATOM     28  N   UNL     1       0.810   2.215  22.803  0.00  0.00    +0.000 NA
ENDBRANCH  24  27
ENDBRANCH  20  21
ENDBRANCH  18  20
ENDBRANCH  10  18
TORSDOF 5
ENDMDL
MODEL 3
REMARK VINA RESULT:      -7.6      0.930      1.376
REMARK  Name = 
REMARK  6 active torsions:
REMARK  status: ('A' for Active; 'I' for Inactive)
REMARK    1  A    between atoms: C_1  and  C_2
REMARK    2  A    between atoms: C_6  and  C_7
REMARK    3  A    between atoms: C_16  and  N_17
REMARK    4  A    between atoms: N_17  and  C_18
REMARK    5  A    between atoms: C_18  and  C_19
REMARK    6  A    between atoms: C_22  and  C_23
REMARK                            x       y       z     vdW  Elec       q    Type
REMARK                         _______ _______ _______ _____ _____    ______ ____
ROOT
ATOM      1  C   UNL     1       7.072   5.036  16.299  0.00  0.00    +0.000 A 
ATOM      2  N   UNL     1       7.816   5.327  15.174  0.00  0.00    +0.000 NA
ATOM      3  C   UNL     1       7.124   4.859  14.165  0.00  0.00    +0.000 A 
ATOM      4  C   UNL     1       7.406   4.888  12.769  0.00  0.00    +0.000 A 
ATOM      5  C   UNL     1       6.536   4.355  11.888  0.00  0.00    +0.000 A 
ATOM      6  C   UNL     1       5.305   3.743  12.333  0.00  0.00    +0.000 A 
ATOM      7 BR   UNL     1       4.137   3.025  11.072  0.00  0.00    +0.000 Br
ATOM      8  C   UNL     1       5.037   3.713  13.646  0.00  0.00    +0.000 A 
ATOM      9  N   UNL     1       5.932   4.260  14.575  0.00  0.00    +0.000 N 
ATOM     10  C   UNL     1       5.895   4.359  15.978  0.00  0.00    +0.000 A 
ENDROOT
BRANCH   1  16
ATOM     11  C   UNL     1       7.632   8.101  17.374  0.00  0.00    +0.000 C 
ATOM     12  C   UNL     1       7.789   6.787  18.039  0.00  0.00    +0.000 A 
ATOM     13  N   UNL     1       8.197   6.663  19.344  0.00  0.00    +0.000 N 
ATOM     14  C   UNL     1       8.220   5.331  19.647  0.00  0.00    +0.000 A 
ATOM     15  N   UNL     1       7.851   4.590  18.624  0.00  0.00    +0.000 NA
ATOM     16  C   UNL     1       7.570   5.487  17.610  0.00  0.00    +0.000 A 
ATOM     17  H   UNL     1       8.421   7.419  19.975  0.00  0.00    +0.000 HD
ENDBRANCH   1  16
BRANCH  10  18
ATOM     18  N   UNL     1       4.896   3.888  16.794  0.00  0.00    +0.000 N 
ATOM     19  H   UNL     1       4.280   3.154  16.433  0.00  0.00    +0.000 HD
BRANCH  18  20
ATOM     20  C   UNL     1       4.655   4.367  18.131  0.00  0.00    +0.000 C 
BRANCH  20  21
ATOM     21  C   UNL     1       3.785   5.583  18.235  0.00  0.00    +0.000 A 
ATOM     22  C   UNL     1       2.850   5.698  19.271  0.00  0.00    +0.000 A 
ATOM     23  C   UNL     1       2.135   6.882  19.437  0.00  0.00    +0.000 A 
ATOM     24  C   UNL     1       2.350   7.954  18.564  0.00  0.00    +0.000 A 
ATOM     25  C   UNL     1       3.292   7.849  17.537  0.00  0.00    +0.000 A 
ATOM     26  C   UNL     1       4.002   6.664  17.371  0.00  0.00    +0.000 A 
BRANCH  24  27
ATOM     27  C   UNL     1       1.607   9.162  18.723  0.00  0.00    +0.000 C 
ATOM     28  N   UNL     1       1.000  10.147  18.848  0.00  0.00    +0.000 NA
ENDBRANCH  24  27
ENDBRANCH  20  21
ENDBRANCH  18  20
ENDBRANCH  10  18
TORSDOF 5
ENDMDL
MODEL 4
REMARK VINA RESULT:      -7.5      3.670      5.627
REMARK  Name = 
REMARK  6 active torsions:
REMARK  status: ('A' for Active; 'I' for Inactive)
REMARK    1  A    between atoms: C_1  and  C_2
REMARK    2  A    between atoms: C_6  and  C_7
REMARK    3  A    between atoms: C_16  and  N_17
REMARK    4  A    between atoms: N_17  and  C_18
REMARK    5  A    between atoms: C_18  and  C_19
REMARK    6  A    between atoms: C_22  and  C_23
REMARK                            x       y       z     vdW  Elec       q    Type
REMARK                         _______ _______ _______ _____ _____    ______ ____
ROOT
ATOM      1  C   UNL     1       3.468   4.304  18.733  0.00  0.00    +0.000 A 
ATOM      2  N   UNL     1       4.723   3.792  18.990  0.00  0.00    +0.000 NA
ATOM      3  C   UNL     1       5.562   4.748  18.679  0.00  0.00    +0.000 A 
ATOM      4  C   UNL     1       6.985   4.780  18.753  0.00  0.00    +0.000 A 
ATOM      5  C   UNL     1       7.661   5.888  18.394  0.00  0.00    +0.000 A 
ATOM      6  C   UNL     1       6.967   7.067  17.926  0.00  0.00    +0.000 A 
ATOM      7 BR   UNL     1       7.950   8.573  17.446  0.00  0.00    +0.000 Br
ATOM      8  C   UNL     1       5.629   7.040  17.853  0.00  0.00    +0.000 A 
ATOM      9  N   UNL     1       4.911   5.894  18.220  0.00  0.00    +0.000 N 
ATOM     10  C   UNL     1       3.533   5.607  18.239  0.00  0.00    +0.000 A 
ENDROOT
BRANCH   1  16
ATOM     11  C   UNL     1       2.083   3.630  21.648  0.00  0.00    +0.000 C 
ATOM     12  C   UNL     1       1.724   3.210  20.272  0.00  0.00    +0.000 A 
ATOM     13  N   UNL     1       0.627   2.431  20.000  0.00  0.00    +0.000 N 
ATOM     14  C   UNL     1       0.576   2.245  18.649  0.00  0.00    +0.000 A 
ATOM     15  N   UNL     1       1.566   2.854  18.032  0.00  0.00    +0.000 NA
ATOM     16  C   UNL     1       2.291   3.470  19.034  0.00  0.00    +0.000 A 
ATOM     17  H   UNL     1      -0.036   2.076  20.674  0.00  0.00    +0.000 HD
ENDBRANCH   1  16
BRANCH  10  18
ATOM     18  N   UNL     1       2.526   6.459  17.857  0.00  0.00    +0.000 N 
ATOM     19  H   UNL     1       1.663   6.054  17.485  0.00  0.00    +0.000 HD
BRANCH  18  20
ATOM     20  C   UNL     1       2.611   7.894  17.942  0.00  0.00    +0.000 C 
BRANCH  20  21
ATOM     21  C   UNL     1       1.937   8.512  19.129  0.00  0.00    +0.000 A 
ATOM     22  C   UNL     1       1.280   9.744  19.010  0.00  0.00    +0.000 A 
ATOM     23  C   UNL     1       0.549  10.252  20.081  0.00  0.00    +0.000 A 
ATOM     24  C   UNL     1       0.475   9.531  21.278  0.00  0.00    +0.000 A 
ATOM     25  C   UNL     1       1.116   8.295  21.397  0.00  0.00    +0.000 A 
ATOM     26  C   UNL     1       1.850   7.792  20.328  0.00  0.00    +0.000 A 
BRANCH  24  27
ATOM     27  C   UNL     1      -0.261  10.058  22.382  0.00  0.00    +0.000 C 
ATOM     28  N   UNL     1      -0.864  10.484  23.281  0.00  0.00    +0.000 NA
ENDBRANCH  24  27
ENDBRANCH  20  21
ENDBRANCH  18  20
ENDBRANCH  10  18
TORSDOF 5
ENDMDL
MODEL 5
REMARK VINA RESULT:      -7.5      3.205      5.752
REMARK  Name = 
REMARK  6 active torsions:
REMARK  status: ('A' for Active; 'I' for Inactive)
REMARK    1  A    between atoms: C_1  and  C_2
REMARK    2  A    between atoms: C_6  and  C_7
REMARK    3  A    between atoms: C_16  and  N_17
REMARK    4  A    between atoms: N_17  and  C_18
REMARK    5  A    between atoms: C_18  and  C_19
REMARK    6  A    between atoms: C_22  and  C_23
REMARK                            x       y       z     vdW  Elec       q    Type
REMARK                         _______ _______ _______ _____ _____    ______ ____
ROOT
ATOM      1  C   UNL     1       3.366   4.289  18.610  0.00  0.00    +0.000 A 
ATOM      2  N   UNL     1       4.373   3.700  17.874  0.00  0.00    +0.000 NA
ATOM      3  C   UNL     1       5.275   4.635  17.702  0.00  0.00    +0.000 A 
ATOM      4  C   UNL     1       6.528   4.586  17.025  0.00  0.00    +0.000 A 
ATOM      5  C   UNL     1       7.322   5.674  16.982  0.00  0.00    +0.000 A 
ATOM      6  C   UNL     1       6.925   6.912  17.615  0.00  0.00    +0.000 A 
ATOM      7 BR   UNL     1       8.061   8.384  17.528  0.00  0.00    +0.000 Br
ATOM      8  C   UNL     1       5.746   6.961  18.251  0.00  0.00    +0.000 A 
ATOM      9  N   UNL     1       4.909   5.840  18.302  0.00  0.00    +0.000 N 
ATOM     10  C   UNL     1       3.648   5.627  18.891  0.00  0.00    +0.000 A 
ENDROOT
BRANCH   1  16
ATOM     11  C   UNL     1       2.237   3.624  21.635  0.00  0.00    +0.000 C 
ATOM     12  C   UNL     1       1.755   3.209  20.296  0.00  0.00    +0.000 A 
ATOM     13  N   UNL     1       0.632   2.440  20.121  0.00  0.00    +0.000 N 
ATOM     14  C   UNL     1       0.460   2.256  18.779  0.00  0.00    +0.000 A 
ATOM     15  N   UNL     1       1.397   2.857  18.079  0.00  0.00    +0.000 NA
ATOM     16  C   UNL     1       2.214   3.466  19.013  0.00  0.00    +0.000 A 
ATOM     17  H   UNL     1       0.027   2.090  20.851  0.00  0.00    +0.000 HD
ENDBRANCH   1  16
BRANCH  10  18
ATOM     18  N   UNL     1       2.913   6.558  19.583  0.00  0.00    +0.000 N 
ATOM     19  H   UNL     1       2.841   6.461  20.600  0.00  0.00    +0.000 HD
BRANCH  18  20
ATOM     20  C   UNL     1       2.228   7.664  18.965  0.00  0.00    +0.000 C 
BRANCH  20  21
ATOM     21  C   UNL     1       1.390   8.500  19.883  0.00  0.00    +0.000 A 
ATOM     22  C   UNL     1       1.192   8.111  21.214  0.00  0.00    +0.000 A 
ATOM     23  C   UNL     1       0.519   8.954  22.094  0.00  0.00    +0.000 A 
ATOM     24  C   UNL     1       0.039  10.189  21.646  0.00  0.00    +0.000 A 
ATOM     25  C   UNL     1       0.246  10.589  20.324  0.00  0.00    +0.000 A 
ATOM     26  C   UNL     1       0.914   9.743  19.444  0.00  0.00    +0.000 A 
BRANCH  24  27
ATOM     27  C   UNL     1      -0.665  11.048  22.544  0.00  0.00    +0.000 C 
ATOM     28  N   UNL     1      -1.236  11.745  23.280  0.00  0.00    +0.000 NA
ENDBRANCH  24  27
ENDBRANCH  20  21
ENDBRANCH  18  20
ENDBRANCH  10  18
TORSDOF 5
ENDMDL
MODEL 6
REMARK VINA RESULT:      -7.4      3.457      5.797
REMARK  Name = 
REMARK  6 active torsions:
REMARK  status: ('A' for Active; 'I' for Inactive)
REMARK    1  A    between atoms: C_1  and  C_2
REMARK    2  A    between atoms: C_6  and  C_7
REMARK    3  A    between atoms: C_16  and  N_17
REMARK    4  A    between atoms: N_17  and  C_18
REMARK    5  A    between atoms: C_18  and  C_19
REMARK    6  A    between atoms: C_22  and  C_23
REMARK                            x       y       z     vdW  Elec       q    Type
REMARK                         _______ _______ _______ _____ _____    ______ ____
ROOT
ATOM      1  C   UNL     1       3.440   4.335  18.632  0.00  0.00    +0.000 A 
ATOM      2  N   UNL     1       4.639   3.694  18.394  0.00  0.00    +0.000 NA
ATOM      3  C   UNL     1       5.507   4.648  18.164  0.00  0.00    +0.000 A 
ATOM      4  C   UNL     1       6.899   4.570  17.871  0.00  0.00    +0.000 A 
ATOM      5  C   UNL     1       7.620   5.692  17.682  0.00  0.00    +0.000 A 
ATOM      6  C   UNL     1       7.004   6.997  17.771  0.00  0.00    +0.000 A 
ATOM      7 BR   UNL     1       8.047   8.517  17.506  0.00  0.00    +0.000 Br
ATOM      8  C   UNL     1       5.694   7.075  18.045  0.00  0.00    +0.000 A 
ATOM      9  N   UNL     1       4.931   5.917  18.241  0.00  0.00    +0.000 N 
ATOM     10  C   UNL     1       3.568   5.721  18.534  0.00  0.00    +0.000 A 
ENDROOT
BRANCH   1  16
ATOM     11  C   UNL     1       2.124   3.723  21.592  0.00  0.00    +0.000 C 
ATOM     12  C   UNL     1       1.725   3.286  20.233  0.00  0.00    +0.000 A 
ATOM     13  N   UNL     1       0.612   2.517  20.002  0.00  0.00    +0.000 N 
ATOM     14  C   UNL     1       0.523   2.311  18.655  0.00  0.00    +0.000 A 
ATOM     15  N   UNL     1       1.503   2.898  18.003  0.00  0.00    +0.000 NA
ATOM     16  C   UNL     1       2.262   3.521  18.977  0.00  0.00    +0.000 A 
ATOM     17  H   UNL     1      -0.038   2.180  20.697  0.00  0.00    +0.000 HD
ENDBRANCH   1  16
BRANCH  10  18
ATOM     18  N   UNL     1       2.626   6.708  18.690  0.00  0.00    +0.000 N 
ATOM     19  H   UNL     1       2.217   7.126  17.850  0.00  0.00    +0.000 HD
BRANCH  18  20
ATOM     20  C   UNL     1       2.180   7.200  19.968  0.00  0.00    +0.000 C 
BRANCH  20  21
ATOM     21  C   UNL     1       1.394   8.475  19.932  0.00  0.00    +0.000 A 
ATOM     22  C   UNL     1       1.305   9.219  18.748  0.00  0.00    +0.000 A 
ATOM     23  C   UNL     1       0.471  10.333  18.686  0.00  0.00    +0.000 A 
ATOM     24  C   UNL     1      -0.274  10.709  19.808  0.00  0.00    +0.000 A 
ATOM     25  C   UNL     1      -0.200   9.962  20.987  0.00  0.00    +0.000 A 
ATOM     26  C   UNL     1       0.637   8.853  21.049  0.00  0.00    +0.000 A 
BRANCH  24  27
ATOM     27  C   UNL     1      -1.117  11.860  19.751  0.00  0.00    +0.000 C 
ATOM     28  N   UNL     1      -1.804  12.799  19.708  0.00  0.00    +0.000 NA
ENDBRANCH  24  27
ENDBRANCH  20  21
ENDBRANCH  18  20
ENDBRANCH  10  18
TORSDOF 5
ENDMDL
MODEL 7
REMARK VINA RESULT:      -7.3      3.683      5.463
REMARK  Name = 
REMARK  6 active torsions:
REMARK  status: ('A' for Active; 'I' for Inactive)
REMARK    1  A    between atoms: C_1  and  C_2
REMARK    2  A    between atoms: C_6  and  C_7
REMARK    3  A    between atoms: C_16  and  N_17
REMARK    4  A    between atoms: N_17  and  C_18
REMARK    5  A    between atoms: C_18  and  C_19
REMARK    6  A    between atoms: C_22  and  C_23
REMARK                            x       y       z     vdW  Elec       q    Type
REMARK                         _______ _______ _______ _____ _____    ______ ____
ROOT
ATOM      1  C   UNL     1       4.178   4.427  18.731  0.00  0.00    +0.000 A 
ATOM      2  N   UNL     1       5.445   4.094  19.163  0.00  0.00    +0.000 NA
ATOM      3  C   UNL     1       6.201   5.120  18.858  0.00  0.00    +0.000 A 
ATOM      4  C   UNL     1       7.592   5.331  19.079  0.00  0.00    +0.000 A 
ATOM      5  C   UNL     1       8.176   6.484  18.696  0.00  0.00    +0.000 A 
ATOM      6  C   UNL     1       7.410   7.530  18.054  0.00  0.00    +0.000 A 
ATOM      7 BR   UNL     1       8.265   9.105  17.549  0.00  0.00    +0.000 Br
ATOM      8  C   UNL     1       6.101   7.334  17.844  0.00  0.00    +0.000 A 
ATOM      9  N   UNL     1       5.481   6.139  18.234  0.00  0.00    +0.000 N 
ATOM     10  C   UNL     1       4.151   5.687  18.133  0.00  0.00    +0.000 A 
ENDROOT
BRANCH   1  16
ATOM     11  C   UNL     1       2.273   4.103  21.402  0.00  0.00    +0.000 C 
ATOM     12  C   UNL     1       2.285   3.372  20.113  0.00  0.00    +0.000 A 
ATOM     13  N   UNL     1       1.382   2.381  19.817  0.00  0.00    +0.000 N 
ATOM     14  C   UNL     1       1.657   1.932  18.557  0.00  0.00    +0.000 A 
ATOM     15  N   UNL     1       2.676   2.570  18.021  0.00  0.00    +0.000 NA
ATOM     16  C   UNL     1       3.077   3.481  18.980  0.00  0.00    +0.000 A 
ATOM     17  H   UNL     1       0.634   2.055  20.413  0.00  0.00    +0.000 HD
ENDBRANCH   1  16
BRANCH  10  18
ATOM     18  N   UNL     1       3.105   6.378  17.574  0.00  0.00    +0.000 N 
ATOM     19  H   UNL     1       2.420   5.856  17.019  0.00  0.00    +0.000 HD
BRANCH  18  20
ATOM     20  C   UNL     1       2.911   7.798  17.713  0.00  0.00    +0.000 C 
BRANCH  20  21
ATOM     21  C   UNL     1       2.022   8.222  18.842  0.00  0.00    +0.000 A 
ATOM     22  C   UNL     1       1.985   7.483  20.031  0.00  0.00    +0.000 A 
ATOM     23  C   UNL     1       1.255   7.951  21.121  0.00  0.00    +0.000 A 
ATOM     24  C   UNL     1       0.556   9.159  21.024  0.00  0.00    +0.000 A 
ATOM     25  C   UNL     1       0.601   9.907  19.845  0.00  0.00    +0.000 A 
ATOM     26  C   UNL     1       1.326   9.436  18.756  0.00  0.00    +0.000 A 
BRANCH  24  27
ATOM     27  C   UNL     1      -0.206   9.632  22.136  0.00  0.00    +0.000 C 
ATOM     28  N   UNL     1      -0.825  10.014  23.044  0.00  0.00    +0.000 NA
ENDBRANCH  24  27
ENDBRANCH  20  21
ENDBRANCH  18  20
ENDBRANCH  10  18
TORSDOF 5
ENDMDL
MODEL 8
REMARK VINA RESULT:      -7.3      3.522      7.906
REMARK  Name = 
REMARK  6 active torsions:
REMARK  status: ('A' for Active; 'I' for Inactive)
REMARK    1  A    between atoms: C_1  and  C_2
REMARK    2  A    between atoms: C_6  and  C_7
REMARK    3  A    between atoms: C_16  and  N_17
REMARK    4  A    between atoms: N_17  and  C_18
REMARK    5  A    between atoms: C_18  and  C_19
REMARK    6  A    between atoms: C_22  and  C_23
REMARK                            x       y       z     vdW  Elec       q    Type
REMARK                         _______ _______ _______ _____ _____    ______ ____
ROOT
ATOM      1  C   UNL     1       1.795   6.082  20.359  0.00  0.00    +0.000 A 
ATOM      2  N   UNL     1       1.034   6.758  21.290  0.00  0.00    +0.000 NA
ATOM      3  C   UNL     1       1.009   8.003  20.885  0.00  0.00    +0.000 A 
ATOM      4  C   UNL     1       0.365   9.139  21.455  0.00  0.00    +0.000 A 
ATOM      5  C   UNL     1       0.455  10.344  20.858  0.00  0.00    +0.000 A 
ATOM      6  C   UNL     1       1.204  10.515  19.633  0.00  0.00    +0.000 A 
ATOM      7 BR   UNL     1       1.293  12.201  18.848  0.00  0.00    +0.000 Br
ATOM      8  C   UNL     1       1.813   9.449  19.096  0.00  0.00    +0.000 A 
ATOM      9  N   UNL     1       1.731   8.190  19.706  0.00  0.00    +0.000 N 
ATOM     10  C   UNL     1       2.263   6.934  19.359  0.00  0.00    +0.000 A 
ENDROOT
BRANCH   1  16
ATOM     11  C   UNL     1       1.398   3.688  18.127  0.00  0.00    +0.000 C 
ATOM     12  C   UNL     1       1.803   3.641  19.552  0.00  0.00    +0.000 A 
ATOM     13  N   UNL     1       2.138   2.471  20.187  0.00  0.00    +0.000 N 
ATOM     14  C   UNL     1       2.475   2.780  21.473  0.00  0.00    +0.000 A 
ATOM     15  N   UNL     1       2.382   4.071  21.708  0.00  0.00    +0.000 NA
ATOM     16  C   UNL     1       1.969   4.627  20.512  0.00  0.00    +0.000 A 
ATOM     17  H   UNL     1       2.153   1.550  19.774  0.00  0.00    +0.000 HD
ENDBRANCH   1  16
BRANCH  10  18
ATOM     18  N   UNL     1       3.049   6.666  18.265  0.00  0.00    +0.000 N 
ATOM     19  H   UNL     1       2.654   6.821  17.333  0.00  0.00    +0.000 HD
BRANCH  18  20
ATOM     20  C   UNL     1       4.399   6.170  18.346  0.00  0.00    +0.000 C 
BRANCH  20  21
ATOM     21  C   UNL     1       4.941   5.561  17.089  0.00  0.00    +0.000 A 
ATOM     22  C   UNL     1       5.096   4.173  16.983  0.00  0.00    +0.000 A 
ATOM     23  C   UNL     1       5.479   3.604  15.771  0.00  0.00    +0.000 A 
ATOM     24  C   UNL     1       5.713   4.422  14.661  0.00  0.00    +0.000 A 
ATOM     25  C   UNL     1       5.546   5.806  14.757  0.00  0.00    +0.000 A 
ATOM     26  C   UNL     1       5.168   6.373  15.969  0.00  0.00    +0.000 A 
BRANCH  24  27
ATOM     27  C   UNL     1       6.121   3.841  13.422  0.00  0.00    +0.000 C 
ATOM     28  N   UNL     1       6.457   3.366  12.415  0.00  0.00    +0.000 NA
ENDBRANCH  24  27
ENDBRANCH  20  21
ENDBRANCH  18  20
ENDBRANCH  10  18
TORSDOF 5
ENDMDL
MODEL 9
REMARK VINA RESULT:      -7.3      3.654      5.570
REMARK  Name = 
REMARK  6 active torsions:
REMARK  status: ('A' for Active; 'I' for Inactive)
REMARK    1  A    between atoms: C_1  and  C_2
REMARK    2  A    between atoms: C_6  and  C_7
REMARK    3  A    between atoms: C_16  and  N_17
REMARK    4  A    between atoms: N_17  and  C_18
REMARK    5  A    between atoms: C_18  and  C_19
REMARK    6  A    between atoms: C_22  and  C_23
REMARK                            x       y       z     vdW  Elec       q    Type
REMARK                         _______ _______ _______ _____ _____    ______ ____
ROOT
ATOM      1  C   UNL     1       3.839   4.362  18.471  0.00  0.00    +0.000 A 
ATOM      2  N   UNL     1       5.111   3.907  18.749  0.00  0.00    +0.000 NA
ATOM      3  C   UNL     1       5.906   4.923  18.521  0.00  0.00    +0.000 A 
ATOM      4  C   UNL     1       7.320   5.027  18.653  0.00  0.00    +0.000 A 
ATOM      5  C   UNL     1       7.946   6.189  18.379  0.00  0.00    +0.000 A 
ATOM      6  C   UNL     1       7.203   7.351  17.946  0.00  0.00    +0.000 A 
ATOM      7 BR   UNL     1       8.117   8.933  17.585  0.00  0.00    +0.000 Br
ATOM      8  C   UNL     1       5.872   7.256  17.820  0.00  0.00    +0.000 A 
ATOM      9  N   UNL     1       5.208   6.055  18.099  0.00  0.00    +0.000 N 
ATOM     10  C   UNL     1       3.849   5.692  18.049  0.00  0.00    +0.000 A 
ENDROOT
BRANCH   1  16
ATOM     11  C   UNL     1       3.757   1.069  18.354  0.00  0.00    +0.000 C 
ATOM     12  C   UNL     1       2.697   2.066  18.636  0.00  0.00    +0.000 A 
ATOM     13  N   UNL     1       1.411   1.706  18.956  0.00  0.00    +0.000 N 
ATOM     14  C   UNL     1       0.701   2.853  19.169  0.00  0.00    +0.000 A 
ATOM     15  N   UNL     1       1.445   3.927  19.010  0.00  0.00    +0.000 NA
ATOM     16  C   UNL     1       2.701   3.451  18.683  0.00  0.00    +0.000 A 
ATOM     17  H   UNL     1       1.056   0.765  19.039  0.00  0.00    +0.000 HD
ENDBRANCH   1  16
BRANCH  10  18
ATOM     18  N   UNL     1       2.809   6.508  17.673  0.00  0.00    +0.000 N 
ATOM     19  H   UNL     1       2.009   6.085  17.195  0.00  0.00    +0.000 HD
BRANCH  18  20
ATOM     20  C   UNL     1       2.777   7.929  17.906  0.00  0.00    +0.000 C 
BRANCH  20  21
ATOM     21  C   UNL     1       1.883   8.381  19.021  0.00  0.00    +0.000 A 
ATOM     22  C   UNL     1       1.877   7.701  20.245  0.00  0.00    +0.000 A 
ATOM     23  C   UNL     1       1.141   8.200  21.317  0.00  0.00    +0.000 A 
ATOM     24  C   UNL     1       0.406   9.380  21.167  0.00  0.00    +0.000 A 
ATOM     25  C   UNL     1       0.419  10.071  19.953  0.00  0.00    +0.000 A 
ATOM     26  C   UNL     1       1.151   9.568  18.882  0.00  0.00    +0.000 A 
BRANCH  24  27
ATOM     27  C   UNL     1      -0.362   9.885  22.261  0.00  0.00    +0.000 C 
ATOM     28  N   UNL     1      -0.984  10.299  23.152  0.00  0.00    +0.000 NA
ENDBRANCH  24  27
ENDBRANCH  20  21
ENDBRANCH  18  20
ENDBRANCH  10  18
TORSDOF 5
ENDMDL
