MODEL 1
REMARK VINA RESULT:      -6.1      0.000      0.000
REMARK  Name = 
REMARK  3 active torsions:
REMARK  status: ('A' for Active; 'I' for Inactive)
REMARK    1  A    between atoms: C_2  and  C_3
REMARK    2  A    between atoms: N_15  and  C_16
REMARK    3  A    between atoms: C_16  and  C_17
REMARK                            x       y       z     vdW  Elec       q    Type
REMARK                         _______ _______ _______ _____ _____    ______ ____
ROOT
ATOM      1  O   UNL     1       2.092  12.245  18.650  0.00  0.00    +0.000 OA
ATOM      2  C   UNL     1       1.586  11.997  19.747  0.00  0.00    +0.000 C 
ATOM      3  N   UNL     1       0.933  10.790  19.958  0.00  0.00    +0.000 N 
ATOM      4  C   UNL     1       0.527  10.242  21.264  0.00  0.00    +0.000 C 
ATOM      5  C   UNL     1       0.718   8.701  21.122  0.00  0.00    +0.000 C 
ATOM      6  C   UNL     1       1.643   8.623  19.909  0.00  0.00    +0.000 C 
ATOM      7  C   UNL     1       0.970   9.673  19.037  0.00  0.00    +0.000 C 
ATOM      8  C   UNL     1       1.738   9.552  17.746  0.00  0.00    +0.000 C 
ATOM      9  C   UNL     1       2.077   8.054  17.692  0.00  0.00    +0.000 C 
ATOM     10  N   UNL     1       1.808   7.458  19.032  0.00  0.00    +0.000 NA
ENDROOT
BRANCH   2  11
ATOM     11  C   UNL     1       1.509  13.081  20.747  0.00  0.00    +0.000 A 
ATOM     12  C   UNL     1       2.590  13.923  20.982  0.00  0.00    +0.000 A 
ATOM     13  S   UNL     1       2.115  15.275  21.916  0.00  0.00    +0.000 S 
ATOM     14  C   UNL     1       0.526  14.642  21.977  0.00  0.00    +0.000 A 
ATOM     15  N   UNL     1       0.329  13.490  21.371  0.00  0.00    +0.000 NA
ENDBRANCH   2  11
BRANCH  10  16
ATOM     16  C   UNL     1       2.944   6.631  19.492  0.00  0.00    +0.000 C 
BRANCH  16  17
ATOM     17  C   UNL     1       2.679   5.114  19.645  0.00  0.00    +0.000 C 
ATOM     18  C   UNL     1       2.362   4.417  18.317  0.00  0.00    +0.000 C 
ATOM     19  C   UNL     1       1.936   2.969  18.554  0.00  0.00    +0.000 C 
ATOM     20  O   UNL     1       0.833   2.899  19.457  0.00  0.00    +0.000 OA
ATOM     21  C   UNL     1       1.164   3.419  20.744  0.00  0.00    +0.000 C 
ATOM     22  C   UNL     1       1.525   4.894  20.640  0.00  0.00    +0.000 C 
ENDBRANCH  16  17
ENDBRANCH  10  16
TORSDOF 3
ENDMDL
MODEL 2
REMARK VINA RESULT:      -6.0      3.961      7.858
REMARK  Name = 
REMARK  3 active torsions:
REMARK  status: ('A' for Active; 'I' for Inactive)
REMARK    1  A    between atoms: C_2  and  C_3
REMARK    2  A    between atoms: N_15  and  C_16
REMARK    3  A    between atoms: C_16  and  C_17
REMARK                            x       y       z     vdW  Elec       q    Type
REMARK                         _______ _______ _______ _____ _____    ______ ____
ROOT
ATOM      1  O   UNL     1       4.023   3.510  18.771  0.00  0.00    +0.000 OA
ATOM      2  C   UNL     1       4.271   4.473  18.042  0.00  0.00    +0.000 C 
ATOM      3  N   UNL     1       3.363   5.517  17.929  0.00  0.00    +0.000 N 
ATOM      4  C   UNL     1       3.630   6.836  17.329  0.00  0.00    +0.000 C 
ATOM      5  C   UNL     1       2.796   7.836  18.188  0.00  0.00    +0.000 C 
ATOM      6  C   UNL     1       2.532   7.007  19.443  0.00  0.00    +0.000 C 
ATOM      7  C   UNL     1       2.200   5.679  18.778  0.00  0.00    +0.000 C 
ATOM      8  C   UNL     1       1.776   4.835  19.951  0.00  0.00    +0.000 C 
ATOM      9  C   UNL     1       1.103   5.858  20.879  0.00  0.00    +0.000 C 
ATOM     10  N   UNL     1       1.442   7.229  20.400  0.00  0.00    +0.000 NA
ENDROOT
BRANCH   2  11
ATOM     11  C   UNL     1       5.442   4.391  17.145  0.00  0.00    +0.000 A 
ATOM     12  C   UNL     1       5.297   4.088  15.796  0.00  0.00    +0.000 A 
ATOM     13  S   UNL     1       6.747   4.400  14.944  0.00  0.00    +0.000 S 
ATOM     14  C   UNL     1       7.478   4.879  16.416  0.00  0.00    +0.000 A 
ATOM     15  N   UNL     1       6.729   4.806  17.495  0.00  0.00    +0.000 NA
ENDBRANCH   2  11
BRANCH  10  16
ATOM     16  C   UNL     1       1.904   8.089  21.509  0.00  0.00    +0.000 C 
BRANCH  16  17
ATOM     17  C   UNL     1       1.166   9.436  21.696  0.00  0.00    +0.000 C 
ATOM     18  C   UNL     1       0.102   9.397  22.799  0.00  0.00    +0.000 C 
ATOM     19  C   UNL     1      -0.710  10.690  22.815  0.00  0.00    +0.000 C 
ATOM     20  O   UNL     1      -1.292  10.947  21.537  0.00  0.00    +0.000 OA
ATOM     21  C   UNL     1      -0.301  11.125  20.526  0.00  0.00    +0.000 C 
ATOM     22  C   UNL     1       0.520   9.855  20.363  0.00  0.00    +0.000 C 
ENDBRANCH  16  17
ENDBRANCH  10  16
TORSDOF 3
ENDMDL
MODEL 3
REMARK VINA RESULT:      -6.0      3.370      4.350
REMARK  Name = 
REMARK  3 active torsions:
REMARK  status: ('A' for Active; 'I' for Inactive)
REMARK    1  A    between atoms: C_2  and  C_3
REMARK    2  A    between atoms: N_15  and  C_16
REMARK    3  A    between atoms: C_16  and  C_17
REMARK                            x       y       z     vdW  Elec       q    Type
REMARK                         _______ _______ _______ _____ _____    ______ ____
ROOT
ATOM      1  O   UNL     1      -0.710   8.699  20.706  0.00  0.00    +0.000 OA
ATOM      2  C   UNL     1      -0.271   9.410  19.800  0.00  0.00    +0.000 C 
ATOM      3  N   UNL     1       1.062   9.319  19.423  0.00  0.00    +0.000 N 
ATOM      4  C   UNL     1       1.658   9.888  18.202  0.00  0.00    +0.000 C 
ATOM      5  C   UNL     1       2.746   8.856  17.775  0.00  0.00    +0.000 C 
ATOM      6  C   UNL     1       2.305   7.617  18.553  0.00  0.00    +0.000 C 
ATOM      7  C   UNL     1       1.967   8.283  19.878  0.00  0.00    +0.000 C 
ATOM      8  C   UNL     1       1.664   7.100  20.759  0.00  0.00    +0.000 C 
ATOM      9  C   UNL     1       2.620   6.024  20.222  0.00  0.00    +0.000 C 
ATOM     10  N   UNL     1       3.165   6.483  18.913  0.00  0.00    +0.000 NA
ENDROOT
BRANCH   2  11
ATOM     11  C   UNL     1      -1.131  10.491  19.276  0.00  0.00    +0.000 A 
ATOM     12  C   UNL     1      -2.014  10.265  18.227  0.00  0.00    +0.000 A 
ATOM     13  S   UNL     1      -3.109  11.569  18.063  0.00  0.00    +0.000 S 
ATOM     14  C   UNL     1      -2.323  12.358  19.362  0.00  0.00    +0.000 A 
ATOM     15  N   UNL     1      -1.295  11.732  19.894  0.00  0.00    +0.000 NA
ENDBRANCH   2  11
BRANCH  10  16
ATOM     16  C   UNL     1       3.068   5.424  17.887  0.00  0.00    +0.000 C 
BRANCH  16  17
ATOM     17  C   UNL     1       4.268   5.284  16.919  0.00  0.00    +0.000 C 
ATOM     18  C   UNL     1       4.601   3.829  16.572  0.00  0.00    +0.000 C 
ATOM     19  C   UNL     1       5.895   3.747  15.765  0.00  0.00    +0.000 C 
ATOM     20  O   UNL     1       6.973   4.379  16.455  0.00  0.00    +0.000 OA
ATOM     21  C   UNL     1       6.732   5.771  16.658  0.00  0.00    +0.000 C 
ATOM     22  C   UNL     1       5.502   5.971  17.532  0.00  0.00    +0.000 C 
ENDBRANCH  16  17
ENDBRANCH  10  16
TORSDOF 3
ENDMDL
MODEL 4
REMARK VINA RESULT:      -5.9      3.901      7.712
REMARK  Name = 
REMARK  3 active torsions:
REMARK  status: ('A' for Active; 'I' for Inactive)
REMARK    1  A    between atoms: C_2  and  C_3
REMARK    2  A    between atoms: N_15  and  C_16
REMARK    3  A    between atoms: C_16  and  C_17
REMARK                            x       y       z     vdW  Elec       q    Type
REMARK                         _______ _______ _______ _____ _____    ______ ____
ROOT
ATOM      1  O   UNL     1       4.322   4.649  19.693  0.00  0.00    +0.000 OA
ATOM      2  C   UNL     1       4.401   5.418  18.733  0.00  0.00    +0.000 C 
ATOM      3  N   UNL     1       3.320   6.217  18.386  0.00  0.00    +0.000 N 
ATOM      4  C   UNL     1       3.350   7.361  17.459  0.00  0.00    +0.000 C 
ATOM      5  C   UNL     1       2.336   8.383  18.058  0.00  0.00    +0.000 C 
ATOM      6  C   UNL     1       2.209   7.874  19.493  0.00  0.00    +0.000 C 
ATOM      7  C   UNL     1       2.135   6.382  19.204  0.00  0.00    +0.000 C 
ATOM      8  C   UNL     1       1.855   5.808  20.568  0.00  0.00    +0.000 C 
ATOM      9  C   UNL     1       0.994   6.899  21.224  0.00  0.00    +0.000 C 
ATOM     10  N   UNL     1       1.083   8.136  20.397  0.00  0.00    +0.000 NA
ENDROOT
BRANCH   2  11
ATOM     11  C   UNL     1       5.579   5.319  17.848  0.00  0.00    +0.000 A 
ATOM     12  C   UNL     1       5.637   4.378  16.827  0.00  0.00    +0.000 A 
ATOM     13  S   UNL     1       6.935   4.713  15.764  0.00  0.00    +0.000 S 
ATOM     14  C   UNL     1       7.354   6.055  16.741  0.00  0.00    +0.000 A 
ATOM     15  N   UNL     1       6.612   6.259  17.808  0.00  0.00    +0.000 NA
ENDBRANCH   2  11
BRANCH  10  16
ATOM     16  C   UNL     1       1.366   9.323  21.231  0.00  0.00    +0.000 C 
BRANCH  16  17
ATOM     17  C   UNL     1       0.183  10.287  21.488  0.00  0.00    +0.000 C 
ATOM     18  C   UNL     1       0.547  11.762  21.283  0.00  0.00    +0.000 C 
ATOM     19  C   UNL     1      -0.600  12.669  21.722  0.00  0.00    +0.000 C 
ATOM     20  O   UNL     1      -0.974  12.407  23.075  0.00  0.00    +0.000 OA
ATOM     21  C   UNL     1      -1.449  11.073  23.248  0.00  0.00    +0.000 C 
ATOM     22  C   UNL     1      -0.349  10.075  22.917  0.00  0.00    +0.000 C 
ENDBRANCH  16  17
ENDBRANCH  10  16
TORSDOF 3
ENDMDL
MODEL 5
REMARK VINA RESULT:      -5.9      1.283      1.657
REMARK  Name = 
REMARK  3 active torsions:
REMARK  status: ('A' for Active; 'I' for Inactive)
REMARK    1  A    between atoms: C_2  and  C_3
REMARK    2  A    between atoms: N_15  and  C_16
REMARK    3  A    between atoms: C_16  and  C_17
REMARK                            x       y       z     vdW  Elec       q    Type
REMARK                         _______ _______ _______ _____ _____    ______ ____
ROOT
ATOM      1  O   UNL     1       2.473  12.693  18.632  0.00  0.00    +0.000 OA
ATOM      2  C   UNL     1       1.566  12.626  19.466  0.00  0.00    +0.000 C 
ATOM      3  N   UNL     1       0.728  11.519  19.498  0.00  0.00    +0.000 N 
ATOM      4  C   UNL     1      -0.204  11.171  20.585  0.00  0.00    +0.000 C 
ATOM      5  C   UNL     1      -0.180   9.612  20.641  0.00  0.00    +0.000 C 
ATOM      6  C   UNL     1       1.112   9.305  19.886  0.00  0.00    +0.000 C 
ATOM      7  C   UNL     1       0.958  10.302  18.747  0.00  0.00    +0.000 C 
ATOM      8  C   UNL     1       2.127   9.957  17.863  0.00  0.00    +0.000 C 
ATOM      9  C   UNL     1       2.260   8.438  18.054  0.00  0.00    +0.000 C 
ATOM     10  N   UNL     1       1.435   8.033  19.228  0.00  0.00    +0.000 NA
ENDROOT
BRANCH   2  11
ATOM     11  C   UNL     1       1.267  13.823  20.277  0.00  0.00    +0.000 A 
ATOM     12  C   UNL     1       0.354  14.777  19.844  0.00  0.00    +0.000 A 
ATOM     13  S   UNL     1      -0.049  15.852  21.112  0.00  0.00    +0.000 S 
ATOM     14  C   UNL     1       1.033  15.008  22.136  0.00  0.00    +0.000 A 
ATOM     15  N   UNL     1       1.685  14.000  21.597  0.00  0.00    +0.000 NA
ENDBRANCH   2  11
BRANCH  10  16
ATOM     16  C   UNL     1       2.197   7.163  20.148  0.00  0.00    +0.000 C 
BRANCH  16  17
ATOM     17  C   UNL     1       2.354   5.681  19.731  0.00  0.00    +0.000 C 
ATOM     18  C   UNL     1       1.721   4.701  20.725  0.00  0.00    +0.000 C 
ATOM     19  C   UNL     1       2.062   3.259  20.356  0.00  0.00    +0.000 C 
ATOM     20  O   UNL     1       3.474   3.072  20.265  0.00  0.00    +0.000 OA
ATOM     21  C   UNL     1       4.054   3.880  19.242  0.00  0.00    +0.000 C 
ATOM     22  C   UNL     1       3.848   5.354  19.555  0.00  0.00    +0.000 C 
ENDBRANCH  16  17
ENDBRANCH  10  16
TORSDOF 3
ENDMDL
MODEL 6
REMARK VINA RESULT:      -5.9      0.935      1.005
REMARK  Name = 
REMARK  3 active torsions:
REMARK  status: ('A' for Active; 'I' for Inactive)
REMARK    1  A    between atoms: C_2  and  C_3
REMARK    2  A    between atoms: N_15  and  C_16
REMARK    3  A    between atoms: C_16  and  C_17
REMARK                            x       y       z     vdW  Elec       q    Type
REMARK                         _______ _______ _______ _____ _____    ______ ____
ROOT
ATOM      1  O   UNL     1       2.441  12.116  18.206  0.00  0.00    +0.000 OA
ATOM      2  C   UNL     1       1.685  12.046  19.178  0.00  0.00    +0.000 C 
ATOM      3  N   UNL     1       0.925  10.904  19.392  0.00  0.00    +0.000 N 
ATOM      4  C   UNL     1       0.200  10.565  20.629  0.00  0.00    +0.000 C 
ATOM      5  C   UNL     1       0.319   9.014  20.744  0.00  0.00    +0.000 C 
ATOM      6  C   UNL     1       1.488   8.732  19.802  0.00  0.00    +0.000 C 
ATOM      7  C   UNL     1       1.099   9.663  18.664  0.00  0.00    +0.000 C 
ATOM      8  C   UNL     1       2.129   9.331  17.616  0.00  0.00    +0.000 C 
ATOM      9  C   UNL     1       2.375   7.832  17.845  0.00  0.00    +0.000 C 
ATOM     10  N   UNL     1       1.772   7.446  19.153  0.00  0.00    +0.000 NA
ENDROOT
BRANCH   2  11
ATOM     11  C   UNL     1       1.454  13.266  19.977  0.00  0.00    +0.000 A 
ATOM     12  C   UNL     1       0.418  14.141  19.674  0.00  0.00    +0.000 A 
ATOM     13  S   UNL     1       0.173  15.258  20.946  0.00  0.00    +0.000 S 
ATOM     14  C   UNL     1       1.472  14.535  21.795  0.00  0.00    +0.000 A 
ATOM     15  N   UNL     1       2.085  13.539  21.193  0.00  0.00    +0.000 NA
ENDBRANCH   2  11
BRANCH  10  16
ATOM     16  C   UNL     1       2.719   6.660  19.972  0.00  0.00    +0.000 C 
BRANCH  16  17
ATOM     17  C   UNL     1       2.599   5.120  19.883  0.00  0.00    +0.000 C 
ATOM     18  C   UNL     1       1.645   4.649  18.780  0.00  0.00    +0.000 C 
ATOM     19  C   UNL     1       1.431   3.138  18.858  0.00  0.00    +0.000 C 
ATOM     20  O   UNL     1       0.966   2.751  20.151  0.00  0.00    +0.000 OA
ATOM     21  C   UNL     1       1.914   3.060  21.172  0.00  0.00    +0.000 C 
ATOM     22  C   UNL     1       2.141   4.563  21.243  0.00  0.00    +0.000 C 
ENDBRANCH  16  17
ENDBRANCH  10  16
TORSDOF 3
ENDMDL
MODEL 7
REMARK VINA RESULT:      -5.8      0.857      1.008
REMARK  Name = 
REMARK  3 active torsions:
REMARK  status: ('A' for Active; 'I' for Inactive)
REMARK    1  A    between atoms: C_2  and  C_3
REMARK    2  A    between atoms: N_15  and  C_16
REMARK    3  A    between atoms: C_16  and  C_17
REMARK                            x       y       z     vdW  Elec       q    Type
REMARK                         _______ _______ _______ _____ _____    ______ ____
ROOT
ATOM      1  O   UNL     1       2.018  12.179  18.639  0.00  0.00    +0.000 OA
ATOM      2  C   UNL     1       1.564  11.916  19.755  0.00  0.00    +0.000 C 
ATOM      3  N   UNL     1       0.955  10.690  19.990  0.00  0.00    +0.000 N 
ATOM      4  C   UNL     1       0.618  10.130  21.311  0.00  0.00    +0.000 C 
ATOM      5  C   UNL     1       0.849   8.595  21.160  0.00  0.00    +0.000 C 
ATOM      6  C   UNL     1       1.728   8.545  19.911  0.00  0.00    +0.000 C 
ATOM      7  C   UNL     1       0.990   9.574  19.067  0.00  0.00    +0.000 C 
ATOM      8  C   UNL     1       1.709   9.476  17.747  0.00  0.00    +0.000 C 
ATOM      9  C   UNL     1       2.090   7.989  17.679  0.00  0.00    +0.000 C 
ATOM     10  N   UNL     1       1.892   7.385  19.028  0.00  0.00    +0.000 NA
ENDROOT
BRANCH   2  11
ATOM     11  C   UNL     1       1.494  12.997  20.758  0.00  0.00    +0.000 A 
ATOM     12  C   UNL     1       2.554  13.877  20.944  0.00  0.00    +0.000 A 
ATOM     13  S   UNL     1       2.075  15.212  21.900  0.00  0.00    +0.000 S 
ATOM     14  C   UNL     1       0.514  14.523  22.033  0.00  0.00    +0.000 A 
ATOM     15  N   UNL     1       0.330  13.365  21.436  0.00  0.00    +0.000 NA
ENDBRANCH   2  11
BRANCH  10  16
ATOM     16  C   UNL     1       3.069   6.592  19.441  0.00  0.00    +0.000 C 
BRANCH  16  17
ATOM     17  C   UNL     1       3.062   5.092  19.061  0.00  0.00    +0.000 C 
ATOM     18  C   UNL     1       3.784   4.798  17.742  0.00  0.00    +0.000 C 
ATOM     19  C   UNL     1       3.591   3.339  17.331  0.00  0.00    +0.000 C 
ATOM     20  O   UNL     1       2.204   3.007  17.254  0.00  0.00    +0.000 OA
ATOM     21  C   UNL     1       1.552   3.144  18.516  0.00  0.00    +0.000 C 
ATOM     22  C   UNL     1       1.609   4.590  18.985  0.00  0.00    +0.000 C 
ENDBRANCH  16  17
ENDBRANCH  10  16
TORSDOF 3
ENDMDL
MODEL 8
REMARK VINA RESULT:      -5.8      4.068      7.883
REMARK  Name = 
REMARK  3 active torsions:
REMARK  status: ('A' for Active; 'I' for Inactive)
REMARK    1  A    between atoms: C_2  and  C_3
REMARK    2  A    between atoms: N_15  and  C_16
REMARK    3  A    between atoms: C_16  and  C_17
REMARK                            x       y       z     vdW  Elec       q    Type
REMARK                         _______ _______ _______ _____ _____    ______ ____
ROOT
ATOM      1  O   UNL     1       4.991   3.492  19.012  0.00  0.00    +0.000 OA
ATOM      2  C   UNL     1       4.858   4.362  18.149  0.00  0.00    +0.000 C 
ATOM      3  N   UNL     1       3.653   5.041  18.021  0.00  0.00    +0.000 N 
ATOM      4  C   UNL     1       3.430   6.270  17.241  0.00  0.00    +0.000 C 
ATOM      5  C   UNL     1       2.381   7.077  18.067  0.00  0.00    +0.000 C 
ATOM      6  C   UNL     1       2.495   6.406  19.435  0.00  0.00    +0.000 C 
ATOM      7  C   UNL     1       2.567   4.957  18.977  0.00  0.00    +0.000 C 
ATOM      8  C   UNL     1       2.529   4.210  20.284  0.00  0.00    +0.000 C 
ATOM      9  C   UNL     1       1.630   5.099  21.157  0.00  0.00    +0.000 C 
ATOM     10  N   UNL     1       1.466   6.418  20.481  0.00  0.00    +0.000 NA
ENDROOT
BRANCH   2  11
ATOM     11  C   UNL     1       5.921   4.517  17.136  0.00  0.00    +0.000 A 
ATOM     12  C   UNL     1       5.827   3.903  15.893  0.00  0.00    +0.000 A 
ATOM     13  S   UNL     1       7.002   4.524  14.817  0.00  0.00    +0.000 S 
ATOM     14  C   UNL     1       7.579   5.534  16.072  0.00  0.00    +0.000 A 
ATOM     15  N   UNL     1       6.974   5.428  17.236  0.00  0.00    +0.000 NA
ENDBRANCH   2  11
BRANCH  10  16
ATOM     16  C   UNL     1       1.704   7.537  21.417  0.00  0.00    +0.000 C 
BRANCH  16  17
ATOM     17  C   UNL     1       0.648   8.668  21.427  0.00  0.00    +0.000 C 
ATOM     18  C   UNL     1       0.976   9.812  20.462  0.00  0.00    +0.000 C 
ATOM     19  C   UNL     1       0.001  10.973  20.646  0.00  0.00    +0.000 C 
ATOM     20  O   UNL     1      -0.014  11.421  22.002  0.00  0.00    +0.000 OA
ATOM     21  C   UNL     1      -0.455  10.401  22.896  0.00  0.00    +0.000 C 
ATOM     22  C   UNL     1       0.501   9.218  22.858  0.00  0.00    +0.000 C 
ENDBRANCH  16  17
ENDBRANCH  10  16
TORSDOF 3
ENDMDL
MODEL 9
REMARK VINA RESULT:      -5.8      5.469      8.729
REMARK  Name = 
REMARK  3 active torsions:
REMARK  status: ('A' for Active; 'I' for Inactive)
REMARK    1  A    between atoms: C_2  and  C_3
REMARK    2  A    between atoms: N_15  and  C_16
REMARK    3  A    between atoms: C_16  and  C_17
REMARK                            x       y       z     vdW  Elec       q    Type
REMARK                         _______ _______ _______ _____ _____    ______ ____
ROOT
ATOM      1  O   UNL     1       7.407   6.029  16.350  0.00  0.00    +0.000 OA
ATOM      2  C   UNL     1       6.820   5.097  15.795  0.00  0.00    +0.000 C 
ATOM      3  N   UNL     1       6.034   4.226  16.538  0.00  0.00    +0.000 N 
ATOM      4  C   UNL     1       5.070   3.253  15.996  0.00  0.00    +0.000 C 
ATOM      5  C   UNL     1       3.905   3.230  17.033  0.00  0.00    +0.000 C 
ATOM      6  C   UNL     1       4.152   4.534  17.790  0.00  0.00    +0.000 C 
ATOM      7  C   UNL     1       5.665   4.442  17.923  0.00  0.00    +0.000 C 
ATOM      8  C   UNL     1       5.979   5.627  18.798  0.00  0.00    +0.000 C 
ATOM      9  C   UNL     1       4.745   5.710  19.711  0.00  0.00    +0.000 C 
ATOM     10  N   UNL     1       3.676   4.840  19.144  0.00  0.00    +0.000 NA
ENDROOT
BRANCH   2  11
ATOM     11  C   UNL     1       7.136   4.809  14.382  0.00  0.00    +0.000 A 
ATOM     12  C   UNL     1       6.425   3.855  13.664  0.00  0.00    +0.000 A 
ATOM     13  S   UNL     1       6.762   3.976  11.992  0.00  0.00    +0.000 S 
ATOM     14  C   UNL     1       7.849   5.255  12.330  0.00  0.00    +0.000 A 
ATOM     15  N   UNL     1       7.993   5.583  13.596  0.00  0.00    +0.000 NA
ENDBRANCH   2  11
BRANCH  10  16
ATOM     16  C   UNL     1       2.381   5.549  19.081  0.00  0.00    +0.000 C 
BRANCH  16  17
ATOM     17  C   UNL     1       2.415   7.078  19.320  0.00  0.00    +0.000 C 
ATOM     18  C   UNL     1       1.490   7.535  20.453  0.00  0.00    +0.000 C 
ATOM     19  C   UNL     1       1.430   9.059  20.522  0.00  0.00    +0.000 C 
ATOM     20  O   UNL     1       1.035   9.615  19.268  0.00  0.00    +0.000 OA
ATOM     21  C   UNL     1       1.968   9.312  18.232  0.00  0.00    +0.000 C 
ATOM     22  C   UNL     1       2.045   7.808  18.016  0.00  0.00    +0.000 C 
ENDBRANCH  16  17
ENDBRANCH  10  16
TORSDOF 3
ENDMDL
