MODEL 1
REMARK VINA RESULT:      -9.1      0.000      0.000
REMARK  Name = 
REMARK  6 active torsions:
REMARK  status: ('A' for Active; 'I' for Inactive)
REMARK    1  A    between atoms: C_1  and  N_2
REMARK    2  A    between atoms: C_9  and  C_10
REMARK    3  A    between atoms: N_23  and  C_24
REMARK    4  A    between atoms: C_24  and  C_25
REMARK    5  A    between atoms: C_24  and  C_26
REMARK    6  A    between atoms: C_24  and  C_27
REMARK                            x       y       z     vdW  Elec       q    Type
REMARK                         _______ _______ _______ _____ _____    ______ ____
ROOT
ATOM      1  C   UNL     1       1.187   8.408  20.639  0.00  0.00    +0.000 C 
ATOM      2  O   UNL     1       1.174   8.457  21.885  0.00  0.00    +0.000 OA
ATOM      3  N   UNL     1       0.574   9.464  19.927  0.00  0.00    +0.000 N 
ATOM      4  C   UNL     1       0.387  10.525  20.861  0.00  0.00    +0.000 C 
ATOM      5  C   UNL     1      -0.253  11.786  20.310  0.00  0.00    +0.000 C 
ATOM      6  C   UNL     1      -0.975  12.065  18.971  0.00  0.00    +0.000 C 
ATOM      7  C   UNL     1      -0.560  10.939  17.976  0.00  0.00    +0.000 C 
ATOM      8  C   UNL     1       0.401   9.741  18.474  0.00  0.00    +0.000 C 
ATOM      9  C   UNL     1      -0.593  13.556  18.600  0.00  0.00    +0.000 C 
ATOM     10  C   UNL     1      -0.800  14.511  19.821  0.00  0.00    +0.000 C 
ATOM     11  O   UNL     1      -0.079  15.499  19.979  0.00  0.00    +0.000 OA
ATOM     12  C   UNL     1      -1.882  14.117  20.755  0.00  0.00    +0.000 A 
ATOM     13  N   UNL     1      -2.077  14.592  21.997  0.00  0.00    +0.000 NA
ATOM     14  N   UNL     1      -3.005  13.764  22.544  0.00  0.00    +0.000 N 
ATOM     15  C   UNL     1      -3.441  12.810  21.649  0.00  0.00    +0.000 A 
ATOM     16  C   UNL     1      -2.733  13.008  20.484  0.00  0.00    +0.000 A 
ATOM     17  C   UNL     1      -2.550  12.153  19.251  0.00  0.00    +0.000 C 
ENDROOT
BRANCH   1  26
ATOM     18  C   UNL     1       5.496   5.745  15.292  0.00  0.00    +0.000 C 
ATOM     19  N   UNL     1       5.250   4.493  15.985  0.00  0.00    +0.000 N 
ATOM     20  C   UNL     1       4.456   4.604  17.139  0.00  0.00    +0.000 A 
ATOM     21  C   UNL     1       4.218   3.434  17.858  0.00  0.00    +0.000 A 
ATOM     22  C   UNL     1       3.451   3.492  19.010  0.00  0.00    +0.000 A 
ATOM     23  C   UNL     1       2.953   4.718  19.427  0.00  0.00    +0.000 A 
ATOM     24  C   UNL     1       2.185   4.804  20.580  0.00  0.00    +0.000 A 
ATOM     25  C   UNL     1       1.671   6.042  20.923  0.00  0.00    +0.000 A 
ATOM     26  C   UNL     1       1.877   7.202  20.133  0.00  0.00    +0.000 A 
ATOM     27  C   UNL     1       2.700   7.101  19.017  0.00  0.00    +0.000 A 
ATOM     28  C   UNL     1       3.227   5.868  18.641  0.00  0.00    +0.000 A 
ATOM     29  N   UNL     1       3.981   5.802  17.538  0.00  0.00    +0.000 NA
ATOM     30  H   UNL     1       4.849   3.785  15.376  0.00  0.00    +0.000 HD
ENDBRANCH   1  26
BRANCH  14  31
ATOM     31  C   UNL     1      -3.516  14.007  23.913  0.00  0.00    +0.000 C 
ATOM     32  C   UNL     1      -4.699  14.983  23.807  0.00  0.00    +0.000 C 
ATOM     33  C   UNL     1      -4.002  12.710  24.603  0.00  0.00    +0.000 C 
ATOM     34  C   UNL     1      -2.448  14.626  24.846  0.00  0.00    +0.000 C 
ENDBRANCH  14  31
TORSDOF 2
ENDMDL
MODEL 2
REMARK VINA RESULT:      -8.8      1.610      2.397
REMARK  Name = 
REMARK  6 active torsions:
REMARK  status: ('A' for Active; 'I' for Inactive)
REMARK    1  A    between atoms: C_1  and  N_2
REMARK    2  A    between atoms: C_9  and  C_10
REMARK    3  A    between atoms: N_23  and  C_24
REMARK    4  A    between atoms: C_24  and  C_25
REMARK    5  A    between atoms: C_24  and  C_26
REMARK    6  A    between atoms: C_24  and  C_27
REMARK                            x       y       z     vdW  Elec       q    Type
REMARK                         _______ _______ _______ _____ _____    ______ ____
ROOT
ATOM      1  C   UNL     1       1.149   8.857  20.170  0.00  0.00    +0.000 C 
ATOM      2  O   UNL     1       0.429   8.325  21.037  0.00  0.00    +0.000 OA
ATOM      3  N   UNL     1       1.058  10.257  20.000  0.00  0.00    +0.000 N 
ATOM      4  C   UNL     1       0.379  10.760  21.150  0.00  0.00    +0.000 C 
ATOM      5  C   UNL     1       0.175  12.263  21.192  0.00  0.00    +0.000 C 
ATOM      6  C   UNL     1       0.347  13.350  20.106  0.00  0.00    +0.000 C 
ATOM      7  C   UNL     1       1.248  12.748  18.984  0.00  0.00    +0.000 C 
ATOM      8  C   UNL     1       1.746  11.216  19.091  0.00  0.00    +0.000 C 
ATOM      9  C   UNL     1       0.882  14.624  20.878  0.00  0.00    +0.000 C 
ATOM     10  C   UNL     1       0.023  14.913  22.152  0.00  0.00    +0.000 C 
ATOM     11  O   UNL     1       0.531  15.417  23.156  0.00  0.00    +0.000 OA
ATOM     12  C   UNL     1      -1.401  14.510  22.058  0.00  0.00    +0.000 A 
ATOM     13  N   UNL     1      -2.266  14.389  23.079  0.00  0.00    +0.000 NA
ATOM     14  N   UNL     1      -3.346  13.759  22.548  0.00  0.00    +0.000 N 
ATOM     15  C   UNL     1      -3.200  13.530  21.196  0.00  0.00    +0.000 A 
ATOM     16  C   UNL     1      -1.953  14.002  20.848  0.00  0.00    +0.000 A 
ATOM     17  C   UNL     1      -1.106  13.809  19.611  0.00  0.00    +0.000 C 
ENDROOT
BRANCH   1  26
ATOM     18  C   UNL     1       4.315   2.222  20.624  0.00  0.00    +0.000 C 
ATOM     19  N   UNL     1       4.889   2.624  19.353  0.00  0.00    +0.000 N 
ATOM     20  C   UNL     1       4.472   3.885  18.891  0.00  0.00    +0.000 A 
ATOM     21  C   UNL     1       4.971   4.303  17.658  0.00  0.00    +0.000 A 
ATOM     22  C   UNL     1       4.583   5.533  17.153  0.00  0.00    +0.000 A 
ATOM     23  C   UNL     1       3.692   6.309  17.880  0.00  0.00    +0.000 A 
ATOM     24  C   UNL     1       3.283   7.543  17.394  0.00  0.00    +0.000 A 
ATOM     25  C   UNL     1       2.434   8.299  18.183  0.00  0.00    +0.000 A 
ATOM     26  C   UNL     1       1.997   7.873  19.464  0.00  0.00    +0.000 A 
ATOM     27  C   UNL     1       2.371   6.608  19.900  0.00  0.00    +0.000 A 
ATOM     28  C   UNL     1       3.231   5.824  19.133  0.00  0.00    +0.000 A 
ATOM     29  N   UNL     1       3.603   4.629  19.605  0.00  0.00    +0.000 NA
ATOM     30  H   UNL     1       5.904   2.595  19.360  0.00  0.00    +0.000 HD
ENDBRANCH   1  26
BRANCH  14  31
ATOM     31  C   UNL     1      -4.545  13.493  23.377  0.00  0.00    +0.000 C 
ATOM     32  C   UNL     1      -5.043  14.838  23.928  0.00  0.00    +0.000 C 
ATOM     33  C   UNL     1      -5.688  12.831  22.570  0.00  0.00    +0.000 C 
ATOM     34  C   UNL     1      -4.248  12.551  24.568  0.00  0.00    +0.000 C 
ENDBRANCH  14  31
TORSDOF 2
ENDMDL
MODEL 3
REMARK VINA RESULT:      -8.5      2.388      4.243
REMARK  Name = 
REMARK  6 active torsions:
REMARK  status: ('A' for Active; 'I' for Inactive)
REMARK    1  A    between atoms: C_1  and  N_2
REMARK    2  A    between atoms: C_9  and  C_10
REMARK    3  A    between atoms: N_23  and  C_24
REMARK    4  A    between atoms: C_24  and  C_25
REMARK    5  A    between atoms: C_24  and  C_26
REMARK    6  A    between atoms: C_24  and  C_27
REMARK                            x       y       z     vdW  Elec       q    Type
REMARK                         _______ _______ _______ _____ _____    ______ ____
ROOT
ATOM      1  C   UNL     1       1.864   9.342  18.557  0.00  0.00    +0.000 C 
ATOM      2  O   UNL     1       2.153  10.005  17.542  0.00  0.00    +0.000 OA
ATOM      3  N   UNL     1       1.092   9.970  19.561  0.00  0.00    +0.000 N 
ATOM      4  C   UNL     1       0.537  11.143  18.969  0.00  0.00    +0.000 C 
ATOM      5  C   UNL     1      -0.352  11.981  19.869  0.00  0.00    +0.000 C 
ATOM      6  C   UNL     1      -0.585  11.943  21.398  0.00  0.00    +0.000 C 
ATOM      7  C   UNL     1      -0.102  10.552  21.908  0.00  0.00    +0.000 C 
ATOM      8  C   UNL     1       0.566   9.506  20.875  0.00  0.00    +0.000 C 
ATOM      9  C   UNL     1      -2.113  12.311  21.591  0.00  0.00    +0.000 C 
ATOM     10  C   UNL     1      -2.495  13.584  20.767  0.00  0.00    +0.000 C 
ATOM     11  O   UNL     1      -3.628  13.717  20.299  0.00  0.00    +0.000 OA
ATOM     12  C   UNL     1      -1.400  14.566  20.578  0.00  0.00    +0.000 A 
ATOM     13  N   UNL     1      -1.380  15.580  19.696  0.00  0.00    +0.000 NA
ATOM     14  N   UNL     1      -0.098  16.029  19.712  0.00  0.00    +0.000 N 
ATOM     15  C   UNL     1       0.678  15.352  20.628  0.00  0.00    +0.000 A 
ATOM     16  C   UNL     1      -0.132  14.398  21.204  0.00  0.00    +0.000 A 
ATOM     17  C   UNL     1       0.174  13.190  22.059  0.00  0.00    +0.000 C 
ENDROOT
BRANCH   1  26
ATOM     18  C   UNL     1       1.695   2.682  21.698  0.00  0.00    +0.000 C 
ATOM     19  N   UNL     1       2.755   2.419  20.742  0.00  0.00    +0.000 N 
ATOM     20  C   UNL     1       3.064   3.496  19.894  0.00  0.00    +0.000 A 
ATOM     21  C   UNL     1       4.053   3.282  18.935  0.00  0.00    +0.000 A 
ATOM     22  C   UNL     1       4.388   4.309  18.067  0.00  0.00    +0.000 A 
ATOM     23  C   UNL     1       3.715   5.519  18.163  0.00  0.00    +0.000 A 
ATOM     24  C   UNL     1       4.028   6.562  17.303  0.00  0.00    +0.000 A 
ATOM     25  C   UNL     1       3.363   7.763  17.476  0.00  0.00    +0.000 A 
ATOM     26  C   UNL     1       2.408   7.969  18.505  0.00  0.00    +0.000 A 
ATOM     27  C   UNL     1       2.069   6.890  19.313  0.00  0.00    +0.000 A 
ATOM     28  C   UNL     1       2.725   5.669  19.170  0.00  0.00    +0.000 A 
ATOM     29  N   UNL     1       2.401   4.667  19.994  0.00  0.00    +0.000 NA
ATOM     30  H   UNL     1       3.608   2.095  21.188  0.00  0.00    +0.000 HD
ENDBRANCH   1  26
BRANCH  14  31
ATOM     31  C   UNL     1       0.301  17.194  18.887  0.00  0.00    +0.000 C 
ATOM     32  C   UNL     1       0.432  18.407  19.821  0.00  0.00    +0.000 C 
ATOM     33  C   UNL     1       1.651  16.973  18.165  0.00  0.00    +0.000 C 
ATOM     34  C   UNL     1      -0.735  17.527  17.787  0.00  0.00    +0.000 C 
ENDBRANCH  14  31
TORSDOF 2
ENDMDL
MODEL 4
REMARK VINA RESULT:      -8.5      2.295      4.017
REMARK  Name = 
REMARK  6 active torsions:
REMARK  status: ('A' for Active; 'I' for Inactive)
REMARK    1  A    between atoms: C_1  and  N_2
REMARK    2  A    between atoms: C_9  and  C_10
REMARK    3  A    between atoms: N_23  and  C_24
REMARK    4  A    between atoms: C_24  and  C_25
REMARK    5  A    between atoms: C_24  and  C_26
REMARK    6  A    between atoms: C_24  and  C_27
REMARK                            x       y       z     vdW  Elec       q    Type
REMARK                         _______ _______ _______ _____ _____    ______ ____
ROOT
ATOM      1  C   UNL     1       1.259   9.600  19.002  0.00  0.00    +0.000 C 
ATOM      2  O   UNL     1       1.343  10.289  17.967  0.00  0.00    +0.000 OA
ATOM      3  N   UNL     1       0.537  10.131  20.095  0.00  0.00    +0.000 N 
ATOM      4  C   UNL     1      -0.224  11.223  19.583  0.00  0.00    +0.000 C 
ATOM      5  C   UNL     1      -1.099  11.948  20.589  0.00  0.00    +0.000 C 
ATOM      6  C   UNL     1      -1.146  11.888  22.134  0.00  0.00    +0.000 C 
ATOM      7  C   UNL     1      -0.438  10.569  22.570  0.00  0.00    +0.000 C 
ATOM      8  C   UNL     1       0.230   9.610  21.456  0.00  0.00    +0.000 C 
ATOM      9  C   UNL     1      -2.674  12.064  22.507  0.00  0.00    +0.000 C 
ATOM     10  C   UNL     1      -3.305  13.276  21.746  0.00  0.00    +0.000 C 
ATOM     11  O   UNL     1      -4.492  13.265  21.414  0.00  0.00    +0.000 OA
ATOM     12  C   UNL     1      -2.370  14.386  21.442  0.00  0.00    +0.000 A 
ATOM     13  N   UNL     1      -2.579  15.391  20.574  0.00  0.00    +0.000 NA
ATOM     14  N   UNL     1      -1.369  15.995  20.445  0.00  0.00    +0.000 N 
ATOM     15  C   UNL     1      -0.413  15.424  21.258  0.00  0.00    +0.000 A 
ATOM     16  C   UNL     1      -1.027  14.380  21.914  0.00  0.00    +0.000 A 
ATOM     17  C   UNL     1      -0.475  13.222  22.715  0.00  0.00    +0.000 C 
ENDROOT
BRANCH   1  26
ATOM     18  C   UNL     1       1.947   2.828  21.814  0.00  0.00    +0.000 C 
ATOM     19  N   UNL     1       3.007   2.736  20.828  0.00  0.00    +0.000 N 
ATOM     20  C   UNL     1       3.168   3.881  20.028  0.00  0.00    +0.000 A 
ATOM     21  C   UNL     1       4.153   3.831  19.043  0.00  0.00    +0.000 A 
ATOM     22  C   UNL     1       4.344   4.929  18.221  0.00  0.00    +0.000 A 
ATOM     23  C   UNL     1       3.537   6.045  18.388  0.00  0.00    +0.000 A 
ATOM     24  C   UNL     1       3.705   7.157  17.574  0.00  0.00    +0.000 A 
ATOM     25  C   UNL     1       2.908   8.261  17.818  0.00  0.00    +0.000 A 
ATOM     26  C   UNL     1       1.959   8.304  18.872  0.00  0.00    +0.000 A 
ATOM     27  C   UNL     1       1.768   7.157  19.632  0.00  0.00    +0.000 A 
ATOM     28  C   UNL     1       2.559   6.030  19.418  0.00  0.00    +0.000 A 
ATOM     29  N   UNL     1       2.374   4.959  20.197  0.00  0.00    +0.000 NA
ATOM     30  H   UNL     1       3.903   2.495  21.242  0.00  0.00    +0.000 HD
ENDBRANCH   1  26
BRANCH  14  31
ATOM     31  C   UNL     1      -1.216  17.197  19.591  0.00  0.00    +0.000 C 
ATOM     32  C   UNL     1      -0.335  18.203  20.350  0.00  0.00    +0.000 C 
ATOM     33  C   UNL     1      -0.549  16.877  18.233  0.00  0.00    +0.000 C 
ATOM     34  C   UNL     1      -2.569  17.873  19.267  0.00  0.00    +0.000 C 
ENDBRANCH  14  31
TORSDOF 2
ENDMDL
MODEL 5
REMARK VINA RESULT:      -8.5      2.459      4.134
REMARK  Name = 
REMARK  6 active torsions:
REMARK  status: ('A' for Active; 'I' for Inactive)
REMARK    1  A    between atoms: C_1  and  N_2
REMARK    2  A    between atoms: C_9  and  C_10
REMARK    3  A    between atoms: N_23  and  C_24
REMARK    4  A    between atoms: C_24  and  C_25
REMARK    5  A    between atoms: C_24  and  C_26
REMARK    6  A    between atoms: C_24  and  C_27
REMARK                            x       y       z     vdW  Elec       q    Type
REMARK                         _______ _______ _______ _____ _____    ______ ____
ROOT
ATOM      1  C   UNL     1       1.990   9.106  18.129  0.00  0.00    +0.000 C 
ATOM      2  O   UNL     1       2.251   9.840  17.157  0.00  0.00    +0.000 OA
ATOM      3  N   UNL     1       1.240   9.656  19.193  0.00  0.00    +0.000 N 
ATOM      4  C   UNL     1       0.666  10.865  18.700  0.00  0.00    +0.000 C 
ATOM      5  C   UNL     1      -0.204  11.632  19.680  0.00  0.00    +0.000 C 
ATOM      6  C   UNL     1      -0.399  11.485  21.206  0.00  0.00    +0.000 C 
ATOM      7  C   UNL     1       0.102  10.063  21.604  0.00  0.00    +0.000 C 
ATOM      8  C   UNL     1       0.748   9.097  20.483  0.00  0.00    +0.000 C 
ATOM      9  C   UNL     1      -1.923  11.829  21.463  0.00  0.00    +0.000 C 
ATOM     10  C   UNL     1      -2.330  13.155  20.740  0.00  0.00    +0.000 C 
ATOM     11  O   UNL     1      -3.475  13.315  20.311  0.00  0.00    +0.000 OA
ATOM     12  C   UNL     1      -1.244  14.155  20.596  0.00  0.00    +0.000 A 
ATOM     13  N   UNL     1      -1.250  15.229  19.788  0.00  0.00    +0.000 NA
ATOM     14  N   UNL     1       0.031  15.682  19.804  0.00  0.00    +0.000 N 
ATOM     15  C   UNL     1       0.832  14.946  20.651  0.00  0.00    +0.000 A 
ATOM     16  C   UNL     1       0.039  13.950  21.177  0.00  0.00    +0.000 A 
ATOM     17  C   UNL     1       0.372  12.685  21.936  0.00  0.00    +0.000 C 
ENDROOT
BRANCH   1  26
ATOM     18  C   UNL     1       0.613   1.925  19.017  0.00  0.00    +0.000 C 
ATOM     19  N   UNL     1       1.996   1.806  18.594  0.00  0.00    +0.000 N 
ATOM     20  C   UNL     1       2.623   3.025  18.282  0.00  0.00    +0.000 A 
ATOM     21  C   UNL     1       3.943   2.961  17.839  0.00  0.00    +0.000 A 
ATOM     22  C   UNL     1       4.603   4.133  17.508  0.00  0.00    +0.000 A 
ATOM     23  C   UNL     1       3.926   5.340  17.610  0.00  0.00    +0.000 A 
ATOM     24  C   UNL     1       4.563   6.528  17.281  0.00  0.00    +0.000 A 
ATOM     25  C   UNL     1       3.858   7.707  17.449  0.00  0.00    +0.000 A 
ATOM     26  C   UNL     1       2.537   7.742  17.966  0.00  0.00    +0.000 A 
ATOM     27  C   UNL     1       1.901   6.535  18.229  0.00  0.00    +0.000 A 
ATOM     28  C   UNL     1       2.585   5.331  18.077  0.00  0.00    +0.000 A 
ATOM     29  N   UNL     1       1.953   4.192  18.381  0.00  0.00    +0.000 NA
ATOM     30  H   UNL     1       2.566   1.305  19.269  0.00  0.00    +0.000 HD
ENDBRANCH   1  26
BRANCH  14  31
ATOM     31  C   UNL     1       0.405  16.905  19.055  0.00  0.00    +0.000 C 
ATOM     32  C   UNL     1       1.754  16.640  18.368  0.00  0.00    +0.000 C 
ATOM     33  C   UNL     1      -0.638  17.280  17.976  0.00  0.00    +0.000 C 
ATOM     34  C   UNL     1       0.552  18.143  19.971  0.00  0.00    +0.000 C 
ENDBRANCH  14  31
TORSDOF 2
ENDMDL
MODEL 6
REMARK VINA RESULT:      -8.4      2.068      3.430
REMARK  Name = 
REMARK  6 active torsions:
REMARK  status: ('A' for Active; 'I' for Inactive)
REMARK    1  A    between atoms: C_1  and  N_2
REMARK    2  A    between atoms: C_9  and  C_10
REMARK    3  A    between atoms: N_23  and  C_24
REMARK    4  A    between atoms: C_24  and  C_25
REMARK    5  A    between atoms: C_24  and  C_26
REMARK    6  A    between atoms: C_24  and  C_27
REMARK                            x       y       z     vdW  Elec       q    Type
REMARK                         _______ _______ _______ _____ _____    ______ ____
ROOT
ATOM      1  C   UNL     1       0.938   9.644  19.520  0.00  0.00    +0.000 C 
ATOM      2  O   UNL     1       1.060  10.298  18.466  0.00  0.00    +0.000 OA
ATOM      3  N   UNL     1       0.185  10.215  20.571  0.00  0.00    +0.000 N 
ATOM      4  C   UNL     1      -0.552  11.294  20.000  0.00  0.00    +0.000 C 
ATOM      5  C   UNL     1      -1.454  12.057  20.953  0.00  0.00    +0.000 C 
ATOM      6  C   UNL     1      -1.550  12.048  22.496  0.00  0.00    +0.000 C 
ATOM      7  C   UNL     1      -0.865  10.741  22.998  0.00  0.00    +0.000 C 
ATOM      8  C   UNL     1      -0.169   9.742  21.938  0.00  0.00    +0.000 C 
ATOM      9  C   UNL     1      -3.089  12.244  22.814  0.00  0.00    +0.000 C 
ATOM     10  C   UNL     1      -3.687  13.434  21.994  0.00  0.00    +0.000 C 
ATOM     11  O   UNL     1      -4.863  13.418  21.624  0.00  0.00    +0.000 OA
ATOM     12  C   UNL     1      -2.736  14.528  21.683  0.00  0.00    +0.000 A 
ATOM     13  N   UNL     1      -2.910  15.505  20.777  0.00  0.00    +0.000 NA
ATOM     14  N   UNL     1      -1.693  16.098  20.667  0.00  0.00    +0.000 N 
ATOM     15  C   UNL     1      -0.767  15.549  21.529  0.00  0.00    +0.000 A 
ATOM     16  C   UNL     1      -1.408  14.530  22.199  0.00  0.00    +0.000 A 
ATOM     17  C   UNL     1      -0.890  13.397  23.055  0.00  0.00    +0.000 C 
ENDROOT
BRANCH   1  26
ATOM     18  C   UNL     1       5.397   5.400  15.476  0.00  0.00    +0.000 C 
ATOM     19  N   UNL     1       5.118   4.440  16.528  0.00  0.00    +0.000 N 
ATOM     20  C   UNL     1       4.287   4.918  17.556  0.00  0.00    +0.000 A 
ATOM     21  C   UNL     1       4.015   4.044  18.607  0.00  0.00    +0.000 A 
ATOM     22  C   UNL     1       3.210   4.471  19.650  0.00  0.00    +0.000 A 
ATOM     23  C   UNL     1       2.710   5.765  19.631  0.00  0.00    +0.000 A 
ATOM     24  C   UNL     1       1.905   6.218  20.666  0.00  0.00    +0.000 A 
ATOM     25  C   UNL     1       1.391   7.499  20.571  0.00  0.00    +0.000 A 
ATOM     26  C   UNL     1       1.634   8.341  19.455  0.00  0.00    +0.000 A 
ATOM     27  C   UNL     1       2.492   7.886  18.462  0.00  0.00    +0.000 A 
ATOM     28  C   UNL     1       3.020   6.598  18.524  0.00  0.00    +0.000 A 
ATOM     29  N   UNL     1       3.810   6.180  17.528  0.00  0.00    +0.000 NA
ATOM     30  H   UNL     1       4.731   3.573  16.168  0.00  0.00    +0.000 HD
ENDBRANCH   1  26
BRANCH  14  31
ATOM     31  C   UNL     1      -1.505  17.270  19.780  0.00  0.00    +0.000 C 
ATOM     32  C   UNL     1      -0.743  18.343  20.574  0.00  0.00    +0.000 C 
ATOM     33  C   UNL     1      -0.696  16.926  18.506  0.00  0.00    +0.000 C 
ATOM     34  C   UNL     1      -2.846  17.873  19.297  0.00  0.00    +0.000 C 
ENDBRANCH  14  31
TORSDOF 2
ENDMDL
MODEL 7
REMARK VINA RESULT:      -8.3      2.158      3.696
REMARK  Name = 
REMARK  6 active torsions:
REMARK  status: ('A' for Active; 'I' for Inactive)
REMARK    1  A    between atoms: C_1  and  N_2
REMARK    2  A    between atoms: C_9  and  C_10
REMARK    3  A    between atoms: N_23  and  C_24
REMARK    4  A    between atoms: C_24  and  C_25
REMARK    5  A    between atoms: C_24  and  C_26
REMARK    6  A    between atoms: C_24  and  C_27
REMARK                            x       y       z     vdW  Elec       q    Type
REMARK                         _______ _______ _______ _____ _____    ______ ____
ROOT
ATOM      1  C   UNL     1       1.944   9.145  18.485  0.00  0.00    +0.000 C 
ATOM      2  O   UNL     1       2.242   9.808  17.472  0.00  0.00    +0.000 OA
ATOM      3  N   UNL     1       1.180   9.779  19.491  0.00  0.00    +0.000 N 
ATOM      4  C   UNL     1       0.640  10.961  18.903  0.00  0.00    +0.000 C 
ATOM      5  C   UNL     1      -0.238  11.808  19.806  0.00  0.00    +0.000 C 
ATOM      6  C   UNL     1      -0.472  11.768  21.334  0.00  0.00    +0.000 C 
ATOM      7  C   UNL     1      -0.007  10.368  21.839  0.00  0.00    +0.000 C 
ATOM      8  C   UNL     1       0.648   9.317  20.803  0.00  0.00    +0.000 C 
ATOM      9  C   UNL     1      -1.995  12.154  21.528  0.00  0.00    +0.000 C 
ATOM     10  C   UNL     1      -2.361  13.434  20.708  0.00  0.00    +0.000 C 
ATOM     11  O   UNL     1      -3.492  13.583  20.240  0.00  0.00    +0.000 OA
ATOM     12  C   UNL     1      -1.254  14.404  20.523  0.00  0.00    +0.000 A 
ATOM     13  N   UNL     1      -1.220  15.420  19.645  0.00  0.00    +0.000 NA
ATOM     14  N   UNL     1       0.068  15.852  19.662  0.00  0.00    +0.000 N 
ATOM     15  C   UNL     1       0.835  15.163  20.577  0.00  0.00    +0.000 A 
ATOM     16  C   UNL     1       0.012  14.217  21.149  0.00  0.00    +0.000 A 
ATOM     17  C   UNL     1       0.303  13.002  22.000  0.00  0.00    +0.000 C 
ENDROOT
BRANCH   1  26
ATOM     18  C   UNL     1       6.534   4.601  14.946  0.00  0.00    +0.000 C 
ATOM     19  N   UNL     1       5.939   3.621  15.835  0.00  0.00    +0.000 N 
ATOM     20  C   UNL     1       4.992   4.140  16.734  0.00  0.00    +0.000 A 
ATOM     21  C   UNL     1       4.414   3.244  17.632  0.00  0.00    +0.000 A 
ATOM     22  C   UNL     1       3.482   3.707  18.547  0.00  0.00    +0.000 A 
ATOM     23  C   UNL     1       3.162   5.057  18.556  0.00  0.00    +0.000 A 
ATOM     24  C   UNL     1       2.235   5.548  19.465  0.00  0.00    +0.000 A 
ATOM     25  C   UNL     1       1.913   6.892  19.398  0.00  0.00    +0.000 A 
ATOM     26  C   UNL     1       2.470   7.765  18.428  0.00  0.00    +0.000 A 
ATOM     27  C   UNL     1       3.441   7.262  17.570  0.00  0.00    +0.000 A 
ATOM     28  C   UNL     1       3.782   5.911  17.607  0.00  0.00    +0.000 A 
ATOM     29  N   UNL     1       4.690   5.455  16.737  0.00  0.00    +0.000 NA
ATOM     30  H   UNL     1       5.523   2.842  15.332  0.00  0.00    +0.000 HD
ENDBRANCH   1  26
BRANCH  14  31
ATOM     31  C   UNL     1       0.481  17.015  18.842  0.00  0.00    +0.000 C 
ATOM     32  C   UNL     1       1.808  16.656  18.154  0.00  0.00    +0.000 C 
ATOM     33  C   UNL     1      -0.560  17.374  17.756  0.00  0.00    +0.000 C 
ATOM     34  C   UNL     1       0.694  18.294  19.686  0.00  0.00    +0.000 C 
ENDBRANCH  14  31
TORSDOF 2
ENDMDL
MODEL 8
REMARK VINA RESULT:      -8.3      2.507      4.066
REMARK  Name = 
REMARK  6 active torsions:
REMARK  status: ('A' for Active; 'I' for Inactive)
REMARK    1  A    between atoms: C_1  and  N_2
REMARK    2  A    between atoms: C_9  and  C_10
REMARK    3  A    between atoms: N_23  and  C_24
REMARK    4  A    between atoms: C_24  and  C_25
REMARK    5  A    between atoms: C_24  and  C_26
REMARK    6  A    between atoms: C_24  and  C_27
REMARK                            x       y       z     vdW  Elec       q    Type
REMARK                         _______ _______ _______ _____ _____    ______ ____
ROOT
ATOM      1  C   UNL     1       0.510  10.199  19.289  0.00  0.00    +0.000 C 
ATOM      2  O   UNL     1       0.387  10.915  18.277  0.00  0.00    +0.000 OA
ATOM      3  N   UNL     1      -0.133  10.613  20.477  0.00  0.00    +0.000 N 
ATOM      4  C   UNL     1      -1.074  11.616  20.098  0.00  0.00    +0.000 C 
ATOM      5  C   UNL     1      -1.901  12.207  21.225  0.00  0.00    +0.000 C 
ATOM      6  C   UNL     1      -1.755  12.108  22.761  0.00  0.00    +0.000 C 
ATOM      7  C   UNL     1      -0.849  10.876  23.063  0.00  0.00    +0.000 C 
ATOM      8  C   UNL     1      -0.212  10.030  21.845  0.00  0.00    +0.000 C 
ATOM      9  C   UNL     1      -3.237  12.088  23.316  0.00  0.00    +0.000 C 
ATOM     10  C   UNL     1      -4.093  13.231  22.678  0.00  0.00    +0.000 C 
ATOM     11  O   UNL     1      -5.303  13.083  22.487  0.00  0.00    +0.000 OA
ATOM     12  C   UNL     1      -3.340  14.453  22.307  0.00  0.00    +0.000 A 
ATOM     13  N   UNL     1      -3.768  15.444  21.507  0.00  0.00    +0.000 NA
ATOM     14  N   UNL     1      -2.662  16.194  21.260  0.00  0.00    +0.000 N 
ATOM     15  C   UNL     1      -1.555  15.725  21.935  0.00  0.00    +0.000 A 
ATOM     16  C   UNL     1      -1.958  14.600  22.620  0.00  0.00    +0.000 A 
ATOM     17  C   UNL     1      -1.181  13.500  23.309  0.00  0.00    +0.000 C 
ENDROOT
BRANCH   1  26
ATOM     18  C   UNL     1       2.258   3.464  21.704  0.00  0.00    +0.000 C 
ATOM     19  N   UNL     1       3.214   3.533  20.615  0.00  0.00    +0.000 N 
ATOM     20  C   UNL     1       3.159   4.716  19.858  0.00  0.00    +0.000 A 
ATOM     21  C   UNL     1       4.037   4.817  18.779  0.00  0.00    +0.000 A 
ATOM     22  C   UNL     1       4.015   5.958  17.994  0.00  0.00    +0.000 A 
ATOM     23  C   UNL     1       3.106   6.963  18.291  0.00  0.00    +0.000 A 
ATOM     24  C   UNL     1       3.060   8.115  17.517  0.00  0.00    +0.000 A 
ATOM     25  C   UNL     1       2.171   9.107  17.888  0.00  0.00    +0.000 A 
ATOM     26  C   UNL     1       1.337   9.001  19.031  0.00  0.00    +0.000 A 
ATOM     27  C   UNL     1       1.358   7.813  19.753  0.00  0.00    +0.000 A 
ATOM     28  C   UNL     1       2.247   6.797  19.410  0.00  0.00    +0.000 A 
ATOM     29  N   UNL     1       2.268   5.685  20.153  0.00  0.00    +0.000 NA
ATOM     30  H   UNL     1       4.169   3.387  20.928  0.00  0.00    +0.000 HD
ENDBRANCH   1  26
BRANCH  14  31
ATOM     31  C   UNL     1      -2.756  17.424  20.439  0.00  0.00    +0.000 C 
ATOM     32  C   UNL     1      -2.695  18.630  21.391  0.00  0.00    +0.000 C 
ATOM     33  C   UNL     1      -1.603  17.541  19.414  0.00  0.00    +0.000 C 
ATOM     34  C   UNL     1      -4.072  17.501  19.629  0.00  0.00    +0.000 C 
ENDBRANCH  14  31
TORSDOF 2
ENDMDL
MODEL 9
REMARK VINA RESULT:      -8.3      1.965      3.493
REMARK  Name = 
REMARK  6 active torsions:
REMARK  status: ('A' for Active; 'I' for Inactive)
REMARK    1  A    between atoms: C_1  and  N_2
REMARK    2  A    between atoms: C_9  and  C_10
REMARK    3  A    between atoms: N_23  and  C_24
REMARK    4  A    between atoms: C_24  and  C_25
REMARK    5  A    between atoms: C_24  and  C_26
REMARK    6  A    between atoms: C_24  and  C_27
REMARK                            x       y       z     vdW  Elec       q    Type
REMARK                         _______ _______ _______ _____ _____    ______ ____
ROOT
ATOM      1  C   UNL     1       1.397   9.167  19.386  0.00  0.00    +0.000 C 
ATOM      2  O   UNL     1       1.758   9.789  18.368  0.00  0.00    +0.000 OA
ATOM      3  N   UNL     1       0.578   9.841  20.320  0.00  0.00    +0.000 N 
ATOM      4  C   UNL     1       0.080  11.001  19.657  0.00  0.00    +0.000 C 
ATOM      5  C   UNL     1      -0.845  11.884  20.474  0.00  0.00    +0.000 C 
ATOM      6  C   UNL     1      -1.169  11.903  21.986  0.00  0.00    +0.000 C 
ATOM      7  C   UNL     1      -0.742  10.522  22.570  0.00  0.00    +0.000 C 
ATOM      8  C   UNL     1      -0.033   9.431  21.615  0.00  0.00    +0.000 C 
ATOM      9  C   UNL     1      -2.699  12.301  22.075  0.00  0.00    +0.000 C 
ATOM     10  C   UNL     1      -3.009  13.550  21.187  0.00  0.00    +0.000 C 
ATOM     11  O   UNL     1      -4.110  13.685  20.647  0.00  0.00    +0.000 OA
ATOM     12  C   UNL     1      -1.888  14.508  21.031  0.00  0.00    +0.000 A 
ATOM     13  N   UNL     1      -1.797  15.491  20.119  0.00  0.00    +0.000 NA
ATOM     14  N   UNL     1      -0.510  15.919  20.196  0.00  0.00    +0.000 N 
ATOM     15  C   UNL     1       0.198  15.262  21.180  0.00  0.00    +0.000 A 
ATOM     16  C   UNL     1      -0.663  14.342  21.738  0.00  0.00    +0.000 A 
ATOM     17  C   UNL     1      -0.429  13.159  22.649  0.00  0.00    +0.000 C 
ENDROOT
BRANCH   1  26
ATOM     18  C   UNL     1       5.441   4.195  15.757  0.00  0.00    +0.000 C 
ATOM     19  N   UNL     1       4.992   3.331  16.833  0.00  0.00    +0.000 N 
ATOM     20  C   UNL     1       4.185   3.961  17.796  0.00  0.00    +0.000 A 
ATOM     21  C   UNL     1       3.753   3.180  18.868  0.00  0.00    +0.000 A 
ATOM     22  C   UNL     1       2.965   3.757  19.850  0.00  0.00    +0.000 A 
ATOM     23  C   UNL     1       2.640   5.102  19.750  0.00  0.00    +0.000 A 
ATOM     24  C   UNL     1       1.855   5.704  20.724  0.00  0.00    +0.000 A 
ATOM     25  C   UNL     1       1.518   7.035  20.549  0.00  0.00    +0.000 A 
ATOM     26  C   UNL     1       1.919   7.784  19.412  0.00  0.00    +0.000 A 
ATOM     27  C   UNL     1       2.754   7.174  18.484  0.00  0.00    +0.000 A 
ATOM     28  C   UNL     1       3.106   5.834  18.627  0.00  0.00    +0.000 A 
ATOM     29  N   UNL     1       3.878   5.270  17.691  0.00  0.00    +0.000 NA
ATOM     30  H   UNL     1       4.511   2.503  16.491  0.00  0.00    +0.000 HD
ENDBRANCH   1  26
BRANCH  14  31
ATOM     31  C   UNL     1      -0.042  17.049  19.359  0.00  0.00    +0.000 C 
ATOM     32  C   UNL     1       1.185  16.569  18.567  0.00  0.00    +0.000 C 
ATOM     33  C   UNL     1      -1.121  17.532  18.361  0.00  0.00    +0.000 C 
ATOM     34  C   UNL     1       0.364  18.284  20.197  0.00  0.00    +0.000 C 
ENDBRANCH  14  31
TORSDOF 2
ENDMDL
