MODEL 1
REMARK VINA RESULT:      -5.9      0.000      0.000
REMARK  Name = 
REMARK  9 active torsions:
REMARK  status: ('A' for Active; 'I' for Inactive)
REMARK    1  A    between atoms: C_1  and  C_2
REMARK    2  A    between atoms: C_2  and  C_3
REMARK    3  A    between atoms: C_3  and  C_4
REMARK    4  A    between atoms: C_4  and  C_5
REMARK    5  A    between atoms: C_5  and  C_6
REMARK    6  A    between atoms: C_6  and  C_7
REMARK    7  A    between atoms: C_7  and  C_8
REMARK    8  A    between atoms: C_8  and  C_9
REMARK    9  A    between atoms: C_9  and  N_10
REMARK                            x       y       z     vdW  Elec       q    Type
REMARK                         _______ _______ _______ _____ _____    ______ ____
ROOT
ATOM      1  C   UNL     1       4.280   5.083  19.400  0.00  0.00    +0.000 C 
ENDROOT
BRANCH   1   2
ATOM      2  N   UNL     1       5.121   5.163  18.204  0.00  0.00    +0.000 N 
ATOM      3  C   UNL     1       4.588   5.589  17.022  0.00  0.00    +0.000 A 
ATOM      4  C   UNL     1       5.377   5.647  15.873  0.00  0.00    +0.000 A 
ATOM      5  C   UNL     1       6.725   5.266  15.941  0.00  0.00    +0.000 A 
ATOM      6  N   UNL     1       7.475   5.305  14.903  0.00  0.00    +0.000 NA
ATOM      7  C   UNL     1       7.251   4.835  17.157  0.00  0.00    +0.000 A 
ATOM      8  C   UNL     1       6.434   4.785  18.285  0.00  0.00    +0.000 A 
ATOM      9  H   UNL     1       7.122   5.614  13.984  0.00  0.00    +0.000 HD
ENDBRANCH   1   2
BRANCH   1  10
ATOM     10  C   UNL     1       2.980   5.885  19.217  0.00  0.00    +0.000 C 
BRANCH  10  11
ATOM     11  C   UNL     1       2.084   5.819  20.451  0.00  0.00    +0.000 C 
BRANCH  11  12
ATOM     12  C   UNL     1       1.042   4.693  20.356  0.00  0.00    +0.000 C 
BRANCH  12  13
ATOM     13  C   UNL     1       1.555   3.465  21.082  0.00  0.00    +0.000 C 
BRANCH  13  14
ATOM     14  C   UNL     1       1.626   2.250  20.151  0.00  0.00    +0.000 C 
BRANCH  14  15
ATOM     15  C   UNL     1       1.230   2.621  18.717  0.00  0.00    +0.000 C 
BRANCH  15  17
ATOM     16  C   UNL     1       3.524   1.628  18.360  0.00  0.00    +0.000 C 
ATOM     17  C   UNL     1       2.352   2.336  17.702  0.00  0.00    +0.000 C 
ENDBRANCH  15  17
ENDBRANCH  14  15
ENDBRANCH  13  14
ENDBRANCH  12  13
ENDBRANCH  11  12
ENDBRANCH  10  11
ENDBRANCH   1  10
TORSDOF 8
ENDMDL
MODEL 2
REMARK VINA RESULT:      -5.9      0.606      1.348
REMARK  Name = 
REMARK  9 active torsions:
REMARK  status: ('A' for Active; 'I' for Inactive)
REMARK    1  A    between atoms: C_1  and  C_2
REMARK    2  A    between atoms: C_2  and  C_3
REMARK    3  A    between atoms: C_3  and  C_4
REMARK    4  A    between atoms: C_4  and  C_5
REMARK    5  A    between atoms: C_5  and  C_6
REMARK    6  A    between atoms: C_6  and  C_7
REMARK    7  A    between atoms: C_7  and  C_8
REMARK    8  A    between atoms: C_8  and  C_9
REMARK    9  A    between atoms: C_9  and  N_10
REMARK                            x       y       z     vdW  Elec       q    Type
REMARK                         _______ _______ _______ _____ _____    ______ ____
ROOT
ATOM      1  C   UNL     1       4.377   5.586  19.499  0.00  0.00    +0.000 C 
ENDROOT
BRANCH   1   2
ATOM      2  N   UNL     1       5.179   5.448  18.282  0.00  0.00    +0.000 N 
ATOM      3  C   UNL     1       6.373   4.788  18.323  0.00  0.00    +0.000 A 
ATOM      4  C   UNL     1       7.155   4.673  17.173  0.00  0.00    +0.000 A 
ATOM      5  C   UNL     1       6.703   5.238  15.972  0.00  0.00    +0.000 A 
ATOM      6  N   UNL     1       7.399   5.151  14.899  0.00  0.00    +0.000 NA
ATOM      7  C   UNL     1       5.481   5.907  15.949  0.00  0.00    +0.000 A 
ATOM      8  C   UNL     1       4.728   6.008  17.117  0.00  0.00    +0.000 A 
ATOM      9  H   UNL     1       8.310   4.669  14.876  0.00  0.00    +0.000 HD
ENDBRANCH   1   2
BRANCH   1  10
ATOM     10  C   UNL     1       2.976   6.137  19.178  0.00  0.00    +0.000 C 
BRANCH  10  11
ATOM     11  C   UNL     1       1.903   5.549  20.092  0.00  0.00    +0.000 C 
BRANCH  11  12
ATOM     12  C   UNL     1       2.475   4.513  21.072  0.00  0.00    +0.000 C 
BRANCH  12  13
ATOM     13  C   UNL     1       1.600   3.275  21.067  0.00  0.00    +0.000 C 
BRANCH  13  14
ATOM     14  C   UNL     1       0.713   3.218  19.819  0.00  0.00    +0.000 C 
BRANCH  14  15
ATOM     15  C   UNL     1       1.207   2.154  18.831  0.00  0.00    +0.000 C 
BRANCH  15  17
ATOM     16  C   UNL     1       3.576   2.287  17.966  0.00  0.00    +0.000 C 
ATOM     17  C   UNL     1       2.141   2.737  17.755  0.00  0.00    +0.000 C 
ENDBRANCH  15  17
ENDBRANCH  14  15
ENDBRANCH  13  14
ENDBRANCH  12  13
ENDBRANCH  11  12
ENDBRANCH  10  11
ENDBRANCH   1  10
TORSDOF 8
ENDMDL
MODEL 3
REMARK VINA RESULT:      -5.6      2.285      6.231
REMARK  Name = 
REMARK  9 active torsions:
REMARK  status: ('A' for Active; 'I' for Inactive)
REMARK    1  A    between atoms: C_1  and  C_2
REMARK    2  A    between atoms: C_2  and  C_3
REMARK    3  A    between atoms: C_3  and  C_4
REMARK    4  A    between atoms: C_4  and  C_5
REMARK    5  A    between atoms: C_5  and  C_6
REMARK    6  A    between atoms: C_6  and  C_7
REMARK    7  A    between atoms: C_7  and  C_8
REMARK    8  A    between atoms: C_8  and  C_9
REMARK    9  A    between atoms: C_9  and  N_10
REMARK                            x       y       z     vdW  Elec       q    Type
REMARK                         _______ _______ _______ _____ _____    ______ ____
ROOT
ATOM      1  C   UNL     1       2.437   5.578  17.823  0.00  0.00    +0.000 C 
ENDROOT
BRANCH   1   2
ATOM      2  N   UNL     1       2.162   4.726  18.981  0.00  0.00    +0.000 N 
ATOM      3  C   UNL     1       1.360   3.630  18.847  0.00  0.00    +0.000 A 
ATOM      4  C   UNL     1       1.074   2.826  19.951  0.00  0.00    +0.000 A 
ATOM      5  C   UNL     1       1.620   3.151  21.201  0.00  0.00    +0.000 A 
ATOM      6  N   UNL     1       1.374   2.434  22.235  0.00  0.00    +0.000 NA
ATOM      7  C   UNL     1       2.437   4.273  21.318  0.00  0.00    +0.000 A 
ATOM      8  C   UNL     1       2.698   5.057  20.196  0.00  0.00    +0.000 A 
ATOM      9  H   UNL     1       0.771   1.599  22.190  0.00  0.00    +0.000 HD
ENDBRANCH   1   2
BRANCH   1  10
ATOM     10  C   UNL     1       3.915   5.484  17.406  0.00  0.00    +0.000 C 
BRANCH  10  11
ATOM     11  C   UNL     1       4.338   4.049  17.101  0.00  0.00    +0.000 C 
BRANCH  11  12
ATOM     12  C   UNL     1       5.402   3.976  15.995  0.00  0.00    +0.000 C 
BRANCH  12  13
ATOM     13  C   UNL     1       6.411   5.091  16.189  0.00  0.00    +0.000 C 
BRANCH  13  14
ATOM     14  C   UNL     1       7.379   4.779  17.335  0.00  0.00    +0.000 C 
BRANCH  14  15
ATOM     15  C   UNL     1       7.583   6.000  18.242  0.00  0.00    +0.000 C 
BRANCH  15  17
ATOM     16  C   UNL     1       8.185   8.435  17.952  0.00  0.00    +0.000 C 
ATOM     17  C   UNL     1       7.236   7.323  17.537  0.00  0.00    +0.000 C 
ENDBRANCH  15  17
ENDBRANCH  14  15
ENDBRANCH  13  14
ENDBRANCH  12  13
ENDBRANCH  11  12
ENDBRANCH  10  11
ENDBRANCH   1  10
TORSDOF 8
ENDMDL
MODEL 4
REMARK VINA RESULT:      -5.6      2.344      6.320
REMARK  Name = 
REMARK  9 active torsions:
REMARK  status: ('A' for Active; 'I' for Inactive)
REMARK    1  A    between atoms: C_1  and  C_2
REMARK    2  A    between atoms: C_2  and  C_3
REMARK    3  A    between atoms: C_3  and  C_4
REMARK    4  A    between atoms: C_4  and  C_5
REMARK    5  A    between atoms: C_5  and  C_6
REMARK    6  A    between atoms: C_6  and  C_7
REMARK    7  A    between atoms: C_7  and  C_8
REMARK    8  A    between atoms: C_8  and  C_9
REMARK    9  A    between atoms: C_9  and  N_10
REMARK                            x       y       z     vdW  Elec       q    Type
REMARK                         _______ _______ _______ _____ _____    ______ ____
ROOT
ATOM      1  C   UNL     1       2.463   5.929  17.903  0.00  0.00    +0.000 C 
ENDROOT
BRANCH   1   2
ATOM      2  N   UNL     1       2.166   5.019  19.011  0.00  0.00    +0.000 N 
ATOM      3  C   UNL     1       2.594   5.317  20.272  0.00  0.00    +0.000 A 
ATOM      4  C   UNL     1       2.335   4.444  21.329  0.00  0.00    +0.000 A 
ATOM      5  C   UNL     1       1.628   3.257  21.087  0.00  0.00    +0.000 A 
ATOM      6  N   UNL     1       1.376   2.434  22.037  0.00  0.00    +0.000 NA
ATOM      7  C   UNL     1       1.199   2.971  19.793  0.00  0.00    +0.000 A 
ATOM      8  C   UNL     1       1.479   3.862  18.759  0.00  0.00    +0.000 A 
ATOM      9  H   UNL     1       1.681   2.608  23.007  0.00  0.00    +0.000 HD
ENDBRANCH   1   2
BRANCH   1  10
ATOM     10  C   UNL     1       3.952   6.315  17.888  0.00  0.00    +0.000 C 
BRANCH  10  11
ATOM     11  C   UNL     1       4.617   5.989  16.552  0.00  0.00    +0.000 C 
BRANCH  11  12
ATOM     12  C   UNL     1       5.474   4.716  16.623  0.00  0.00    +0.000 C 
BRANCH  12  13
ATOM     13  C   UNL     1       6.937   5.096  16.737  0.00  0.00    +0.000 C 
BRANCH  13  14
ATOM     14  C   UNL     1       7.413   5.071  18.194  0.00  0.00    +0.000 C 
BRANCH  14  15
ATOM     15  C   UNL     1       7.895   6.454  18.648  0.00  0.00    +0.000 C 
BRANCH  15  17
ATOM     16  C   UNL     1       8.199   8.886  18.037  0.00  0.00    +0.000 C 
ATOM     17  C   UNL     1       7.656   7.541  17.584  0.00  0.00    +0.000 C 
ENDBRANCH  15  17
ENDBRANCH  14  15
ENDBRANCH  13  14
ENDBRANCH  12  13
ENDBRANCH  11  12
ENDBRANCH  10  11
ENDBRANCH   1  10
TORSDOF 8
ENDMDL
MODEL 5
REMARK VINA RESULT:      -5.5      0.986      1.521
REMARK  Name = 
REMARK  9 active torsions:
REMARK  status: ('A' for Active; 'I' for Inactive)
REMARK    1  A    between atoms: C_1  and  C_2
REMARK    2  A    between atoms: C_2  and  C_3
REMARK    3  A    between atoms: C_3  and  C_4
REMARK    4  A    between atoms: C_4  and  C_5
REMARK    5  A    between atoms: C_5  and  C_6
REMARK    6  A    between atoms: C_6  and  C_7
REMARK    7  A    between atoms: C_7  and  C_8
REMARK    8  A    between atoms: C_8  and  C_9
REMARK    9  A    between atoms: C_9  and  N_10
REMARK                            x       y       z     vdW  Elec       q    Type
REMARK                         _______ _______ _______ _____ _____    ______ ____
ROOT
ATOM      1  C   UNL     1       5.322   5.406  19.145  0.00  0.00    +0.000 C 
ENDROOT
BRANCH   1   2
ATOM      2  N   UNL     1       5.642   4.950  17.791  0.00  0.00    +0.000 N 
ATOM      3  C   UNL     1       6.938   4.698  17.445  0.00  0.00    +0.000 A 
ATOM      4  C   UNL     1       7.254   4.284  16.150  0.00  0.00    +0.000 A 
ATOM      5  C   UNL     1       6.229   4.126  15.206  0.00  0.00    +0.000 A 
ATOM      6  N   UNL     1       6.487   3.749  14.009  0.00  0.00    +0.000 NA
ATOM      7  C   UNL     1       4.912   4.387  15.579  0.00  0.00    +0.000 A 
ATOM      8  C   UNL     1       4.632   4.804  16.879  0.00  0.00    +0.000 A 
ATOM      9  H   UNL     1       7.449   3.551  13.693  0.00  0.00    +0.000 HD
ENDBRANCH   1   2
BRANCH   1  10
ATOM     10  C   UNL     1       3.819   5.705  19.287  0.00  0.00    +0.000 C 
BRANCH  10  11
ATOM     11  C   UNL     1       3.159   4.840  20.358  0.00  0.00    +0.000 C 
BRANCH  11  12
ATOM     12  C   UNL     1       1.628   4.814  20.224  0.00  0.00    +0.000 C 
BRANCH  12  13
ATOM     13  C   UNL     1       1.087   3.550  20.863  0.00  0.00    +0.000 C 
BRANCH  13  14
ATOM     14  C   UNL     1       1.500   2.300  20.077  0.00  0.00    +0.000 C 
BRANCH  14  15
ATOM     15  C   UNL     1       1.165   2.442  18.587  0.00  0.00    +0.000 C 
BRANCH  15  17
ATOM     16  C   UNL     1       3.540   1.592  18.468  0.00  0.00    +0.000 C 
ATOM     17  C   UNL     1       2.382   2.184  17.682  0.00  0.00    +0.000 C 
ENDBRANCH  15  17
ENDBRANCH  14  15
ENDBRANCH  13  14
ENDBRANCH  12  13
ENDBRANCH  11  12
ENDBRANCH  10  11
ENDBRANCH   1  10
TORSDOF 8
ENDMDL
MODEL 6
REMARK VINA RESULT:      -5.5      1.456      3.242
REMARK  Name = 
REMARK  9 active torsions:
REMARK  status: ('A' for Active; 'I' for Inactive)
REMARK    1  A    between atoms: C_1  and  C_2
REMARK    2  A    between atoms: C_2  and  C_3
REMARK    3  A    between atoms: C_3  and  C_4
REMARK    4  A    between atoms: C_4  and  C_5
REMARK    5  A    between atoms: C_5  and  C_6
REMARK    6  A    between atoms: C_6  and  C_7
REMARK    7  A    between atoms: C_7  and  C_8
REMARK    8  A    between atoms: C_8  and  C_9
REMARK    9  A    between atoms: C_9  and  N_10
REMARK                            x       y       z     vdW  Elec       q    Type
REMARK                         _______ _______ _______ _____ _____    ______ ____
ROOT
ATOM      1  C   UNL     1       3.815   2.597  17.811  0.00  0.00    +0.000 C 
ENDROOT
BRANCH   1   2
ATOM      2  N   UNL     1       4.648   3.786  17.617  0.00  0.00    +0.000 N 
ATOM      3  C   UNL     1       5.404   4.264  18.648  0.00  0.00    +0.000 A 
ATOM      4  C   UNL     1       6.182   5.409  18.479  0.00  0.00    +0.000 A 
ATOM      5  C   UNL     1       6.186   6.065  17.239  0.00  0.00    +0.000 A 
ATOM      6  N   UNL     1       6.889   7.120  17.052  0.00  0.00    +0.000 NA
ATOM      7  C   UNL     1       5.409   5.560  16.198  0.00  0.00    +0.000 A 
ATOM      8  C   UNL     1       4.639   4.417  16.403  0.00  0.00    +0.000 A 
ATOM      9  H   UNL     1       7.474   7.527  17.799  0.00  0.00    +0.000 HD
ENDBRANCH   1   2
BRANCH   1  10
ATOM     10  C   UNL     1       3.071   2.656  19.156  0.00  0.00    +0.000 C 
BRANCH  10  11
ATOM     11  C   UNL     1       1.597   3.017  18.983  0.00  0.00    +0.000 C 
BRANCH  11  12
ATOM     12  C   UNL     1       0.979   3.580  20.272  0.00  0.00    +0.000 C 
BRANCH  12  13
ATOM     13  C   UNL     1       1.959   4.535  20.927  0.00  0.00    +0.000 C 
BRANCH  13  14
ATOM     14  C   UNL     1       1.712   5.983  20.488  0.00  0.00    +0.000 C 
BRANCH  14  15
ATOM     15  C   UNL     1       2.847   6.497  19.595  0.00  0.00    +0.000 C 
BRANCH  15  17
ATOM     16  C   UNL     1       2.167   8.260  17.920  0.00  0.00    +0.000 C 
ATOM     17  C   UNL     1       2.385   6.775  18.154  0.00  0.00    +0.000 C 
ENDBRANCH  15  17
ENDBRANCH  14  15
ENDBRANCH  13  14
ENDBRANCH  12  13
ENDBRANCH  11  12
ENDBRANCH  10  11
ENDBRANCH   1  10
TORSDOF 8
ENDMDL
MODEL 7
REMARK VINA RESULT:      -5.5      2.812      6.260
REMARK  Name = 
REMARK  9 active torsions:
REMARK  status: ('A' for Active; 'I' for Inactive)
REMARK    1  A    between atoms: C_1  and  C_2
REMARK    2  A    between atoms: C_2  and  C_3
REMARK    3  A    between atoms: C_3  and  C_4
REMARK    4  A    between atoms: C_4  and  C_5
REMARK    5  A    between atoms: C_5  and  C_6
REMARK    6  A    between atoms: C_6  and  C_7
REMARK    7  A    between atoms: C_7  and  C_8
REMARK    8  A    between atoms: C_8  and  C_9
REMARK    9  A    between atoms: C_9  and  N_10
REMARK                            x       y       z     vdW  Elec       q    Type
REMARK                         _______ _______ _______ _____ _____    ______ ____
ROOT
ATOM      1  C   UNL     1       3.648   4.093  17.501  0.00  0.00    +0.000 C 
ENDROOT
BRANCH   1   2
ATOM      2  N   UNL     1       3.041   3.693  18.773  0.00  0.00    +0.000 N 
ATOM      3  C   UNL     1       3.772   2.990  19.686  0.00  0.00    +0.000 A 
ATOM      4  C   UNL     1       3.195   2.585  20.890  0.00  0.00    +0.000 A 
ATOM      5  C   UNL     1       1.857   2.910  21.157  0.00  0.00    +0.000 A 
ATOM      6  N   UNL     1       1.297   2.550  22.253  0.00  0.00    +0.000 NA
ATOM      7  C   UNL     1       1.127   3.629  20.213  0.00  0.00    +0.000 A 
ATOM      8  C   UNL     1       1.733   4.013  19.019  0.00  0.00    +0.000 A 
ATOM      9  H   UNL     1       1.802   2.013  22.974  0.00  0.00    +0.000 HD
ENDBRANCH   1   2
BRANCH   1  10
ATOM     10  C   UNL     1       3.792   5.622  17.414  0.00  0.00    +0.000 C 
BRANCH  10  11
ATOM     11  C   UNL     1       4.948   6.041  16.508  0.00  0.00    +0.000 C 
BRANCH  11  12
ATOM     12  C   UNL     1       6.215   5.207  16.757  0.00  0.00    +0.000 C 
BRANCH  12  13
ATOM     13  C   UNL     1       6.805   4.776  15.428  0.00  0.00    +0.000 C 
BRANCH  13  14
ATOM     14  C   UNL     1       5.711   4.417  14.417  0.00  0.00    +0.000 C 
BRANCH  14  15
ATOM     15  C   UNL     1       6.295   3.700  13.193  0.00  0.00    +0.000 C 
BRANCH  15  17
ATOM     16  C   UNL     1       5.572   2.075  11.401  0.00  0.00    +0.000 C 
ATOM     17  C   UNL     1       5.223   3.353  12.145  0.00  0.00    +0.000 C 
ENDBRANCH  15  17
ENDBRANCH  14  15
ENDBRANCH  13  14
ENDBRANCH  12  13
ENDBRANCH  11  12
ENDBRANCH  10  11
ENDBRANCH   1  10
TORSDOF 8
ENDMDL
MODEL 8
REMARK VINA RESULT:      -5.5      2.414      5.872
REMARK  Name = 
REMARK  9 active torsions:
REMARK  status: ('A' for Active; 'I' for Inactive)
REMARK    1  A    between atoms: C_1  and  C_2
REMARK    2  A    between atoms: C_2  and  C_3
REMARK    3  A    between atoms: C_3  and  C_4
REMARK    4  A    between atoms: C_4  and  C_5
REMARK    5  A    between atoms: C_5  and  C_6
REMARK    6  A    between atoms: C_6  and  C_7
REMARK    7  A    between atoms: C_7  and  C_8
REMARK    8  A    between atoms: C_8  and  C_9
REMARK    9  A    between atoms: C_9  and  N_10
REMARK                            x       y       z     vdW  Elec       q    Type
REMARK                         _______ _______ _______ _____ _____    ______ ____
ROOT
ATOM      1  C   UNL     1       3.275   7.138  17.924  0.00  0.00    +0.000 C 
ENDROOT
BRANCH   1   2
ATOM      2  N   UNL     1       2.580   6.042  18.603  0.00  0.00    +0.000 N 
ATOM      3  C   UNL     1       2.120   4.977  17.885  0.00  0.00    +0.000 A 
ATOM      4  C   UNL     1       1.436   3.941  18.522  0.00  0.00    +0.000 A 
ATOM      5  C   UNL     1       1.229   3.999  19.908  0.00  0.00    +0.000 A 
ATOM      6  N   UNL     1       0.604   3.064  20.522  0.00  0.00    +0.000 NA
ATOM      7  C   UNL     1       1.708   5.094  20.624  0.00  0.00    +0.000 A 
ATOM      8  C   UNL     1       2.381   6.115  19.955  0.00  0.00    +0.000 A 
ATOM      9  H   UNL     1       0.230   2.240  20.027  0.00  0.00    +0.000 HD
ENDBRANCH   1   2
BRANCH   1  10
ATOM     10  C   UNL     1       4.376   6.601  16.993  0.00  0.00    +0.000 C 
BRANCH  10  11
ATOM     11  C   UNL     1       5.448   5.826  17.755  0.00  0.00    +0.000 C 
BRANCH  11  12
ATOM     12  C   UNL     1       5.730   4.451  17.130  0.00  0.00    +0.000 C 
BRANCH  12  13
ATOM     13  C   UNL     1       7.109   4.455  16.500  0.00  0.00    +0.000 C 
BRANCH  13  14
ATOM     14  C   UNL     1       7.055   4.879  15.029  0.00  0.00    +0.000 C 
BRANCH  14  15
ATOM     15  C   UNL     1       6.069   4.015  14.234  0.00  0.00    +0.000 C 
BRANCH  15  17
ATOM     16  C   UNL     1       5.581   2.885  12.029  0.00  0.00    +0.000 C 
ATOM     17  C   UNL     1       6.440   3.914  12.744  0.00  0.00    +0.000 C 
ENDBRANCH  15  17
ENDBRANCH  14  15
ENDBRANCH  13  14
ENDBRANCH  12  13
ENDBRANCH  11  12
ENDBRANCH  10  11
ENDBRANCH   1  10
TORSDOF 8
ENDMDL
MODEL 9
REMARK VINA RESULT:      -5.5      2.570      5.758
REMARK  Name = 
REMARK  9 active torsions:
REMARK  status: ('A' for Active; 'I' for Inactive)
REMARK    1  A    between atoms: C_1  and  C_2
REMARK    2  A    between atoms: C_2  and  C_3
REMARK    3  A    between atoms: C_3  and  C_4
REMARK    4  A    between atoms: C_4  and  C_5
REMARK    5  A    between atoms: C_5  and  C_6
REMARK    6  A    between atoms: C_6  and  C_7
REMARK    7  A    between atoms: C_7  and  C_8
REMARK    8  A    between atoms: C_8  and  C_9
REMARK    9  A    between atoms: C_9  and  N_10
REMARK                            x       y       z     vdW  Elec       q    Type
REMARK                         _______ _______ _______ _____ _____    ______ ____
ROOT
ATOM      1  C   UNL     1       4.866   5.205  18.720  0.00  0.00    +0.000 C 
ENDROOT
BRANCH   1   2
ATOM      2  N   UNL     1       3.707   4.312  18.673  0.00  0.00    +0.000 N 
ATOM      3  C   UNL     1       3.529   3.481  17.605  0.00  0.00    +0.000 A 
ATOM      4  C   UNL     1       2.415   2.643  17.543  0.00  0.00    +0.000 A 
ATOM      5  C   UNL     1       1.480   2.657  18.588  0.00  0.00    +0.000 A 
ATOM      6  N   UNL     1       0.446   1.901  18.559  0.00  0.00    +0.000 NA
ATOM      7  C   UNL     1       1.681   3.512  19.670  0.00  0.00    +0.000 A 
ATOM      8  C   UNL     1       2.801   4.340  19.698  0.00  0.00    +0.000 A 
ATOM      9  H   UNL     1       0.260   1.259  17.774  0.00  0.00    +0.000 HD
ENDBRANCH   1   2
BRANCH   1  10
ATOM     10  C   UNL     1       4.612   6.484  17.902  0.00  0.00    +0.000 C 
BRANCH  10  11
ATOM     11  C   UNL     1       5.737   6.766  16.909  0.00  0.00    +0.000 C 
BRANCH  11  12
ATOM     12  C   UNL     1       5.552   6.006  15.587  0.00  0.00    +0.000 C 
BRANCH  12  13
ATOM     13  C   UNL     1       6.752   5.112  15.345  0.00  0.00    +0.000 C 
BRANCH  13  14
ATOM     14  C   UNL     1       6.341   3.778  14.710  0.00  0.00    +0.000 C 
BRANCH  14  15
ATOM     15  C   UNL     1       5.281   3.981  13.622  0.00  0.00    +0.000 C 
BRANCH  15  17
ATOM     16  C   UNL     1       4.452   3.102  11.404  0.00  0.00    +0.000 C 
ATOM     17  C   UNL     1       5.668   3.318  12.288  0.00  0.00    +0.000 C 
ENDBRANCH  15  17
ENDBRANCH  14  15
ENDBRANCH  13  14
ENDBRANCH  12  13
ENDBRANCH  11  12
ENDBRANCH  10  11
ENDBRANCH   1  10
TORSDOF 8
ENDMDL
