MODEL 1
REMARK VINA RESULT:      -7.7      0.000      0.000
REMARK  Name = 
REMARK  2 active torsions:
REMARK  status: ('A' for Active; 'I' for Inactive)
REMARK    1  A    between atoms: C_1  and  N_2
REMARK    2  A    between atoms: C_4  and  C_5
REMARK                            x       y       z     vdW  Elec       q    Type
REMARK                         _______ _______ _______ _____ _____    ______ ____
ROOT
ATOM      1  C   UNL     1       2.397   7.663  19.485  0.00  0.00    +0.000 C 
ATOM      2  C   UNL     1       2.811   7.395  18.054  0.00  0.00    +0.000 C 
ATOM      3  C   UNL     1       3.900   6.353  18.001  0.00  0.00    +0.000 C 
ATOM      4  O   UNL     1       4.877   6.499  17.268  0.00  0.00    +0.000 OA
ATOM      5  C   UNL     1       3.758   5.093  18.789  0.00  0.00    +0.000 A 
ATOM      6  C   UNL     1       4.671   4.058  18.517  0.00  0.00    +0.000 A 
ATOM      7  C   UNL     1       4.583   2.835  19.179  0.00  0.00    +0.000 A 
ATOM      8  C   UNL     1       3.583   2.633  20.122  0.00  0.00    +0.000 A 
ATOM      9  C   UNL     1       2.680   3.659  20.414  0.00  0.00    +0.000 A 
ATOM     10 CL   UNL     1       1.475   3.297  21.612  0.00  0.00    +0.000 Cl
ATOM     11  C   UNL     1       2.757   4.907  19.757  0.00  0.00    +0.000 A 
ATOM     12  S   UNL     1       1.580   6.178  20.173  0.00  0.00    +0.000 S 
ENDROOT
BRANCH   1  16
ATOM     13  C   UNL     1      -1.101  11.086  18.418  0.00  0.00    +0.000 C 
ATOM     14  N   UNL     1      -0.140  10.321  19.182  0.00  0.00    +0.000 N 
ATOM     15  C   UNL     1       0.833   9.534  18.631  0.00  0.00    +0.000 A 
ATOM     16  C   UNL     1       1.429   8.802  19.645  0.00  0.00    +0.000 A 
ATOM     17  C   UNL     1       0.848   9.256  20.874  0.00  0.00    +0.000 A 
ATOM     18  C   UNL     1       1.034   8.906  22.231  0.00  0.00    +0.000 A 
ATOM     19  C   UNL     1       0.248   9.513  23.215  0.00  0.00    +0.000 A 
ATOM     20  C   UNL     1      -0.719  10.450  22.870  0.00  0.00    +0.000 A 
ATOM     21  C   UNL     1      -0.930  10.810  21.536  0.00  0.00    +0.000 A 
ATOM     22  C   UNL     1      -0.133  10.201  20.553  0.00  0.00    +0.000 A 
ENDBRANCH   1  16
TORSDOF 1
ENDMDL
MODEL 2
REMARK VINA RESULT:      -7.4      2.614      6.680
REMARK  Name = 
REMARK  2 active torsions:
REMARK  status: ('A' for Active; 'I' for Inactive)
REMARK    1  A    between atoms: C_1  and  N_2
REMARK    2  A    between atoms: C_4  and  C_5
REMARK                            x       y       z     vdW  Elec       q    Type
REMARK                         _______ _______ _______ _____ _____    ______ ____
ROOT
ATOM      1  C   UNL     1       1.533   7.514  19.429  0.00  0.00    +0.000 C 
ATOM      2  C   UNL     1       1.921   8.675  18.537  0.00  0.00    +0.000 C 
ATOM      3  C   UNL     1       0.839   9.726  18.532  0.00  0.00    +0.000 C 
ATOM      4  O   UNL     1       0.482  10.257  17.482  0.00  0.00    +0.000 OA
ATOM      5  C   UNL     1       0.246  10.185  19.823  0.00  0.00    +0.000 A 
ATOM      6  C   UNL     1      -0.572  11.329  19.784  0.00  0.00    +0.000 A 
ATOM      7  C   UNL     1      -1.131  11.846  20.951  0.00  0.00    +0.000 A 
ATOM      8  C   UNL     1      -0.882  11.226  22.168  0.00  0.00    +0.000 A 
ATOM      9  C   UNL     1      -0.085  10.079  22.218  0.00  0.00    +0.000 A 
ATOM     10 CL   UNL     1       0.154   9.384  23.793  0.00  0.00    +0.000 Cl
ATOM     11  C   UNL     1       0.486   9.537  21.046  0.00  0.00    +0.000 A 
ATOM     12  S   UNL     1       1.490   8.070  21.171  0.00  0.00    +0.000 S 
ENDROOT
BRANCH   1  16
ATOM     13  C   UNL     1       5.775   4.875  19.064  0.00  0.00    +0.000 C 
ATOM     14  N   UNL     1       4.367   5.165  19.224  0.00  0.00    +0.000 N 
ATOM     15  C   UNL     1       3.782   6.358  18.901  0.00  0.00    +0.000 A 
ATOM     16  C   UNL     1       2.479   6.348  19.371  0.00  0.00    +0.000 A 
ATOM     17  C   UNL     1       2.249   5.039  19.908  0.00  0.00    +0.000 A 
ATOM     18  C   UNL     1       1.136   4.418  20.522  0.00  0.00    +0.000 A 
ATOM     19  C   UNL     1       1.254   3.109  21.002  0.00  0.00    +0.000 A 
ATOM     20  C   UNL     1       2.456   2.420  20.888  0.00  0.00    +0.000 A 
ATOM     21  C   UNL     1       3.574   3.012  20.293  0.00  0.00    +0.000 A 
ATOM     22  C   UNL     1       3.446   4.324  19.808  0.00  0.00    +0.000 A 
ENDBRANCH   1  16
TORSDOF 1
ENDMDL
MODEL 3
REMARK VINA RESULT:      -7.4      2.328      2.722
REMARK  Name = 
REMARK  2 active torsions:
REMARK  status: ('A' for Active; 'I' for Inactive)
REMARK    1  A    between atoms: C_1  and  N_2
REMARK    2  A    between atoms: C_4  and  C_5
REMARK                            x       y       z     vdW  Elec       q    Type
REMARK                         _______ _______ _______ _____ _____    ______ ____
ROOT
ATOM      1  C   UNL     1       1.598   7.703  19.294  0.00  0.00    +0.000 C 
ATOM      2  C   UNL     1       1.919   6.858  20.510  0.00  0.00    +0.000 C 
ATOM      3  C   UNL     1       2.092   5.411  20.122  0.00  0.00    +0.000 C 
ATOM      4  O   UNL     1       1.588   4.513  20.795  0.00  0.00    +0.000 OA
ATOM      5  C   UNL     1       2.947   5.056  18.950  0.00  0.00    +0.000 A 
ATOM      6  C   UNL     1       3.273   3.698  18.781  0.00  0.00    +0.000 A 
ATOM      7  C   UNL     1       4.099   3.287  17.737  0.00  0.00    +0.000 A 
ATOM      8  C   UNL     1       4.606   4.227  16.849  0.00  0.00    +0.000 A 
ATOM      9  C   UNL     1       4.277   5.577  16.996  0.00  0.00    +0.000 A 
ATOM     10 CL   UNL     1       4.963   6.662  15.826  0.00  0.00    +0.000 Cl
ATOM     11  C   UNL     1       3.436   6.011  18.045  0.00  0.00    +0.000 A 
ATOM     12  S   UNL     1       3.047   7.746  18.180  0.00  0.00    +0.000 S 
ENDROOT
BRANCH   1  16
ATOM     13  C   UNL     1       0.539  12.560  18.684  0.00  0.00    +0.000 C 
ATOM     14  N   UNL     1       0.765  11.294  19.345  0.00  0.00    +0.000 N 
ATOM     15  C   UNL     1       1.394  10.224  18.771  0.00  0.00    +0.000 A 
ATOM     16  C   UNL     1       1.252   9.131  19.609  0.00  0.00    +0.000 A 
ATOM     17  C   UNL     1       0.592   9.605  20.790  0.00  0.00    +0.000 A 
ATOM     18  C   UNL     1       0.174   8.985  21.990  0.00  0.00    +0.000 A 
ATOM     19  C   UNL     1      -0.513   9.734  22.951  0.00  0.00    +0.000 A 
ATOM     20  C   UNL     1      -0.794  11.078  22.733  0.00  0.00    +0.000 A 
ATOM     21  C   UNL     1      -0.400  11.714  21.552  0.00  0.00    +0.000 A 
ATOM     22  C   UNL     1       0.295  10.957  20.595  0.00  0.00    +0.000 A 
ENDBRANCH   1  16
TORSDOF 1
ENDMDL
MODEL 4
REMARK VINA RESULT:      -7.4      2.649      6.965
REMARK  Name = 
REMARK  2 active torsions:
REMARK  status: ('A' for Active; 'I' for Inactive)
REMARK    1  A    between atoms: C_1  and  N_2
REMARK    2  A    between atoms: C_4  and  C_5
REMARK                            x       y       z     vdW  Elec       q    Type
REMARK                         _______ _______ _______ _____ _____    ______ ____
ROOT
ATOM      1  C   UNL     1       1.550   6.906  19.583  0.00  0.00    +0.000 C 
ATOM      2  C   UNL     1       2.524   7.761  18.799  0.00  0.00    +0.000 C 
ATOM      3  C   UNL     1       1.877   9.060  18.385  0.00  0.00    +0.000 C 
ATOM      4  O   UNL     1       2.026   9.502  17.247  0.00  0.00    +0.000 OA
ATOM      5  C   UNL     1       1.109   9.857  19.387  0.00  0.00    +0.000 A 
ATOM      6  C   UNL     1       0.740  11.164  19.021  0.00  0.00    +0.000 A 
ATOM      7  C   UNL     1       0.057  11.989  19.912  0.00  0.00    +0.000 A 
ATOM      8  C   UNL     1      -0.266  11.517  21.178  0.00  0.00    +0.000 A 
ATOM      9  C   UNL     1       0.080  10.215  21.548  0.00  0.00    +0.000 A 
ATOM     10 CL   UNL     1      -0.378   9.731  23.152  0.00  0.00    +0.000 Cl
ATOM     11  C   UNL     1       0.768   9.363  20.656  0.00  0.00    +0.000 A 
ATOM     12  S   UNL     1       1.180   7.711  21.183  0.00  0.00    +0.000 S 
ENDROOT
BRANCH   1  16
ATOM     13  C   UNL     1       2.143   2.493  21.878  0.00  0.00    +0.000 C 
ATOM     14  N   UNL     1       2.317   3.552  20.908  0.00  0.00    +0.000 N 
ATOM     15  C   UNL     1       1.921   4.847  21.098  0.00  0.00    +0.000 A 
ATOM     16  C   UNL     1       2.057   5.527  19.900  0.00  0.00    +0.000 A 
ATOM     17  C   UNL     1       2.664   4.612  18.978  0.00  0.00    +0.000 A 
ATOM     18  C   UNL     1       3.054   4.708  17.622  0.00  0.00    +0.000 A 
ATOM     19  C   UNL     1       3.582   3.586  16.975  0.00  0.00    +0.000 A 
ATOM     20  C   UNL     1       3.718   2.378  17.650  0.00  0.00    +0.000 A 
ATOM     21  C   UNL     1       3.333   2.253  18.988  0.00  0.00    +0.000 A 
ATOM     22  C   UNL     1       2.810   3.386  19.633  0.00  0.00    +0.000 A 
ENDBRANCH   1  16
TORSDOF 1
ENDMDL
MODEL 5
REMARK VINA RESULT:      -7.3      3.282      7.168
REMARK  Name = 
REMARK  2 active torsions:
REMARK  status: ('A' for Active; 'I' for Inactive)
REMARK    1  A    between atoms: C_1  and  N_2
REMARK    2  A    between atoms: C_4  and  C_5
REMARK                            x       y       z     vdW  Elec       q    Type
REMARK                         _______ _______ _______ _____ _____    ______ ____
ROOT
ATOM      1  C   UNL     1       1.482   8.953  20.141  0.00  0.00    +0.000 C 
ATOM      2  C   UNL     1       0.843   8.458  21.421  0.00  0.00    +0.000 C 
ATOM      3  C   UNL     1       0.360   9.617  22.257  0.00  0.00    +0.000 C 
ATOM      4  O   UNL     1       0.557   9.644  23.471  0.00  0.00    +0.000 OA
ATOM      5  C   UNL     1      -0.434  10.709  21.619  0.00  0.00    +0.000 A 
ATOM      6  C   UNL     1      -1.065  11.629  22.476  0.00  0.00    +0.000 A 
ATOM      7  C   UNL     1      -1.857  12.654  21.964  0.00  0.00    +0.000 A 
ATOM      8  C   UNL     1      -2.026  12.773  20.591  0.00  0.00    +0.000 A 
ATOM      9  C   UNL     1      -1.391  11.876  19.728  0.00  0.00    +0.000 A 
ATOM     10 CL   UNL     1      -1.669  12.123  18.030  0.00  0.00    +0.000 Cl
ATOM     11  C   UNL     1      -0.580  10.834  20.229  0.00  0.00    +0.000 A 
ATOM     12  S   UNL     1       0.208   9.722  19.079  0.00  0.00    +0.000 S 
ENDROOT
BRANCH   1  16
ATOM     13  C   UNL     1       4.449   6.693  16.796  0.00  0.00    +0.000 C 
ATOM     14  N   UNL     1       3.464   6.859  17.843  0.00  0.00    +0.000 N 
ATOM     15  C   UNL     1       2.855   8.044  18.150  0.00  0.00    +0.000 A 
ATOM     16  C   UNL     1       2.135   7.875  19.321  0.00  0.00    +0.000 A 
ATOM     17  C   UNL     1       2.240   6.489  19.669  0.00  0.00    +0.000 A 
ATOM     18  C   UNL     1       1.734   5.709  20.734  0.00  0.00    +0.000 A 
ATOM     19  C   UNL     1       2.074   4.354  20.820  0.00  0.00    +0.000 A 
ATOM     20  C   UNL     1       2.910   3.773  19.874  0.00  0.00    +0.000 A 
ATOM     21  C   UNL     1       3.431   4.523  18.815  0.00  0.00    +0.000 A 
ATOM     22  C   UNL     1       3.080   5.880  18.731  0.00  0.00    +0.000 A 
ENDBRANCH   1  16
TORSDOF 1
ENDMDL
MODEL 6
REMARK VINA RESULT:      -7.2      1.161      2.235
REMARK  Name = 
REMARK  2 active torsions:
REMARK  status: ('A' for Active; 'I' for Inactive)
REMARK    1  A    between atoms: C_1  and  N_2
REMARK    2  A    between atoms: C_4  and  C_5
REMARK                            x       y       z     vdW  Elec       q    Type
REMARK                         _______ _______ _______ _____ _____    ______ ____
ROOT
ATOM      1  C   UNL     1       2.115   7.535  19.988  0.00  0.00    +0.000 C 
ATOM      2  C   UNL     1       2.203   7.472  18.478  0.00  0.00    +0.000 C 
ATOM      3  C   UNL     1       3.285   6.513  18.047  0.00  0.00    +0.000 C 
ATOM      4  O   UNL     1       4.065   6.809  17.144  0.00  0.00    +0.000 OA
ATOM      5  C   UNL     1       3.366   5.160  18.672  0.00  0.00    +0.000 A 
ATOM      6  C   UNL     1       4.228   4.225  18.069  0.00  0.00    +0.000 A 
ATOM      7  C   UNL     1       4.332   2.927  18.565  0.00  0.00    +0.000 A 
ATOM      8  C   UNL     1       3.580   2.549  19.669  0.00  0.00    +0.000 A 
ATOM      9  C   UNL     1       2.733   3.472  20.287  0.00  0.00    +0.000 A 
ATOM     10 CL   UNL     1       1.844   2.891  21.663  0.00  0.00    +0.000 Cl
ATOM     11  C   UNL     1       2.618   4.794  19.802  0.00  0.00    +0.000 A 
ATOM     12  S   UNL     1       1.525   5.929  20.635  0.00  0.00    +0.000 S 
ENDROOT
BRANCH   1  16
ATOM     13  C   UNL     1      -0.807  10.141  23.112  0.00  0.00    +0.000 C 
ATOM     14  N   UNL     1      -0.121   9.759  21.898  0.00  0.00    +0.000 N 
ATOM     15  C   UNL     1       0.430   8.528  21.676  0.00  0.00    +0.000 A 
ATOM     16  C   UNL     1       1.172   8.583  20.508  0.00  0.00    +0.000 A 
ATOM     17  C   UNL     1       0.964   9.889  19.955  0.00  0.00    +0.000 A 
ATOM     18  C   UNL     1       1.439  10.544  18.795  0.00  0.00    +0.000 A 
ATOM     19  C   UNL     1       1.085  11.877  18.561  0.00  0.00    +0.000 A 
ATOM     20  C   UNL     1       0.279  12.564  19.463  0.00  0.00    +0.000 A 
ATOM     21  C   UNL     1      -0.196  11.943  20.622  0.00  0.00    +0.000 A 
ATOM     22  C   UNL     1       0.157  10.603  20.846  0.00  0.00    +0.000 A 
ENDBRANCH   1  16
TORSDOF 1
ENDMDL
MODEL 7
REMARK VINA RESULT:      -6.9      3.198      7.065
REMARK  Name = 
REMARK  2 active torsions:
REMARK  status: ('A' for Active; 'I' for Inactive)
REMARK    1  A    between atoms: C_1  and  N_2
REMARK    2  A    between atoms: C_4  and  C_5
REMARK                            x       y       z     vdW  Elec       q    Type
REMARK                         _______ _______ _______ _____ _____    ______ ____
ROOT
ATOM      1  C   UNL     1       2.242   8.161  18.999  0.00  0.00    +0.000 C 
ATOM      2  C   UNL     1       1.816   7.692  20.374  0.00  0.00    +0.000 C 
ATOM      3  C   UNL     1       1.299   8.847  21.195  0.00  0.00    +0.000 C 
ATOM      4  O   UNL     1       1.629   8.981  22.372  0.00  0.00    +0.000 OA
ATOM      5  C   UNL     1       0.315   9.798  20.596  0.00  0.00    +0.000 A 
ATOM      6  C   UNL     1      -0.316  10.702  21.470  0.00  0.00    +0.000 A 
ATOM      7  C   UNL     1      -1.276  11.596  21.000  0.00  0.00    +0.000 A 
ATOM      8  C   UNL     1      -1.614  11.599  19.653  0.00  0.00    +0.000 A 
ATOM      9  C   UNL     1      -0.982  10.718  18.772  0.00  0.00    +0.000 A 
ATOM     10 CL   UNL     1      -1.479  10.812  17.109  0.00  0.00    +0.000 Cl
ATOM     11  C   UNL     1      -0.002   9.808  19.229  0.00  0.00    +0.000 A 
ATOM     12  S   UNL     1       0.773   8.711  18.058  0.00  0.00    +0.000 S 
ENDROOT
BRANCH   1  16
ATOM     13  C   UNL     1       5.739   5.745  16.349  0.00  0.00    +0.000 C 
ATOM     14  N   UNL     1       4.475   6.016  16.998  0.00  0.00    +0.000 N 
ATOM     15  C   UNL     1       4.072   7.253  17.418  0.00  0.00    +0.000 A 
ATOM     16  C   UNL     1       2.918   7.107  18.168  0.00  0.00    +0.000 A 
ATOM     17  C   UNL     1       2.561   5.720  18.103  0.00  0.00    +0.000 A 
ATOM     18  C   UNL     1       1.504   4.956  18.650  0.00  0.00    +0.000 A 
ATOM     19  C   UNL     1       1.470   3.574  18.440  0.00  0.00    +0.000 A 
ATOM     20  C   UNL     1       2.470   2.945  17.706  0.00  0.00    +0.000 A 
ATOM     21  C   UNL     1       3.531   3.674  17.161  0.00  0.00    +0.000 A 
ATOM     22  C   UNL     1       3.554   5.062  17.370  0.00  0.00    +0.000 A 
ENDBRANCH   1  16
TORSDOF 1
ENDMDL
MODEL 8
REMARK VINA RESULT:      -6.8      2.761      6.843
REMARK  Name = 
REMARK  2 active torsions:
REMARK  status: ('A' for Active; 'I' for Inactive)
REMARK    1  A    between atoms: C_1  and  N_2
REMARK    2  A    between atoms: C_4  and  C_5
REMARK                            x       y       z     vdW  Elec       q    Type
REMARK                         _______ _______ _______ _____ _____    ______ ____
ROOT
ATOM      1  C   UNL     1       1.437   7.979  18.556  0.00  0.00    +0.000 C 
ATOM      2  C   UNL     1       1.262   9.261  17.769  0.00  0.00    +0.000 C 
ATOM      3  C   UNL     1       0.057  10.025  18.257  0.00  0.00    +0.000 C 
ATOM      4  O   UNL     1      -0.732  10.533  17.461  0.00  0.00    +0.000 OA
ATOM      5  C   UNL     1      -0.144  10.234  19.722  0.00  0.00    +0.000 A 
ATOM      6  C   UNL     1      -1.137  11.152  20.109  0.00  0.00    +0.000 A 
ATOM      7  C   UNL     1      -1.361  11.436  21.455  0.00  0.00    +0.000 A 
ATOM      8  C   UNL     1      -0.599  10.803  22.428  0.00  0.00    +0.000 A 
ATOM      9  C   UNL     1       0.379   9.877  22.057  0.00  0.00    +0.000 A 
ATOM     10 CL   UNL     1       1.268   9.143  23.358  0.00  0.00    +0.000 Cl
ATOM     11  C   UNL     1       0.617   9.573  20.699  0.00  0.00    +0.000 A 
ATOM     12  S   UNL     1       1.875   8.379  20.286  0.00  0.00    +0.000 S 
ENDROOT
BRANCH   1  16
ATOM     13  C   UNL     1       5.964   6.298  17.225  0.00  0.00    +0.000 C 
ATOM     14  N   UNL     1       4.535   6.314  17.451  0.00  0.00    +0.000 N 
ATOM     15  C   UNL     1       3.797   7.448  17.651  0.00  0.00    +0.000 A 
ATOM     16  C   UNL     1       2.519   7.077  18.034  0.00  0.00    +0.000 A 
ATOM     17  C   UNL     1       2.469   5.646  17.956  0.00  0.00    +0.000 A 
ATOM     18  C   UNL     1       1.460   4.690  18.214  0.00  0.00    +0.000 A 
ATOM     19  C   UNL     1       1.753   3.327  18.094  0.00  0.00    +0.000 A 
ATOM     20  C   UNL     1       3.028   2.908  17.732  0.00  0.00    +0.000 A 
ATOM     21  C   UNL     1       4.046   3.831  17.479  0.00  0.00    +0.000 A 
ATOM     22  C   UNL     1       3.743   5.197  17.595  0.00  0.00    +0.000 A 
ENDBRANCH   1  16
TORSDOF 1
ENDMDL
MODEL 9
REMARK VINA RESULT:      -6.8      3.376      7.159
REMARK  Name = 
REMARK  2 active torsions:
REMARK  status: ('A' for Active; 'I' for Inactive)
REMARK    1  A    between atoms: C_1  and  N_2
REMARK    2  A    between atoms: C_4  and  C_5
REMARK                            x       y       z     vdW  Elec       q    Type
REMARK                         _______ _______ _______ _____ _____    ______ ____
ROOT
ATOM      1  C   UNL     1       1.719   8.259  20.296  0.00  0.00    +0.000 C 
ATOM      2  C   UNL     1       0.387   7.989  20.964  0.00  0.00    +0.000 C 
ATOM      3  C   UNL     1       0.011   9.126  21.882  0.00  0.00    +0.000 C 
ATOM      4  O   UNL     1      -0.443   8.907  23.003  0.00  0.00    +0.000 OA
ATOM      5  C   UNL     1       0.120  10.534  21.397  0.00  0.00    +0.000 A 
ATOM      6  C   UNL     1      -0.469  11.534  22.192  0.00  0.00    +0.000 A 
ATOM      7  C   UNL     1      -0.447  12.869  21.793  0.00  0.00    +0.000 A 
ATOM      8  C   UNL     1       0.165  13.219  20.597  0.00  0.00    +0.000 A 
ATOM      9  C   UNL     1       0.768  12.238  19.806  0.00  0.00    +0.000 A 
ATOM     10 CL   UNL     1       1.507  12.792  18.334  0.00  0.00    +0.000 Cl
ATOM     11  C   UNL     1       0.761  10.881  20.197  0.00  0.00    +0.000 A 
ATOM     12  S   UNL     1       1.551   9.675  19.149  0.00  0.00    +0.000 S 
ENDROOT
BRANCH   1  16
ATOM     13  C   UNL     1       4.434   5.649  16.994  0.00  0.00    +0.000 C 
ATOM     14  N   UNL     1       3.465   5.935  18.028  0.00  0.00    +0.000 N 
ATOM     15  C   UNL     1       2.997   7.185  18.324  0.00  0.00    +0.000 A 
ATOM     16  C   UNL     1       2.248   7.109  19.487  0.00  0.00    +0.000 A 
ATOM     17  C   UNL     1       2.184   5.721  19.841  0.00  0.00    +0.000 A 
ATOM     18  C   UNL     1       1.577   5.011  20.902  0.00  0.00    +0.000 A 
ATOM     19  C   UNL     1       1.752   3.627  20.997  0.00  0.00    +0.000 A 
ATOM     20  C   UNL     1       2.525   2.946  20.062  0.00  0.00    +0.000 A 
ATOM     21  C   UNL     1       3.143   3.624  19.008  0.00  0.00    +0.000 A 
ATOM     22  C   UNL     1       2.957   5.012  18.915  0.00  0.00    +0.000 A 
ENDBRANCH   1  16
TORSDOF 1
ENDMDL
