MODEL 1
REMARK VINA RESULT:      -6.8      0.000      0.000
REMARK  Name = 
REMARK  9 active torsions:
REMARK  status: ('A' for Active; 'I' for Inactive)
REMARK    1  A    between atoms: C_1  and  C_2
REMARK    2  A    between atoms: C_2  and  C_3
REMARK    3  A    between atoms: C_3  and  C_4
REMARK    4  A    between atoms: C_3  and  N_11
REMARK    5  A    between atoms: C_4  and  O_5
REMARK    6  A    between atoms: O_5  and  C_6
REMARK    7  A    between atoms: C_6  and  P_7
REMARK    8  A    between atoms: P_7  and  O_9
REMARK    9  A    between atoms: P_7  and  O_10
REMARK                            x       y       z     vdW  Elec       q    Type
REMARK                         _______ _______ _______ _____ _____    ______ ____
ROOT
ATOM      1  C   UNL     1       2.712   5.834  17.777  0.00  0.00    +0.000 C 
ENDROOT
BRANCH   1   2
ATOM      2  N   UNL     1       4.110   5.537  18.070  0.00  0.00    +0.000 N 
ATOM      3  C   UNL     1       4.661   5.534  19.330  0.00  0.00    +0.000 A 
ATOM      4  N   UNL     1       5.938   5.221  19.316  0.00  0.00    +0.000 NA
ATOM      5  C   UNL     1       6.232   5.011  17.984  0.00  0.00    +0.000 A 
ATOM      6  C   UNL     1       7.413   4.627  17.327  0.00  0.00    +0.000 A 
ATOM      7  N   UNL     1       8.599   4.345  17.990  0.00  0.00    +0.000 N 
ATOM      8  N   UNL     1       7.401   4.533  15.977  0.00  0.00    +0.000 NA
ATOM      9  C   UNL     1       6.246   4.794  15.330  0.00  0.00    +0.000 A 
ATOM     10  N   UNL     1       5.059   5.168  15.850  0.00  0.00    +0.000 NA
ATOM     11  C   UNL     1       5.120   5.248  17.192  0.00  0.00    +0.000 A 
ATOM     12  H   UNL     1       8.648   4.751  18.918  0.00  0.00    +0.000 HD
ATOM     13  H   UNL     1       9.405   4.441  17.387  0.00  0.00    +0.000 HD
ENDBRANCH   1   2
BRANCH   1  15
ATOM     14  C   UNL     1       2.713   8.396  17.791  0.00  0.00    +0.000 C 
ATOM     15  C   UNL     1       2.164   7.124  18.425  0.00  0.00    +0.000 C 
ENDBRANCH   1  15
BRANCH   1  16
ATOM     16  C   UNL     1       1.838   4.611  18.110  0.00  0.00    +0.000 C 
BRANCH  16  17
ATOM     17  O   UNL     1       2.079   3.540  17.183  0.00  0.00    +0.000 OA
BRANCH  17  18
ATOM     18  C   UNL     1       2.110   2.282  17.874  0.00  0.00    +0.000 C 
BRANCH  18  19
ATOM     19  P   UNL     1       3.606   2.177  18.925  0.00  0.00    +0.000 P 
ATOM     20  O   UNL     1       2.763   1.983  20.192  0.00  0.00    +0.000 OA
BRANCH  19  21
ATOM     21  O   UNL     1       3.893   0.645  18.416  0.00  0.00    +0.000 OA
ATOM     22  H   UNL     1       4.785   0.357  18.689  0.00  0.00    +0.000 HD
ENDBRANCH  19  21
BRANCH  19  23
ATOM     23  O   UNL     1       5.018   2.077  19.918  0.00  0.00    +0.000 OA
ATOM     24  H   UNL     1       5.182   3.001  20.199  0.00  0.00    +0.000 HD
ENDBRANCH  19  23
ENDBRANCH  18  19
ENDBRANCH  17  18
ENDBRANCH  16  17
ENDBRANCH   1  16
TORSDOF 8
ENDMDL
MODEL 2
REMARK VINA RESULT:      -6.6      3.373      5.160
REMARK  Name = 
REMARK  9 active torsions:
REMARK  status: ('A' for Active; 'I' for Inactive)
REMARK    1  A    between atoms: C_1  and  C_2
REMARK    2  A    between atoms: C_2  and  C_3
REMARK    3  A    between atoms: C_3  and  C_4
REMARK    4  A    between atoms: C_3  and  N_11
REMARK    5  A    between atoms: C_4  and  O_5
REMARK    6  A    between atoms: O_5  and  C_6
REMARK    7  A    between atoms: C_6  and  P_7
REMARK    8  A    between atoms: P_7  and  O_9
REMARK    9  A    between atoms: P_7  and  O_10
REMARK                            x       y       z     vdW  Elec       q    Type
REMARK                         _______ _______ _______ _____ _____    ______ ____
ROOT
ATOM      1  C   UNL     1       5.824   5.393  18.275  0.00  0.00    +0.000 C 
ENDROOT
BRANCH   1   2
ATOM      2  N   UNL     1       4.510   5.064  18.818  0.00  0.00    +0.000 N 
ATOM      3  C   UNL     1       3.766   5.896  19.622  0.00  0.00    +0.000 A 
ATOM      4  N   UNL     1       2.614   5.363  19.962  0.00  0.00    +0.000 NA
ATOM      5  C   UNL     1       2.607   4.124  19.352  0.00  0.00    +0.000 A 
ATOM      6  C   UNL     1       1.650   3.097  19.311  0.00  0.00    +0.000 A 
ATOM      7  N   UNL     1       0.411   3.182  19.930  0.00  0.00    +0.000 N 
ATOM      8  N   UNL     1       1.949   1.960  18.642  0.00  0.00    +0.000 NA
ATOM      9  C   UNL     1       3.149   1.879  18.028  0.00  0.00    +0.000 A 
ATOM     10  N   UNL     1       4.140   2.794  17.997  0.00  0.00    +0.000 NA
ATOM     11  C   UNL     1       3.796   3.905  18.675  0.00  0.00    +0.000 A 
ATOM     12  H   UNL     1       0.379   3.872  20.673  0.00  0.00    +0.000 HD
ATOM     13  H   UNL     1       0.012   2.271  20.111  0.00  0.00    +0.000 HD
ENDBRANCH   1   2
BRANCH   1  15
ATOM     14  C   UNL     1       8.072   6.451  18.901  0.00  0.00    +0.000 C 
ATOM     15  C   UNL     1       6.958   5.498  19.318  0.00  0.00    +0.000 C 
ENDBRANCH   1  15
BRANCH   1  16
ATOM     16  C   UNL     1       5.726   6.658  17.404  0.00  0.00    +0.000 C 
BRANCH  16  17
ATOM     17  O   UNL     1       6.148   6.390  16.057  0.00  0.00    +0.000 OA
BRANCH  17  18
ATOM     18  C   UNL     1       5.120   5.685  15.345  0.00  0.00    +0.000 C 
BRANCH  18  19
ATOM     19  P   UNL     1       5.858   4.362  14.317  0.00  0.00    +0.000 P 
ATOM     20  O   UNL     1       7.189   5.116  14.213  0.00  0.00    +0.000 OA
BRANCH  19  21
ATOM     21  O   UNL     1       6.059   3.408  15.635  0.00  0.00    +0.000 OA
ATOM     22  H   UNL     1       5.204   3.261  16.082  0.00  0.00    +0.000 HD
ENDBRANCH  19  21
BRANCH  19  23
ATOM     23  O   UNL     1       6.556   3.113  13.346  0.00  0.00    +0.000 OA
ATOM     24  H   UNL     1       7.116   2.606  13.970  0.00  0.00    +0.000 HD
ENDBRANCH  19  23
ENDBRANCH  18  19
ENDBRANCH  17  18
ENDBRANCH  16  17
ENDBRANCH   1  16
TORSDOF 8
ENDMDL
MODEL 3
REMARK VINA RESULT:      -6.5      0.838      1.231
REMARK  Name = 
REMARK  9 active torsions:
REMARK  status: ('A' for Active; 'I' for Inactive)
REMARK    1  A    between atoms: C_1  and  C_2
REMARK    2  A    between atoms: C_2  and  C_3
REMARK    3  A    between atoms: C_3  and  C_4
REMARK    4  A    between atoms: C_3  and  N_11
REMARK    5  A    between atoms: C_4  and  O_5
REMARK    6  A    between atoms: O_5  and  C_6
REMARK    7  A    between atoms: C_6  and  P_7
REMARK    8  A    between atoms: P_7  and  O_9
REMARK    9  A    between atoms: P_7  and  O_10
REMARK                            x       y       z     vdW  Elec       q    Type
REMARK                         _______ _______ _______ _____ _____    ______ ____
ROOT
ATOM      1  C   UNL     1       2.802   6.380  17.958  0.00  0.00    +0.000 C 
ENDROOT
BRANCH   1   2
ATOM      2  N   UNL     1       4.137   5.838  18.181  0.00  0.00    +0.000 N 
ATOM      3  C   UNL     1       4.642   5.484  19.410  0.00  0.00    +0.000 A 
ATOM      4  N   UNL     1       5.866   5.010  19.331  0.00  0.00    +0.000 NA
ATOM      5  C   UNL     1       6.173   5.059  17.985  0.00  0.00    +0.000 A 
ATOM      6  C   UNL     1       7.313   4.671  17.263  0.00  0.00    +0.000 A 
ATOM      7  N   UNL     1       8.429   4.090  17.850  0.00  0.00    +0.000 N 
ATOM      8  N   UNL     1       7.333   4.877  15.926  0.00  0.00    +0.000 NA
ATOM      9  C   UNL     1       6.244   5.429  15.350  0.00  0.00    +0.000 A 
ATOM     10  N   UNL     1       5.101   5.838  15.936  0.00  0.00    +0.000 NA
ATOM     11  C   UNL     1       5.128   5.613  17.263  0.00  0.00    +0.000 A 
ATOM     12  H   UNL     1       8.501   4.273  18.844  0.00  0.00    +0.000 HD
ATOM     13  H   UNL     1       9.260   4.205  17.285  0.00  0.00    +0.000 HD
ENDBRANCH   1   2
BRANCH   1  15
ATOM     14  C   UNL     1       1.864   7.663  19.968  0.00  0.00    +0.000 C 
ATOM     15  C   UNL     1       2.535   7.757  18.604  0.00  0.00    +0.000 C 
ENDBRANCH   1  15
BRANCH   1  16
ATOM     16  C   UNL     1       1.742   5.341  18.367  0.00  0.00    +0.000 C 
BRANCH  16  17
ATOM     17  O   UNL     1       2.052   4.049  17.823  0.00  0.00    +0.000 OA
BRANCH  17  18
ATOM     18  C   UNL     1       1.876   3.032  18.822  0.00  0.00    +0.000 C 
BRANCH  18  19
ATOM     19  P   UNL     1       3.181   1.758  18.662  0.00  0.00    +0.000 P 
ATOM     20  O   UNL     1       3.829   2.497  17.485  0.00  0.00    +0.000 OA
BRANCH  19  21
ATOM     21  O   UNL     1       3.968   2.356  19.971  0.00  0.00    +0.000 OA
ATOM     22  H   UNL     1       4.435   1.641  20.443  0.00  0.00    +0.000 HD
ENDBRANCH  19  21
BRANCH  19  23
ATOM     23  O   UNL     1       4.414   0.555  18.512  0.00  0.00    +0.000 OA
ATOM     24  H   UNL     1       4.628   0.311  19.436  0.00  0.00    +0.000 HD
ENDBRANCH  19  23
ENDBRANCH  18  19
ENDBRANCH  17  18
ENDBRANCH  16  17
ENDBRANCH   1  16
TORSDOF 8
ENDMDL
MODEL 4
REMARK VINA RESULT:      -6.4      3.484      4.942
REMARK  Name = 
REMARK  9 active torsions:
REMARK  status: ('A' for Active; 'I' for Inactive)
REMARK    1  A    between atoms: C_1  and  C_2
REMARK    2  A    between atoms: C_2  and  C_3
REMARK    3  A    between atoms: C_3  and  C_4
REMARK    4  A    between atoms: C_3  and  N_11
REMARK    5  A    between atoms: C_4  and  O_5
REMARK    6  A    between atoms: O_5  and  C_6
REMARK    7  A    between atoms: C_6  and  P_7
REMARK    8  A    between atoms: P_7  and  O_9
REMARK    9  A    between atoms: P_7  and  O_10
REMARK                            x       y       z     vdW  Elec       q    Type
REMARK                         _______ _______ _______ _____ _____    ______ ____
ROOT
ATOM      1  C   UNL     1       2.926   4.845  19.549  0.00  0.00    +0.000 C 
ENDROOT
BRANCH   1   2
ATOM      2  N   UNL     1       3.927   4.639  18.507  0.00  0.00    +0.000 N 
ATOM      3  C   UNL     1       3.672   4.075  17.278  0.00  0.00    +0.000 A 
ATOM      4  N   UNL     1       4.746   4.018  16.522  0.00  0.00    +0.000 NA
ATOM      5  C   UNL     1       5.748   4.569  17.296  0.00  0.00    +0.000 A 
ATOM      6  C   UNL     1       7.108   4.814  17.043  0.00  0.00    +0.000 A 
ATOM      7  N   UNL     1       7.724   4.529  15.833  0.00  0.00    +0.000 N 
ATOM      8  N   UNL     1       7.862   5.349  18.031  0.00  0.00    +0.000 NA
ATOM      9  C   UNL     1       7.263   5.639  19.205  0.00  0.00    +0.000 A 
ATOM     10  N   UNL     1       5.976   5.450  19.560  0.00  0.00    +0.000 NA
ATOM     11  C   UNL     1       5.266   4.917  18.547  0.00  0.00    +0.000 A 
ATOM     12  H   UNL     1       7.225   3.842  15.280  0.00  0.00    +0.000 HD
ATOM     13  H   UNL     1       8.725   4.424  15.930  0.00  0.00    +0.000 HD
ENDBRANCH   1   2
BRANCH   1  15
ATOM     14  C   UNL     1       1.337   3.275  20.804  0.00  0.00    +0.000 C 
ATOM     15  C   UNL     1       1.694   3.918  19.469  0.00  0.00    +0.000 C 
ENDBRANCH   1  15
BRANCH   1  16
ATOM     16  C   UNL     1       2.524   6.329  19.598  0.00  0.00    +0.000 C 
BRANCH  16  17
ATOM     17  O   UNL     1       2.268   6.838  18.279  0.00  0.00    +0.000 OA
BRANCH  17  18
ATOM     18  C   UNL     1       2.685   8.208  18.183  0.00  0.00    +0.000 C 
BRANCH  18  19
ATOM     19  P   UNL     1       1.228   9.301  18.001  0.00  0.00    +0.000 P 
ATOM     20  O   UNL     1       1.153   9.538  19.514  0.00  0.00    +0.000 OA
BRANCH  19  21
ATOM     21  O   UNL     1       2.176  10.527  17.466  0.00  0.00    +0.000 OA
ATOM     22  H   UNL     1       2.318  11.182  18.176  0.00  0.00    +0.000 HD
ENDBRANCH  19  21
BRANCH  19  23
ATOM     23  O   UNL     1      -0.148  10.334  17.828  0.00  0.00    +0.000 OA
ATOM     24  H   UNL     1      -0.576  10.315  18.709  0.00  0.00    +0.000 HD
ENDBRANCH  19  23
ENDBRANCH  18  19
ENDBRANCH  17  18
ENDBRANCH  16  17
ENDBRANCH   1  16
TORSDOF 8
ENDMDL
MODEL 5
REMARK VINA RESULT:      -6.4      3.249      5.040
REMARK  Name = 
REMARK  9 active torsions:
REMARK  status: ('A' for Active; 'I' for Inactive)
REMARK    1  A    between atoms: C_1  and  C_2
REMARK    2  A    between atoms: C_2  and  C_3
REMARK    3  A    between atoms: C_3  and  C_4
REMARK    4  A    between atoms: C_3  and  N_11
REMARK    5  A    between atoms: C_4  and  O_5
REMARK    6  A    between atoms: O_5  and  C_6
REMARK    7  A    between atoms: C_6  and  P_7
REMARK    8  A    between atoms: P_7  and  O_9
REMARK    9  A    between atoms: P_7  and  O_10
REMARK                            x       y       z     vdW  Elec       q    Type
REMARK                         _______ _______ _______ _____ _____    ______ ____
ROOT
ATOM      1  C   UNL     1       4.946   4.827  15.782  0.00  0.00    +0.000 C 
ENDROOT
BRANCH   1   2
ATOM      2  N   UNL     1       4.315   4.477  17.050  0.00  0.00    +0.000 N 
ATOM      3  C   UNL     1       4.307   3.215  17.597  0.00  0.00    +0.000 A 
ATOM      4  N   UNL     1       3.680   3.175  18.752  0.00  0.00    +0.000 NA
ATOM      5  C   UNL     1       3.259   4.473  18.967  0.00  0.00    +0.000 A 
ATOM      6  C   UNL     1       2.565   5.076  20.028  0.00  0.00    +0.000 A 
ATOM      7  N   UNL     1       2.167   4.392  21.168  0.00  0.00    +0.000 N 
ATOM      8  N   UNL     1       2.260   6.391  19.937  0.00  0.00    +0.000 NA
ATOM      9  C   UNL     1       2.657   7.063  18.835  0.00  0.00    +0.000 A 
ATOM     10  N   UNL     1       3.324   6.593  17.761  0.00  0.00    +0.000 NA
ATOM     11  C   UNL     1       3.605   5.284  17.898  0.00  0.00    +0.000 A 
ATOM     12  H   UNL     1       2.111   3.389  21.036  0.00  0.00    +0.000 HD
ATOM     13  H   UNL     1       1.400   4.852  21.640  0.00  0.00    +0.000 HD
ENDBRANCH   1   2
BRANCH   1  15
ATOM     14  C   UNL     1       6.071   3.832  13.706  0.00  0.00    +0.000 C 
ATOM     15  C   UNL     1       5.924   3.772  15.221  0.00  0.00    +0.000 C 
ENDBRANCH   1  15
BRANCH   1  16
ATOM     16  C   UNL     1       5.602   6.215  15.892  0.00  0.00    +0.000 C 
BRANCH  16  17
ATOM     17  O   UNL     1       6.918   6.118  16.459  0.00  0.00    +0.000 OA
BRANCH  17  18
ATOM     18  C   UNL     1       7.006   6.913  17.652  0.00  0.00    +0.000 C 
BRANCH  18  19
ATOM     19  P   UNL     1       7.832   5.965  18.982  0.00  0.00    +0.000 P 
ATOM     20  O   UNL     1       6.495   5.682  19.679  0.00  0.00    +0.000 OA
BRANCH  19  21
ATOM     21  O   UNL     1       8.026   4.677  17.986  0.00  0.00    +0.000 OA
ATOM     22  H   UNL     1       8.863   4.754  17.490  0.00  0.00    +0.000 HD
ENDBRANCH  19  21
BRANCH  19  23
ATOM     23  O   UNL     1       8.611   5.068  20.239  0.00  0.00    +0.000 OA
ATOM     24  H   UNL     1       7.881   4.588  20.681  0.00  0.00    +0.000 HD
ENDBRANCH  19  23
ENDBRANCH  18  19
ENDBRANCH  17  18
ENDBRANCH  16  17
ENDBRANCH   1  16
TORSDOF 8
ENDMDL
MODEL 6
REMARK VINA RESULT:      -6.3      1.318      1.488
REMARK  Name = 
REMARK  9 active torsions:
REMARK  status: ('A' for Active; 'I' for Inactive)
REMARK    1  A    between atoms: C_1  and  C_2
REMARK    2  A    between atoms: C_2  and  C_3
REMARK    3  A    between atoms: C_3  and  C_4
REMARK    4  A    between atoms: C_3  and  N_11
REMARK    5  A    between atoms: C_4  and  O_5
REMARK    6  A    between atoms: O_5  and  C_6
REMARK    7  A    between atoms: C_6  and  P_7
REMARK    8  A    between atoms: P_7  and  O_9
REMARK    9  A    between atoms: P_7  and  O_10
REMARK                            x       y       z     vdW  Elec       q    Type
REMARK                         _______ _______ _______ _____ _____    ______ ____
ROOT
ATOM      1  C   UNL     1       2.729   5.801  17.938  0.00  0.00    +0.000 C 
ENDROOT
BRANCH   1   2
ATOM      2  N   UNL     1       4.121   5.429  18.167  0.00  0.00    +0.000 N 
ATOM      3  C   UNL     1       4.682   5.223  19.405  0.00  0.00    +0.000 A 
ATOM      4  N   UNL     1       5.951   4.886  19.329  0.00  0.00    +0.000 NA
ATOM      5  C   UNL     1       6.229   4.872  17.977  0.00  0.00    +0.000 A 
ATOM      6  C   UNL     1       7.394   4.563  17.257  0.00  0.00    +0.000 A 
ATOM      7  N   UNL     1       8.578   4.156  17.855  0.00  0.00    +0.000 N 
ATOM      8  N   UNL     1       7.370   4.674  15.908  0.00  0.00    +0.000 NA
ATOM      9  C   UNL     1       6.216   5.058  15.321  0.00  0.00    +0.000 A 
ATOM     10  N   UNL     1       5.043   5.377  15.905  0.00  0.00    +0.000 NA
ATOM     11  C   UNL     1       5.117   5.252  17.243  0.00  0.00    +0.000 A 
ATOM     12  H   UNL     1       8.645   4.417  18.833  0.00  0.00    +0.000 HD
ATOM     13  H   UNL     1       9.382   4.322  17.264  0.00  0.00    +0.000 HD
ENDBRANCH   1   2
BRANCH   1  15
ATOM     14  C   UNL     1       2.828   8.347  17.673  0.00  0.00    +0.000 C 
ATOM     15  C   UNL     1       2.315   7.177  18.503  0.00  0.00    +0.000 C 
ENDBRANCH   1  15
BRANCH   1  16
ATOM     16  C   UNL     1       1.802   4.676  18.433  0.00  0.00    +0.000 C 
BRANCH  16  17
ATOM     17  O   UNL     1       1.207   5.017  19.695  0.00  0.00    +0.000 OA
BRANCH  17  18
ATOM     18  C   UNL     1       0.808   3.828  20.395  0.00  0.00    +0.000 C 
BRANCH  18  19
ATOM     19  P   UNL     1       2.283   2.926  20.997  0.00  0.00    +0.000 P 
ATOM     20  O   UNL     1       1.538   2.439  22.246  0.00  0.00    +0.000 OA
BRANCH  19  21
ATOM     21  O   UNL     1       2.031   1.727  19.907  0.00  0.00    +0.000 OA
ATOM     22  H   UNL     1       2.039   0.857  20.350  0.00  0.00    +0.000 HD
ENDBRANCH  19  21
BRANCH  19  23
ATOM     23  O   UNL     1       3.675   2.073  21.565  0.00  0.00    +0.000 OA
ATOM     24  H   UNL     1       3.923   2.537  22.391  0.00  0.00    +0.000 HD
ENDBRANCH  19  23
ENDBRANCH  18  19
ENDBRANCH  17  18
ENDBRANCH  16  17
ENDBRANCH   1  16
TORSDOF 8
ENDMDL
MODEL 7
REMARK VINA RESULT:      -6.2      1.441      1.845
REMARK  Name = 
REMARK  9 active torsions:
REMARK  status: ('A' for Active; 'I' for Inactive)
REMARK    1  A    between atoms: C_1  and  C_2
REMARK    2  A    between atoms: C_2  and  C_3
REMARK    3  A    between atoms: C_3  and  C_4
REMARK    4  A    between atoms: C_3  and  N_11
REMARK    5  A    between atoms: C_4  and  O_5
REMARK    6  A    between atoms: O_5  and  C_6
REMARK    7  A    between atoms: C_6  and  P_7
REMARK    8  A    between atoms: P_7  and  O_9
REMARK    9  A    between atoms: P_7  and  O_10
REMARK                            x       y       z     vdW  Elec       q    Type
REMARK                         _______ _______ _______ _____ _____    ______ ____
ROOT
ATOM      1  C   UNL     1       2.989   6.358  17.965  0.00  0.00    +0.000 C 
ENDROOT
BRANCH   1   2
ATOM      2  N   UNL     1       4.322   5.810  18.192  0.00  0.00    +0.000 N 
ATOM      3  C   UNL     1       4.832   5.481  19.425  0.00  0.00    +0.000 A 
ATOM      4  N   UNL     1       6.051   4.995  19.349  0.00  0.00    +0.000 NA
ATOM      5  C   UNL     1       6.349   5.010  18.001  0.00  0.00    +0.000 A 
ATOM      6  C   UNL     1       7.481   4.594  17.280  0.00  0.00    +0.000 A 
ATOM      7  N   UNL     1       8.596   4.019  17.873  0.00  0.00    +0.000 N 
ATOM      8  N   UNL     1       7.493   4.769  15.938  0.00  0.00    +0.000 NA
ATOM      9  C   UNL     1       6.405   5.316  15.357  0.00  0.00    +0.000 A 
ATOM     10  N   UNL     1       5.269   5.749  15.941  0.00  0.00    +0.000 NA
ATOM     11  C   UNL     1       5.304   5.555  17.273  0.00  0.00    +0.000 A 
ATOM     12  H   UNL     1       8.677   4.225  18.862  0.00  0.00    +0.000 HD
ATOM     13  H   UNL     1       9.424   4.113  17.300  0.00  0.00    +0.000 HD
ENDBRANCH   1   2
BRANCH   1  15
ATOM     14  C   UNL     1       1.660   8.539  17.756  0.00  0.00    +0.000 C 
ATOM     15  C   UNL     1       2.772   7.795  18.486  0.00  0.00    +0.000 C 
ENDBRANCH   1  15
BRANCH   1  16
ATOM     16  C   UNL     1       1.926   5.385  18.507  0.00  0.00    +0.000 C 
BRANCH  16  17
ATOM     17  O   UNL     1       1.706   5.594  19.911  0.00  0.00    +0.000 OA
BRANCH  17  18
ATOM     18  C   UNL     1       1.159   4.409  20.511  0.00  0.00    +0.000 C 
BRANCH  18  19
ATOM     19  P   UNL     1       1.479   2.957  19.443  0.00  0.00    +0.000 P 
ATOM     20  O   UNL     1       2.139   2.191  20.597  0.00  0.00    +0.000 OA
BRANCH  19  21
ATOM     21  O   UNL     1      -0.095   2.506  19.533  0.00  0.00    +0.000 OA
ATOM     22  H   UNL     1      -0.236   1.666  19.057  0.00  0.00    +0.000 HD
ENDBRANCH  19  21
BRANCH  19  23
ATOM     23  O   UNL     1       1.780   1.584  18.436  0.00  0.00    +0.000 OA
ATOM     24  H   UNL     1       1.436   1.848  17.558  0.00  0.00    +0.000 HD
ENDBRANCH  19  23
ENDBRANCH  18  19
ENDBRANCH  17  18
ENDBRANCH  16  17
ENDBRANCH   1  16
TORSDOF 8
ENDMDL
MODEL 8
REMARK VINA RESULT:      -6.2      3.657      5.372
REMARK  Name = 
REMARK  9 active torsions:
REMARK  status: ('A' for Active; 'I' for Inactive)
REMARK    1  A    between atoms: C_1  and  C_2
REMARK    2  A    between atoms: C_2  and  C_3
REMARK    3  A    between atoms: C_3  and  C_4
REMARK    4  A    between atoms: C_3  and  N_11
REMARK    5  A    between atoms: C_4  and  O_5
REMARK    6  A    between atoms: O_5  and  C_6
REMARK    7  A    between atoms: C_6  and  P_7
REMARK    8  A    between atoms: P_7  and  O_9
REMARK    9  A    between atoms: P_7  and  O_10
REMARK                            x       y       z     vdW  Elec       q    Type
REMARK                         _______ _______ _______ _____ _____    ______ ____
ROOT
ATOM      1  C   UNL     1       5.701   5.765  17.880  0.00  0.00    +0.000 C 
ENDROOT
BRANCH   1   2
ATOM      2  N   UNL     1       4.442   5.466  18.553  0.00  0.00    +0.000 N 
ATOM      3  C   UNL     1       3.370   6.324  18.623  0.00  0.00    +0.000 A 
ATOM      4  N   UNL     1       2.355   5.803  19.277  0.00  0.00    +0.000 NA
ATOM      5  C   UNL     1       2.787   4.547  19.652  0.00  0.00    +0.000 A 
ATOM      6  C   UNL     1       2.158   3.500  20.345  0.00  0.00    +0.000 A 
ATOM      7  N   UNL     1       0.847   3.561  20.796  0.00  0.00    +0.000 N 
ATOM      8  N   UNL     1       2.864   2.374  20.596  0.00  0.00    +0.000 NA
ATOM      9  C   UNL     1       4.136   2.306  20.148  0.00  0.00    +0.000 A 
ATOM     10  N   UNL     1       4.840   3.239  19.476  0.00  0.00    +0.000 NA
ATOM     11  C   UNL     1       4.097   4.339  19.250  0.00  0.00    +0.000 A 
ATOM     12  H   UNL     1       0.497   4.508  20.888  0.00  0.00    +0.000 HD
ATOM     13  H   UNL     1       0.674   2.916  21.555  0.00  0.00    +0.000 HD
ENDBRANCH   1   2
BRANCH   1  15
ATOM     14  C   UNL     1       7.916   6.952  18.379  0.00  0.00    +0.000 C 
ATOM     15  C   UNL     1       6.932   5.869  18.805  0.00  0.00    +0.000 C 
ENDBRANCH   1  15
BRANCH   1  16
ATOM     16  C   UNL     1       5.537   7.019  17.002  0.00  0.00    +0.000 C 
BRANCH  16  17
ATOM     17  O   UNL     1       5.354   6.661  15.623  0.00  0.00    +0.000 OA
BRANCH  17  18
ATOM     18  C   UNL     1       5.464   5.238  15.459  0.00  0.00    +0.000 C 
BRANCH  18  19
ATOM     19  P   UNL     1       6.397   4.849  13.932  0.00  0.00    +0.000 P 
ATOM     20  O   UNL     1       7.707   5.361  14.543  0.00  0.00    +0.000 OA
BRANCH  19  21
ATOM     21  O   UNL     1       6.397   3.252  14.303  0.00  0.00    +0.000 OA
ATOM     22  H   UNL     1       6.414   3.128  15.272  0.00  0.00    +0.000 HD
ENDBRANCH  19  21
BRANCH  19  23
ATOM     23  O   UNL     1       7.279   4.481  12.491  0.00  0.00    +0.000 OA
ATOM     24  H   UNL     1       7.484   3.527  12.571  0.00  0.00    +0.000 HD
ENDBRANCH  19  23
ENDBRANCH  18  19
ENDBRANCH  17  18
ENDBRANCH  16  17
ENDBRANCH   1  16
TORSDOF 8
ENDMDL
MODEL 9
REMARK VINA RESULT:      -6.2      4.061      5.140
REMARK  Name = 
REMARK  9 active torsions:
REMARK  status: ('A' for Active; 'I' for Inactive)
REMARK    1  A    between atoms: C_1  and  C_2
REMARK    2  A    between atoms: C_2  and  C_3
REMARK    3  A    between atoms: C_3  and  C_4
REMARK    4  A    between atoms: C_3  and  N_11
REMARK    5  A    between atoms: C_4  and  O_5
REMARK    6  A    between atoms: O_5  and  C_6
REMARK    7  A    between atoms: C_6  and  P_7
REMARK    8  A    between atoms: P_7  and  O_9
REMARK    9  A    between atoms: P_7  and  O_10
REMARK                            x       y       z     vdW  Elec       q    Type
REMARK                         _______ _______ _______ _____ _____    ______ ____
ROOT
ATOM      1  C   UNL     1       3.041   4.975  19.787  0.00  0.00    +0.000 C 
ENDROOT
BRANCH   1   2
ATOM      2  N   UNL     1       3.977   4.740  18.694  0.00  0.00    +0.000 N 
ATOM      3  C   UNL     1       3.628   4.253  17.456  0.00  0.00    +0.000 A 
ATOM      4  N   UNL     1       4.662   4.147  16.650  0.00  0.00    +0.000 NA
ATOM      5  C   UNL     1       5.736   4.585  17.400  0.00  0.00    +0.000 A 
ATOM      6  C   UNL     1       7.098   4.738  17.096  0.00  0.00    +0.000 A 
ATOM      7  N   UNL     1       7.640   4.461  15.849  0.00  0.00    +0.000 N 
ATOM      8  N   UNL     1       7.933   5.169  18.070  0.00  0.00    +0.000 NA
ATOM      9  C   UNL     1       7.408   5.452  19.281  0.00  0.00    +0.000 A 
ATOM     10  N   UNL     1       6.126   5.346  19.685  0.00  0.00    +0.000 NA
ATOM     11  C   UNL     1       5.335   4.914  18.685  0.00  0.00    +0.000 A 
ATOM     12  H   UNL     1       7.066   3.838  15.291  0.00  0.00    +0.000 HD
ATOM     13  H   UNL     1       8.632   4.276  15.896  0.00  0.00    +0.000 HD
ENDBRANCH   1   2
BRANCH   1  15
ATOM     14  C   UNL     1       2.119   3.357  21.547  0.00  0.00    +0.000 C 
ATOM     15  C   UNL     1       2.079   3.806  20.091  0.00  0.00    +0.000 C 
ENDBRANCH   1  15
BRANCH   1  16
ATOM     16  C   UNL     1       2.282   6.293  19.549  0.00  0.00    +0.000 C 
BRANCH  16  17
ATOM     17  O   UNL     1       1.683   6.769  20.765  0.00  0.00    +0.000 OA
BRANCH  17  18
ATOM     18  C   UNL     1       1.548   8.198  20.728  0.00  0.00    +0.000 C 
BRANCH  18  19
ATOM     19  P   UNL     1       0.347   8.751  21.993  0.00  0.00    +0.000 P 
ATOM     20  O   UNL     1       1.365   9.718  22.609  0.00  0.00    +0.000 OA
BRANCH  19  21
ATOM     21  O   UNL     1      -0.439   9.673  20.888  0.00  0.00    +0.000 OA
ATOM     22  H   UNL     1       0.199  10.100  20.285  0.00  0.00    +0.000 HD
ENDBRANCH  19  21
BRANCH  19  23
ATOM     23  O   UNL     1      -0.788   9.276  23.189  0.00  0.00    +0.000 OA
ATOM     24  H   UNL     1      -1.630   9.368  22.698  0.00  0.00    +0.000 HD
ENDBRANCH  19  23
ENDBRANCH  18  19
ENDBRANCH  17  18
ENDBRANCH  16  17
ENDBRANCH   1  16
TORSDOF 8
ENDMDL
