MODEL 1
REMARK VINA RESULT:      -7.3      0.000      0.000
REMARK  Name = 
REMARK  2 active torsions:
REMARK  status: ('A' for Active; 'I' for Inactive)
REMARK    1  A    between atoms: N_1  and  C_2
REMARK    2  A    between atoms: C_7  and  C_8
REMARK                            x       y       z     vdW  Elec       q    Type
REMARK                         _______ _______ _______ _____ _____    ______ ____
ROOT
ATOM      1  C   UNL     1       1.467  10.723  18.637  0.00  0.00    +0.000 A 
ATOM      2  C   UNL     1       1.001  10.690  19.958  0.00  0.00    +0.000 A 
ATOM      3  C   UNL     1       0.972   9.503  20.707  0.00  0.00    +0.000 A 
ATOM      4  C   UNL     1       1.482   8.368  20.081  0.00  0.00    +0.000 A 
ATOM      5  O   UNL     1       1.539   7.119  20.616  0.00  0.00    +0.000 OA
ATOM      6  C   UNL     1       2.115   6.273  19.688  0.00  0.00    +0.000 A 
ATOM      7  C   UNL     1       2.434   7.039  18.571  0.00  0.00    +0.000 A 
ATOM      8  C   UNL     1       2.010   8.367  18.804  0.00  0.00    +0.000 A 
ATOM      9  C   UNL     1       2.025   9.568  18.073  0.00  0.00    +0.000 A 
ENDROOT
BRANCH   6  10
ATOM     10  C   UNL     1       2.269   4.876  19.915  0.00  0.00    +0.000 C 
ATOM     11  C   UNL     1       3.412   4.232  19.603  0.00  0.00    +0.000 C 
ATOM     12  N   UNL     1       3.413   2.830  19.763  0.00  0.00    +0.000 N 
ATOM     13  C   UNL     1       3.147   2.448  21.185  0.00  0.00    +0.000 C 
ATOM     14  C   UNL     1       1.813   3.103  21.616  0.00  0.00    +0.000 C 
ATOM     15  C   UNL     1       1.212   3.885  20.417  0.00  0.00    +0.000 C 
ATOM     16  C   UNL     1       0.991   2.867  19.270  0.00  0.00    +0.000 C 
ATOM     17  C   UNL     1       2.345   2.196  18.921  0.00  0.00    +0.000 C 
ENDBRANCH   6  10
BRANCH   1  18
ATOM     18  N   UNL     1       1.587  11.947  17.966  0.00  0.00    +0.000 N 
ATOM     19  H   UNL     1       0.708  12.312  17.615  0.00  0.00    +0.000 HD
ATOM     20  H   UNL     1       2.316  11.955  17.258  0.00  0.00    +0.000 HD
ENDBRANCH   1  18
TORSDOF 2
ENDMDL
MODEL 2
REMARK VINA RESULT:      -7.1      6.856      9.426
REMARK  Name = 
REMARK  2 active torsions:
REMARK  status: ('A' for Active; 'I' for Inactive)
REMARK    1  A    between atoms: N_1  and  C_2
REMARK    2  A    between atoms: C_7  and  C_8
REMARK                            x       y       z     vdW  Elec       q    Type
REMARK                         _______ _______ _______ _____ _____    ______ ____
ROOT
ATOM      1  C   UNL     1       6.399   5.297  17.013  0.00  0.00    +0.000 A 
ATOM      2  C   UNL     1       7.091   4.793  18.122  0.00  0.00    +0.000 A 
ATOM      3  C   UNL     1       7.938   5.598  18.899  0.00  0.00    +0.000 A 
ATOM      4  C   UNL     1       8.013   6.942  18.538  0.00  0.00    +0.000 A 
ATOM      5  O   UNL     1       8.777   7.889  19.143  0.00  0.00    +0.000 OA
ATOM      6  C   UNL     1       8.572   9.093  18.497  0.00  0.00    +0.000 A 
ATOM      7  C   UNL     1       7.639   8.868  17.488  0.00  0.00    +0.000 A 
ATOM      8  C   UNL     1       7.300   7.496  17.492  0.00  0.00    +0.000 A 
ATOM      9  C   UNL     1       6.460   6.669  16.726  0.00  0.00    +0.000 A 
ENDROOT
BRANCH   6  10
ATOM     10  C   UNL     1       9.269  10.283  18.851  0.00  0.00    +0.000 C 
ATOM     11  C   UNL     1       9.372  10.687  20.133  0.00  0.00    +0.000 C 
ATOM     12  N   UNL     1       9.984  11.938  20.356  0.00  0.00    +0.000 N 
ATOM     13  C   UNL     1      11.392  11.950  19.847  0.00  0.00    +0.000 C 
ATOM     14  C   UNL     1      11.365  11.549  18.353  0.00  0.00    +0.000 C 
ATOM     15  C   UNL     1       9.896  11.317  17.908  0.00  0.00    +0.000 C 
ATOM     16  C   UNL     1       9.131  12.643  18.145  0.00  0.00    +0.000 C 
ATOM     17  C   UNL     1       9.241  13.030  19.643  0.00  0.00    +0.000 C 
ENDBRANCH   6  10
BRANCH   1  18
ATOM     18  N   UNL     1       5.475   4.491  16.336  0.00  0.00    +0.000 N 
ATOM     19  H   UNL     1       5.660   3.496  16.416  0.00  0.00    +0.000 HD
ATOM     20  H   UNL     1       5.314   4.775  15.373  0.00  0.00    +0.000 HD
ENDBRANCH   1  18
TORSDOF 2
ENDMDL
MODEL 3
REMARK VINA RESULT:      -7.1      4.126      5.771
REMARK  Name = 
REMARK  2 active torsions:
REMARK  status: ('A' for Active; 'I' for Inactive)
REMARK    1  A    between atoms: N_1  and  C_2
REMARK    2  A    between atoms: C_7  and  C_8
REMARK                            x       y       z     vdW  Elec       q    Type
REMARK                         _______ _______ _______ _____ _____    ______ ____
ROOT
ATOM      1  C   UNL     1       7.319   5.071  14.417  0.00  0.00    +0.000 A 
ATOM      2  C   UNL     1       6.386   4.282  13.732  0.00  0.00    +0.000 A 
ATOM      3  C   UNL     1       5.248   3.759  14.363  0.00  0.00    +0.000 A 
ATOM      4  C   UNL     1       5.068   4.110  15.699  0.00  0.00    +0.000 A 
ATOM      5  O   UNL     1       4.045   3.707  16.499  0.00  0.00    +0.000 OA
ATOM      6  C   UNL     1       4.220   4.273  17.748  0.00  0.00    +0.000 A 
ATOM      7  C   UNL     1       5.368   5.058  17.690  0.00  0.00    +0.000 A 
ATOM      8  C   UNL     1       5.926   4.937  16.397  0.00  0.00    +0.000 A 
ATOM      9  C   UNL     1       7.062   5.447  15.744  0.00  0.00    +0.000 A 
ENDROOT
BRANCH   6  10
ATOM     10  C   UNL     1       3.349   4.004  18.841  0.00  0.00    +0.000 C 
ATOM     11  C   UNL     1       3.705   3.172  19.841  0.00  0.00    +0.000 C 
ATOM     12  N   UNL     1       2.720   2.889  20.810  0.00  0.00    +0.000 N 
ATOM     13  C   UNL     1       2.271   4.136  21.505  0.00  0.00    +0.000 C 
ATOM     14  C   UNL     1       1.787   5.137  20.429  0.00  0.00    +0.000 C 
ATOM     15  C   UNL     1       1.903   4.481  19.026  0.00  0.00    +0.000 C 
ATOM     16  C   UNL     1       1.022   3.207  19.042  0.00  0.00    +0.000 C 
ATOM     17  C   UNL     1       1.510   2.269  20.176  0.00  0.00    +0.000 C 
ENDBRANCH   6  10
BRANCH   1  18
ATOM     18  N   UNL     1       8.379   5.669  13.723  0.00  0.00    +0.000 N 
ATOM     19  H   UNL     1       9.033   5.006  13.321  0.00  0.00    +0.000 HD
ATOM     20  H   UNL     1       8.848   6.402  14.247  0.00  0.00    +0.000 HD
ENDBRANCH   1  18
TORSDOF 2
ENDMDL
MODEL 4
REMARK VINA RESULT:      -7.1      1.016      1.118
REMARK  Name = 
REMARK  2 active torsions:
REMARK  status: ('A' for Active; 'I' for Inactive)
REMARK    1  A    between atoms: N_1  and  C_2
REMARK    2  A    between atoms: C_7  and  C_8
REMARK                            x       y       z     vdW  Elec       q    Type
REMARK                         _______ _______ _______ _____ _____    ______ ____
ROOT
ATOM      1  C   UNL     1       1.030  10.926  18.839  0.00  0.00    +0.000 A 
ATOM      2  C   UNL     1       0.736  10.642  20.180  0.00  0.00    +0.000 A 
ATOM      3  C   UNL     1       0.965   9.376  20.739  0.00  0.00    +0.000 A 
ATOM      4  C   UNL     1       1.550   8.429  19.901  0.00  0.00    +0.000 A 
ATOM      5  O   UNL     1       1.847   7.145  20.233  0.00  0.00    +0.000 OA
ATOM      6  C   UNL     1       2.418   6.531  19.135  0.00  0.00    +0.000 A 
ATOM      7  C   UNL     1       2.490   7.481  18.121  0.00  0.00    +0.000 A 
ATOM      8  C   UNL     1       1.915   8.683  18.593  0.00  0.00    +0.000 A 
ATOM      9  C   UNL     1       1.673   9.959  18.054  0.00  0.00    +0.000 A 
ENDROOT
BRANCH   6  10
ATOM     10  C   UNL     1       2.794   5.158  19.132  0.00  0.00    +0.000 C 
ATOM     11  C   UNL     1       4.077   4.776  19.298  0.00  0.00    +0.000 C 
ATOM     12  N   UNL     1       4.351   3.399  19.162  0.00  0.00    +0.000 N 
ATOM     13  C   UNL     1       3.589   2.594  20.168  0.00  0.00    +0.000 C 
ATOM     14  C   UNL     1       2.086   2.929  20.011  0.00  0.00    +0.000 C 
ATOM     15  C   UNL     1       1.903   3.943  18.850  0.00  0.00    +0.000 C 
ATOM     16  C   UNL     1       2.465   3.278  17.568  0.00  0.00    +0.000 C 
ATOM     17  C   UNL     1       3.952   2.908  17.801  0.00  0.00    +0.000 C 
ENDBRANCH   6  10
BRANCH   1  18
ATOM     18  N   UNL     1       0.895  12.233  18.352  0.00  0.00    +0.000 N 
ATOM     19  H   UNL     1       1.231  12.947  18.991  0.00  0.00    +0.000 HD
ATOM     20  H   UNL     1      -0.033  12.443  17.996  0.00  0.00    +0.000 HD
ENDBRANCH   1  18
TORSDOF 2
ENDMDL
MODEL 5
REMARK VINA RESULT:      -6.9      0.974      1.845
REMARK  Name = 
REMARK  2 active torsions:
REMARK  status: ('A' for Active; 'I' for Inactive)
REMARK    1  A    between atoms: N_1  and  C_2
REMARK    2  A    between atoms: C_7  and  C_8
REMARK                            x       y       z     vdW  Elec       q    Type
REMARK                         _______ _______ _______ _____ _____    ______ ____
ROOT
ATOM      1  C   UNL     1       1.216  10.819  18.744  0.00  0.00    +0.000 A 
ATOM      2  C   UNL     1       0.886  10.523  20.073  0.00  0.00    +0.000 A 
ATOM      3  C   UNL     1       1.053   9.239  20.613  0.00  0.00    +0.000 A 
ATOM      4  C   UNL     1       1.615   8.284  19.768  0.00  0.00    +0.000 A 
ATOM      5  O   UNL     1       1.854   6.983  20.081  0.00  0.00    +0.000 OA
ATOM      6  C   UNL     1       2.422   6.367  18.983  0.00  0.00    +0.000 A 
ATOM      7  C   UNL     1       2.551   7.331  17.988  0.00  0.00    +0.000 A 
ATOM      8  C   UNL     1       2.015   8.547  18.472  0.00  0.00    +0.000 A 
ATOM      9  C   UNL     1       1.835   9.841  17.952  0.00  0.00    +0.000 A 
ENDROOT
BRANCH   6  10
ATOM     10  C   UNL     1       2.742   4.980  18.961  0.00  0.00    +0.000 C 
ATOM     11  C   UNL     1       2.544   4.192  20.037  0.00  0.00    +0.000 C 
ATOM     12  N   UNL     1       3.004   2.862  19.942  0.00  0.00    +0.000 N 
ATOM     13  C   UNL     1       2.332   2.136  18.818  0.00  0.00    +0.000 C 
ATOM     14  C   UNL     1       2.559   2.947  17.520  0.00  0.00    +0.000 C 
ATOM     15  C   UNL     1       3.428   4.194  17.837  0.00  0.00    +0.000 C 
ATOM     16  C   UNL     1       4.769   3.682  18.418  0.00  0.00    +0.000 C 
ATOM     17  C   UNL     1       4.481   2.827  19.678  0.00  0.00    +0.000 C 
ENDBRANCH   6  10
BRANCH   1  18
ATOM     18  N   UNL     1       1.143  12.139  18.279  0.00  0.00    +0.000 N 
ATOM     19  H   UNL     1       0.232  12.569  18.403  0.00  0.00    +0.000 HD
ATOM     20  H   UNL     1       1.500  12.259  17.335  0.00  0.00    +0.000 HD
ENDBRANCH   1  18
TORSDOF 2
ENDMDL
MODEL 6
REMARK VINA RESULT:      -6.9      3.150      4.347
REMARK  Name = 
REMARK  2 active torsions:
REMARK  status: ('A' for Active; 'I' for Inactive)
REMARK    1  A    between atoms: N_1  and  C_2
REMARK    2  A    between atoms: C_7  and  C_8
REMARK                            x       y       z     vdW  Elec       q    Type
REMARK                         _______ _______ _______ _____ _____    ______ ____
ROOT
ATOM      1  C   UNL     1       0.635   8.887  20.849  0.00  0.00    +0.000 A 
ATOM      2  C   UNL     1       0.628   9.687  19.698  0.00  0.00    +0.000 A 
ATOM      3  C   UNL     1       1.429   9.394  18.584  0.00  0.00    +0.000 A 
ATOM      4  C   UNL     1       2.195   8.233  18.664  0.00  0.00    +0.000 A 
ATOM      5  O   UNL     1       3.045   7.770  17.709  0.00  0.00    +0.000 OA
ATOM      6  C   UNL     1       3.609   6.593  18.161  0.00  0.00    +0.000 A 
ATOM      7  C   UNL     1       3.065   6.327  19.415  0.00  0.00    +0.000 A 
ATOM      8  C   UNL     1       2.184   7.380  19.751  0.00  0.00    +0.000 A 
ATOM      9  C   UNL     1       1.376   7.696  20.857  0.00  0.00    +0.000 A 
ENDROOT
BRANCH   6  10
ATOM     10  C   UNL     1       4.592   5.878  17.420  0.00  0.00    +0.000 C 
ATOM     11  C   UNL     1       4.822   4.567  17.631  0.00  0.00    +0.000 C 
ATOM     12  N   UNL     1       5.897   3.989  16.923  0.00  0.00    +0.000 N 
ATOM     13  C   UNL     1       5.690   4.098  15.444  0.00  0.00    +0.000 C 
ATOM     14  C   UNL     1       5.472   5.590  15.099  0.00  0.00    +0.000 C 
ATOM     15  C   UNL     1       5.583   6.440  16.393  0.00  0.00    +0.000 C 
ATOM     16  C   UNL     1       6.998   6.201  16.978  0.00  0.00    +0.000 C 
ATOM     17  C   UNL     1       7.185   4.686  17.247  0.00  0.00    +0.000 C 
ENDBRANCH   6  10
BRANCH   1  18
ATOM     18  N   UNL     1      -0.264   9.148  21.891  0.00  0.00    +0.000 N 
ATOM     19  H   UNL     1       0.167   9.170  22.810  0.00  0.00    +0.000 HD
ATOM     20  H   UNL     1      -1.094   8.562  21.871  0.00  0.00    +0.000 HD
ENDBRANCH   1  18
TORSDOF 2
ENDMDL
MODEL 7
REMARK VINA RESULT:      -6.9      2.636      3.717
REMARK  Name = 
REMARK  2 active torsions:
REMARK  status: ('A' for Active; 'I' for Inactive)
REMARK    1  A    between atoms: N_1  and  C_2
REMARK    2  A    between atoms: C_7  and  C_8
REMARK                            x       y       z     vdW  Elec       q    Type
REMARK                         _______ _______ _______ _____ _____    ______ ____
ROOT
ATOM      1  C   UNL     1      -0.159  10.207  19.768  0.00  0.00    +0.000 A 
ATOM      2  C   UNL     1       0.092   9.464  20.929  0.00  0.00    +0.000 A 
ATOM      3  C   UNL     1       1.014   8.407  20.951  0.00  0.00    +0.000 A 
ATOM      4  C   UNL     1       1.706   8.170  19.766  0.00  0.00    +0.000 A 
ATOM      5  O   UNL     1       2.632   7.194  19.564  0.00  0.00    +0.000 OA
ATOM      6  C   UNL     1       3.090   7.290  18.264  0.00  0.00    +0.000 A 
ATOM      7  C   UNL     1       2.439   8.370  17.674  0.00  0.00    +0.000 A 
ATOM      8  C   UNL     1       1.538   8.917  18.616  0.00  0.00    +0.000 A 
ATOM      9  C   UNL     1       0.606   9.969  18.618  0.00  0.00    +0.000 A 
ENDROOT
BRANCH   6  10
ATOM     10  C   UNL     1       4.030   6.374  17.712  0.00  0.00    +0.000 C 
ATOM     11  C   UNL     1       3.913   5.044  17.898  0.00  0.00    +0.000 C 
ATOM     12  N   UNL     1       4.962   4.241  17.405  0.00  0.00    +0.000 N 
ATOM     13  C   UNL     1       5.114   4.398  15.924  0.00  0.00    +0.000 C 
ATOM     14  C   UNL     1       5.312   5.902  15.620  0.00  0.00    +0.000 C 
ATOM     15  C   UNL     1       5.321   6.700  16.951  0.00  0.00    +0.000 C 
ATOM     16  C   UNL     1       6.485   6.145  17.810  0.00  0.00    +0.000 C 
ATOM     17  C   UNL     1       6.270   4.626  18.033  0.00  0.00    +0.000 C 
ENDBRANCH   6  10
BRANCH   1  18
ATOM     18  N   UNL     1      -1.000  11.327  19.819  0.00  0.00    +0.000 N 
ATOM     19  H   UNL     1      -1.967  11.126  19.584  0.00  0.00    +0.000 HD
ATOM     20  H   UNL     1      -0.641  12.130  19.311  0.00  0.00    +0.000 HD
ENDBRANCH   1  18
TORSDOF 2
ENDMDL
MODEL 8
REMARK VINA RESULT:      -6.8      4.090      5.586
REMARK  Name = 
REMARK  2 active torsions:
REMARK  status: ('A' for Active; 'I' for Inactive)
REMARK    1  A    between atoms: N_1  and  C_2
REMARK    2  A    between atoms: C_7  and  C_8
REMARK                            x       y       z     vdW  Elec       q    Type
REMARK                         _______ _______ _______ _____ _____    ______ ____
ROOT
ATOM      1  C   UNL     1       6.839   4.952  14.459  0.00  0.00    +0.000 A 
ATOM      2  C   UNL     1       7.759   5.027  15.513  0.00  0.00    +0.000 A 
ATOM      3  C   UNL     1       7.378   4.824  16.848  0.00  0.00    +0.000 A 
ATOM      4  C   UNL     1       6.043   4.493  17.064  0.00  0.00    +0.000 A 
ATOM      5  O   UNL     1       5.461   4.267  18.272  0.00  0.00    +0.000 OA
ATOM      6  C   UNL     1       4.130   3.963  18.066  0.00  0.00    +0.000 A 
ATOM      7  C   UNL     1       3.908   3.983  16.692  0.00  0.00    +0.000 A 
ATOM      8  C   UNL     1       5.115   4.346  16.051  0.00  0.00    +0.000 A 
ATOM      9  C   UNL     1       5.520   4.557  14.721  0.00  0.00    +0.000 A 
ENDROOT
BRANCH   6  10
ATOM     10  C   UNL     1       3.221   3.727  19.136  0.00  0.00    +0.000 C 
ATOM     11  C   UNL     1       3.437   2.755  20.045  0.00  0.00    +0.000 C 
ATOM     12  N   UNL     1       2.415   2.536  20.993  0.00  0.00    +0.000 N 
ATOM     13  C   UNL     1       2.164   3.763  21.812  0.00  0.00    +0.000 C 
ATOM     14  C   UNL     1       1.849   4.929  20.844  0.00  0.00    +0.000 C 
ATOM     15  C   UNL     1       1.868   4.405  19.383  0.00  0.00    +0.000 C 
ATOM     16  C   UNL     1       0.797   3.290  19.283  0.00  0.00    +0.000 C 
ATOM     17  C   UNL     1       1.125   2.179  20.313  0.00  0.00    +0.000 C 
ENDBRANCH   6  10
BRANCH   1  18
ATOM     18  N   UNL     1       7.282   5.045  13.133  0.00  0.00    +0.000 N 
ATOM     19  H   UNL     1       6.871   4.354  12.513  0.00  0.00    +0.000 HD
ATOM     20  H   UNL     1       8.293   5.090  13.041  0.00  0.00    +0.000 HD
ENDBRANCH   1  18
TORSDOF 2
ENDMDL
MODEL 9
REMARK VINA RESULT:      -6.8      3.728      4.691
REMARK  Name = 
REMARK  2 active torsions:
REMARK  status: ('A' for Active; 'I' for Inactive)
REMARK    1  A    between atoms: N_1  and  C_2
REMARK    2  A    between atoms: C_7  and  C_8
REMARK                            x       y       z     vdW  Elec       q    Type
REMARK                         _______ _______ _______ _____ _____    ______ ____
ROOT
ATOM      1  C   UNL     1       7.589   7.632  17.759  0.00  0.00    +0.000 A 
ATOM      2  C   UNL     1       8.254   6.779  18.650  0.00  0.00    +0.000 A 
ATOM      3  C   UNL     1       7.598   5.719  19.293  0.00  0.00    +0.000 A 
ATOM      4  C   UNL     1       6.259   5.529  18.958  0.00  0.00    +0.000 A 
ATOM      5  O   UNL     1       5.436   4.574  19.468  0.00  0.00    +0.000 OA
ATOM      6  C   UNL     1       4.193   4.711  18.881  0.00  0.00    +0.000 A 
ATOM      7  C   UNL     1       4.276   5.763  17.974  0.00  0.00    +0.000 A 
ATOM      8  C   UNL     1       5.581   6.304  18.038  0.00  0.00    +0.000 A 
ATOM      9  C   UNL     1       6.259   7.363  17.408  0.00  0.00    +0.000 A 
ENDROOT
BRANCH   6  10
ATOM     10  C   UNL     1       3.081   3.897  19.240  0.00  0.00    +0.000 C 
ATOM     11  C   UNL     1       1.830   4.396  19.297  0.00  0.00    +0.000 C 
ATOM     12  N   UNL     1       0.824   3.530  19.775  0.00  0.00    +0.000 N 
ATOM     13  C   UNL     1       0.702   2.313  18.912  0.00  0.00    +0.000 C 
ATOM     14  C   UNL     1       2.092   1.638  18.835  0.00  0.00    +0.000 C 
ATOM     15  C   UNL     1       3.101   2.436  19.705  0.00  0.00    +0.000 C 
ATOM     16  C   UNL     1       2.557   2.433  21.156  0.00  0.00    +0.000 C 
ATOM     17  C   UNL     1       1.140   3.062  21.166  0.00  0.00    +0.000 C 
ENDBRANCH   6  10
BRANCH   1  18
ATOM     18  N   UNL     1       8.307   8.605  17.050  0.00  0.00    +0.000 N 
ATOM     19  H   UNL     1       8.299   8.470  16.044  0.00  0.00    +0.000 HD
ATOM     20  H   UNL     1       9.244   8.763  17.409  0.00  0.00    +0.000 HD
ENDBRANCH   1  18
TORSDOF 2
ENDMDL
