MODEL 1
REMARK VINA RESULT:      -7.6      0.000      0.000
REMARK  Name = 
REMARK  9 active torsions:
REMARK  status: ('A' for Active; 'I' for Inactive)
REMARK    1  A    between atoms: C_1  and  C_2
REMARK    2  A    between atoms: C_2  and  C_3
REMARK    3  A    between atoms: C_3  and  C_4
REMARK    4  A    between atoms: C_4  and  N_5
REMARK    5  A    between atoms: C_7  and  C_8
REMARK    6  A    between atoms: C_8  and  C_10
REMARK    7  A    between atoms: C_10  and  C_11
REMARK    8  A    between atoms: C_23  and  O_24
REMARK    9  A    between atoms: O_24  and  C_25
REMARK                            x       y       z     vdW  Elec       q    Type
REMARK                         _______ _______ _______ _____ _____    ______ ____
ROOT
ATOM      1  N   UNL     1       2.598   5.719  19.415  0.00  0.00    +0.000 N 
ATOM      2  C   UNL     1       3.497   6.418  18.645  0.00  0.00    +0.000 A 
ATOM      3  C   UNL     1       4.003   5.574  17.678  0.00  0.00    +0.000 A 
ATOM      4  C   UNL     1       3.400   4.295  17.902  0.00  0.00    +0.000 A 
ATOM      5  C   UNL     1       3.542   3.050  17.258  0.00  0.00    +0.000 A 
ATOM      6  C   UNL     1       2.838   1.944  17.724  0.00  0.00    +0.000 A 
ATOM      7  C   UNL     1       1.996   2.061  18.826  0.00  0.00    +0.000 A 
ATOM      8  C   UNL     1       1.826   3.281  19.502  0.00  0.00    +0.000 A 
ATOM      9  C   UNL     1       2.543   4.397  19.010  0.00  0.00    +0.000 A 
ENDROOT
BRANCH   3  10
ATOM     10  C   UNL     1       4.972   5.916  16.635  0.00  0.00    +0.000 C 
ATOM     11  O   UNL     1       4.818   6.907  15.916  0.00  0.00    +0.000 OA
BRANCH  10  12
ATOM     12  C   UNL     1       6.169   5.009  16.421  0.00  0.00    +0.000 C 
BRANCH  12  13
ATOM     13  C   UNL     1       6.495   4.755  14.970  0.00  0.00    +0.000 A 
ATOM     14  C   UNL     1       7.587   5.390  14.358  0.00  0.00    +0.000 A 
ATOM     15  C   UNL     1       7.871   5.168  13.005  0.00  0.00    +0.000 A 
ATOM     16  C   UNL     1       7.061   4.312  12.266  0.00  0.00    +0.000 A 
ATOM     17  F   UNL     1       7.334   4.105  10.970  0.00  0.00    +0.000 F 
ATOM     18  C   UNL     1       5.979   3.680  12.862  0.00  0.00    +0.000 A 
ATOM     19  F   UNL     1       5.200   2.854  12.151  0.00  0.00    +0.000 F 
ATOM     20  C   UNL     1       5.688   3.898  14.206  0.00  0.00    +0.000 A 
ENDBRANCH  12  13
ENDBRANCH  10  12
ENDBRANCH   3  10
BRANCH   8  21
ATOM     21  O   UNL     1       1.029   3.447  20.604  0.00  0.00    +0.000 OA
ATOM     22  C   UNL     1       1.386   2.718  21.772  0.00  0.00    +0.000 C 
ENDBRANCH   8  21
BRANCH   1  23
ATOM     23  C   UNL     1       1.818   6.347  20.474  0.00  0.00    +0.000 C 
BRANCH  23  24
ATOM     24  C   UNL     1       1.846   7.870  20.383  0.00  0.00    +0.000 C 
BRANCH  24  26
ATOM     25  C   UNL     1       0.569   9.972  20.915  0.00  0.00    +0.000 C 
ATOM     26  C   UNL     1       0.771   8.505  21.264  0.00  0.00    +0.000 C 
ENDBRANCH  24  26
ENDBRANCH  23  24
ENDBRANCH   1  23
TORSDOF 7
ENDMDL
MODEL 2
REMARK VINA RESULT:      -7.6      0.619      1.346
REMARK  Name = 
REMARK  9 active torsions:
REMARK  status: ('A' for Active; 'I' for Inactive)
REMARK    1  A    between atoms: C_1  and  C_2
REMARK    2  A    between atoms: C_2  and  C_3
REMARK    3  A    between atoms: C_3  and  C_4
REMARK    4  A    between atoms: C_4  and  N_5
REMARK    5  A    between atoms: C_7  and  C_8
REMARK    6  A    between atoms: C_8  and  C_10
REMARK    7  A    between atoms: C_10  and  C_11
REMARK    8  A    between atoms: C_23  and  O_24
REMARK    9  A    between atoms: O_24  and  C_25
REMARK                            x       y       z     vdW  Elec       q    Type
REMARK                         _______ _______ _______ _____ _____    ______ ____
ROOT
ATOM      1  N   UNL     1       2.354   5.668  19.481  0.00  0.00    +0.000 N 
ATOM      2  C   UNL     1       3.239   6.420  18.747  0.00  0.00    +0.000 A 
ATOM      3  C   UNL     1       3.862   5.600  17.828  0.00  0.00    +0.000 A 
ATOM      4  C   UNL     1       3.345   4.283  18.047  0.00  0.00    +0.000 A 
ATOM      5  C   UNL     1       3.617   3.040  17.440  0.00  0.00    +0.000 A 
ATOM      6  C   UNL     1       2.973   1.892  17.890  0.00  0.00    +0.000 A 
ATOM      7  C   UNL     1       2.064   1.964  18.942  0.00  0.00    +0.000 A 
ATOM      8  C   UNL     1       1.765   3.180  19.580  0.00  0.00    +0.000 A 
ATOM      9  C   UNL     1       2.422   4.338  19.103  0.00  0.00    +0.000 A 
ENDROOT
BRANCH   3  10
ATOM     10  C   UNL     1       4.859   5.996  16.832  0.00  0.00    +0.000 C 
ATOM     11  O   UNL     1       4.698   6.995  16.126  0.00  0.00    +0.000 OA
BRANCH  10  12
ATOM     12  C   UNL     1       6.095   5.136  16.651  0.00  0.00    +0.000 C 
BRANCH  12  13
ATOM     13  C   UNL     1       6.412   4.812  15.211  0.00  0.00    +0.000 A 
ATOM     14  C   UNL     1       5.706   3.809  14.530  0.00  0.00    +0.000 A 
ATOM     15  C   UNL     1       6.020   3.496  13.202  0.00  0.00    +0.000 A 
ATOM     16  C   UNL     1       7.042   4.186  12.558  0.00  0.00    +0.000 A 
ATOM     17  F   UNL     1       7.343   3.881  11.289  0.00  0.00    +0.000 F 
ATOM     18  C   UNL     1       7.747   5.179  13.225  0.00  0.00    +0.000 A 
ATOM     19  F   UNL     1       8.731   5.844  12.605  0.00  0.00    +0.000 F 
ATOM     20  C   UNL     1       7.443   5.493  14.546  0.00  0.00    +0.000 A 
ENDBRANCH  12  13
ENDBRANCH  10  12
ENDBRANCH   3  10
BRANCH   8  21
ATOM     21  O   UNL     1       0.897   3.304  20.633  0.00  0.00    +0.000 OA
ATOM     22  C   UNL     1       1.288   2.708  21.864  0.00  0.00    +0.000 C 
ENDBRANCH   8  21
BRANCH   1  23
ATOM     23  C   UNL     1       1.471   6.253  20.483  0.00  0.00    +0.000 C 
BRANCH  23  24
ATOM     24  C   UNL     1       1.752   7.737  20.700  0.00  0.00    +0.000 C 
BRANCH  24  26
ATOM     25  C   UNL     1       0.023   9.555  20.498  0.00  0.00    +0.000 C 
ATOM     26  C   UNL     1       0.574   8.439  21.374  0.00  0.00    +0.000 C 
ENDBRANCH  24  26
ENDBRANCH  23  24
ENDBRANCH   1  23
TORSDOF 7
ENDMDL
MODEL 3
REMARK VINA RESULT:      -7.5      3.168      4.996
REMARK  Name = 
REMARK  9 active torsions:
REMARK  status: ('A' for Active; 'I' for Inactive)
REMARK    1  A    between atoms: C_1  and  C_2
REMARK    2  A    between atoms: C_2  and  C_3
REMARK    3  A    between atoms: C_3  and  C_4
REMARK    4  A    between atoms: C_4  and  N_5
REMARK    5  A    between atoms: C_7  and  C_8
REMARK    6  A    between atoms: C_8  and  C_10
REMARK    7  A    between atoms: C_10  and  C_11
REMARK    8  A    between atoms: C_23  and  O_24
REMARK    9  A    between atoms: O_24  and  C_25
REMARK                            x       y       z     vdW  Elec       q    Type
REMARK                         _______ _______ _______ _____ _____    ______ ____
ROOT
ATOM      1  N   UNL     1       2.994   4.945  19.896  0.00  0.00    +0.000 N 
ATOM      2  C   UNL     1       3.737   4.162  19.045  0.00  0.00    +0.000 A 
ATOM      3  C   UNL     1       4.062   4.905  17.929  0.00  0.00    +0.000 A 
ATOM      4  C   UNL     1       3.453   6.189  18.107  0.00  0.00    +0.000 A 
ATOM      5  C   UNL     1       3.414   7.344  17.301  0.00  0.00    +0.000 A 
ATOM      6  C   UNL     1       2.700   8.461  17.724  0.00  0.00    +0.000 A 
ATOM      7  C   UNL     1       2.020   8.441  18.938  0.00  0.00    +0.000 A 
ATOM      8  C   UNL     1       2.028   7.311  19.772  0.00  0.00    +0.000 A 
ATOM      9  C   UNL     1       2.765   6.187  19.331  0.00  0.00    +0.000 A 
ENDROOT
BRANCH   3  10
ATOM     10  C   UNL     1       4.864   4.467  16.785  0.00  0.00    +0.000 C 
ATOM     11  O   UNL     1       4.346   4.240  15.688  0.00  0.00    +0.000 OA
BRANCH  10  12
ATOM     12  C   UNL     1       6.355   4.261  16.971  0.00  0.00    +0.000 C 
BRANCH  12  13
ATOM     13  C   UNL     1       7.066   5.440  17.588  0.00  0.00    +0.000 A 
ATOM     14  C   UNL     1       7.745   5.309  18.809  0.00  0.00    +0.000 A 
ATOM     15  C   UNL     1       8.383   6.412  19.388  0.00  0.00    +0.000 A 
ATOM     16  C   UNL     1       8.339   7.646  18.747  0.00  0.00    +0.000 A 
ATOM     17  F   UNL     1       8.948   8.700  19.307  0.00  0.00    +0.000 F 
ATOM     18  C   UNL     1       7.669   7.785  17.540  0.00  0.00    +0.000 A 
ATOM     19  F   UNL     1       7.627   8.972  16.920  0.00  0.00    +0.000 F 
ATOM     20  C   UNL     1       7.030   6.694  16.958  0.00  0.00    +0.000 A 
ENDBRANCH  12  13
ENDBRANCH  10  12
ENDBRANCH   3  10
BRANCH   8  21
ATOM     21  O   UNL     1       1.358   7.229  20.965  0.00  0.00    +0.000 OA
ATOM     22  C   UNL     1       1.126   8.449  21.659  0.00  0.00    +0.000 C 
ENDBRANCH   8  21
BRANCH   1  23
ATOM     23  C   UNL     1       2.562   4.484  21.209  0.00  0.00    +0.000 C 
BRANCH  23  24
ATOM     24  C   UNL     1       1.669   3.249  21.121  0.00  0.00    +0.000 C 
BRANCH  24  26
ATOM     25  C   UNL     1       0.700   2.311  18.996  0.00  0.00    +0.000 C 
ATOM     26  C   UNL     1       0.596   3.408  20.045  0.00  0.00    +0.000 C 
ENDBRANCH  24  26
ENDBRANCH  23  24
ENDBRANCH   1  23
TORSDOF 7
ENDMDL
MODEL 4
REMARK VINA RESULT:      -7.5      4.200      7.599
REMARK  Name = 
REMARK  9 active torsions:
REMARK  status: ('A' for Active; 'I' for Inactive)
REMARK    1  A    between atoms: C_1  and  C_2
REMARK    2  A    between atoms: C_2  and  C_3
REMARK    3  A    between atoms: C_3  and  C_4
REMARK    4  A    between atoms: C_4  and  N_5
REMARK    5  A    between atoms: C_7  and  C_8
REMARK    6  A    between atoms: C_8  and  C_10
REMARK    7  A    between atoms: C_10  and  C_11
REMARK    8  A    between atoms: C_23  and  O_24
REMARK    9  A    between atoms: O_24  and  C_25
REMARK                            x       y       z     vdW  Elec       q    Type
REMARK                         _______ _______ _______ _____ _____    ______ ____
ROOT
ATOM      1  N   UNL     1       2.476   6.047  19.842  0.00  0.00    +0.000 N 
ATOM      2  C   UNL     1       1.833   7.260  19.886  0.00  0.00    +0.000 A 
ATOM      3  C   UNL     1       2.221   8.008  18.794  0.00  0.00    +0.000 A 
ATOM      4  C   UNL     1       3.171   7.213  18.077  0.00  0.00    +0.000 A 
ATOM      5  C   UNL     1       3.923   7.450  16.908  0.00  0.00    +0.000 A 
ATOM      6  C   UNL     1       4.815   6.486  16.450  0.00  0.00    +0.000 A 
ATOM      7  C   UNL     1       4.974   5.290  17.144  0.00  0.00    +0.000 A 
ATOM      8  C   UNL     1       4.249   5.012  18.315  0.00  0.00    +0.000 A 
ATOM      9  C   UNL     1       3.340   5.999  18.762  0.00  0.00    +0.000 A 
ENDROOT
BRANCH   3  10
ATOM     10  C   UNL     1       1.759   9.352  18.441  0.00  0.00    +0.000 C 
ATOM     11  O   UNL     1       2.170   9.926  17.430  0.00  0.00    +0.000 OA
BRANCH  10  12
ATOM     12  C   UNL     1       0.779  10.055  19.360  0.00  0.00    +0.000 C 
BRANCH  12  13
ATOM     13  C   UNL     1      -0.498  10.487  18.682  0.00  0.00    +0.000 A 
ATOM     14  C   UNL     1      -1.219  11.597  19.149  0.00  0.00    +0.000 A 
ATOM     15  C   UNL     1      -2.415  11.979  18.530  0.00  0.00    +0.000 A 
ATOM     16  C   UNL     1      -2.889  11.249  17.445  0.00  0.00    +0.000 A 
ATOM     17  F   UNL     1      -4.037  11.615  16.858  0.00  0.00    +0.000 F 
ATOM     18  C   UNL     1      -2.184  10.149  16.977  0.00  0.00    +0.000 A 
ATOM     19  F   UNL     1      -2.640   9.446  15.931  0.00  0.00    +0.000 F 
ATOM     20  C   UNL     1      -0.996   9.761  17.589  0.00  0.00    +0.000 A 
ENDBRANCH  12  13
ENDBRANCH  10  12
ENDBRANCH   3  10
BRANCH   8  21
ATOM     21  O   UNL     1       4.383   3.862  19.049  0.00  0.00    +0.000 OA
ATOM     22  C   UNL     1       3.955   2.652  18.435  0.00  0.00    +0.000 C 
ENDBRANCH   8  21
BRANCH   1  23
ATOM     23  C   UNL     1       2.219   4.987  20.810  0.00  0.00    +0.000 C 
BRANCH  23  24
ATOM     24  C   UNL     1       0.988   4.162  20.445  0.00  0.00    +0.000 C 
BRANCH  24  26
ATOM     25  C   UNL     1       2.327   2.498  21.777  0.00  0.00    +0.000 C 
ATOM     26  C   UNL     1       1.174   2.688  20.802  0.00  0.00    +0.000 C 
ENDBRANCH  24  26
ENDBRANCH  23  24
ENDBRANCH   1  23
TORSDOF 7
ENDMDL
MODEL 5
REMARK VINA RESULT:      -7.5      4.339      7.618
REMARK  Name = 
REMARK  9 active torsions:
REMARK  status: ('A' for Active; 'I' for Inactive)
REMARK    1  A    between atoms: C_1  and  C_2
REMARK    2  A    between atoms: C_2  and  C_3
REMARK    3  A    between atoms: C_3  and  C_4
REMARK    4  A    between atoms: C_4  and  N_5
REMARK    5  A    between atoms: C_7  and  C_8
REMARK    6  A    between atoms: C_8  and  C_10
REMARK    7  A    between atoms: C_10  and  C_11
REMARK    8  A    between atoms: C_23  and  O_24
REMARK    9  A    between atoms: O_24  and  C_25
REMARK                            x       y       z     vdW  Elec       q    Type
REMARK                         _______ _______ _______ _____ _____    ______ ____
ROOT
ATOM      1  N   UNL     1       3.733   4.613  17.631  0.00  0.00    +0.000 N 
ATOM      2  C   UNL     1       3.612   5.981  17.654  0.00  0.00    +0.000 A 
ATOM      3  C   UNL     1       2.679   6.327  18.610  0.00  0.00    +0.000 A 
ATOM      4  C   UNL     1       2.194   5.100  19.164  0.00  0.00    +0.000 A 
ATOM      5  C   UNL     1       1.226   4.816  20.148  0.00  0.00    +0.000 A 
ATOM      6  C   UNL     1       0.929   3.495  20.469  0.00  0.00    +0.000 A 
ATOM      7  C   UNL     1       1.580   2.451  19.818  0.00  0.00    +0.000 A 
ATOM      8  C   UNL     1       2.549   2.686  18.827  0.00  0.00    +0.000 A 
ATOM      9  C   UNL     1       2.845   4.035  18.520  0.00  0.00    +0.000 A 
ENDROOT
BRANCH   3  10
ATOM     10  C   UNL     1       2.262   7.681  18.980  0.00  0.00    +0.000 C 
ATOM     11  O   UNL     1       1.947   7.961  20.139  0.00  0.00    +0.000 OA
BRANCH  10  12
ATOM     12  C   UNL     1       2.188   8.746  17.902  0.00  0.00    +0.000 C 
BRANCH  12  13
ATOM     13  C   UNL     1       1.190   9.841  18.187  0.00  0.00    +0.000 A 
ATOM     14  C   UNL     1      -0.181   9.636  17.969  0.00  0.00    +0.000 A 
ATOM     15  C   UNL     1      -1.100  10.663  18.214  0.00  0.00    +0.000 A 
ATOM     16  C   UNL     1      -0.646  11.895  18.674  0.00  0.00    +0.000 A 
ATOM     17  F   UNL     1      -1.529  12.877  18.902  0.00  0.00    +0.000 F 
ATOM     18  C   UNL     1       0.708  12.107  18.891  0.00  0.00    +0.000 A 
ATOM     19  F   UNL     1       1.146  13.293  19.334  0.00  0.00    +0.000 F 
ATOM     20  C   UNL     1       1.628  11.092  18.647  0.00  0.00    +0.000 A 
ENDBRANCH  12  13
ENDBRANCH  10  12
ENDBRANCH   3  10
BRANCH   8  21
ATOM     21  O   UNL     1       3.203   1.698  18.140  0.00  0.00    +0.000 OA
ATOM     22  C   UNL     1       4.152   0.927  18.867  0.00  0.00    +0.000 C 
ENDBRANCH   8  21
BRANCH   1  23
ATOM     23  C   UNL     1       4.703   3.926  16.786  0.00  0.00    +0.000 C 
BRANCH  23  24
ATOM     24  C   UNL     1       5.280   4.843  15.710  0.00  0.00    +0.000 C 
BRANCH  24  26
ATOM     25  C   UNL     1       6.220   3.888  13.580  0.00  0.00    +0.000 C 
ATOM     26  C   UNL     1       6.502   4.220  15.038  0.00  0.00    +0.000 C 
ENDBRANCH  24  26
ENDBRANCH  23  24
ENDBRANCH   1  23
TORSDOF 7
ENDMDL
MODEL 6
REMARK VINA RESULT:      -7.5      4.164      7.089
REMARK  Name = 
REMARK  9 active torsions:
REMARK  status: ('A' for Active; 'I' for Inactive)
REMARK    1  A    between atoms: C_1  and  C_2
REMARK    2  A    between atoms: C_2  and  C_3
REMARK    3  A    between atoms: C_3  and  C_4
REMARK    4  A    between atoms: C_4  and  N_5
REMARK    5  A    between atoms: C_7  and  C_8
REMARK    6  A    between atoms: C_8  and  C_10
REMARK    7  A    between atoms: C_10  and  C_11
REMARK    8  A    between atoms: C_23  and  O_24
REMARK    9  A    between atoms: O_24  and  C_25
REMARK                            x       y       z     vdW  Elec       q    Type
REMARK                         _______ _______ _______ _____ _____    ______ ____
ROOT
ATOM      1  N   UNL     1      -0.143  10.218  18.692  0.00  0.00    +0.000 N 
ATOM      2  C   UNL     1       0.775   9.454  18.012  0.00  0.00    +0.000 A 
ATOM      3  C   UNL     1       1.514   8.731  18.926  0.00  0.00    +0.000 A 
ATOM      4  C   UNL     1       1.033   9.107  20.222  0.00  0.00    +0.000 A 
ATOM      5  C   UNL     1       1.412   8.726  21.525  0.00  0.00    +0.000 A 
ATOM      6  C   UNL     1       0.776   9.293  22.625  0.00  0.00    +0.000 A 
ATOM      7  C   UNL     1      -0.229  10.239  22.445  0.00  0.00    +0.000 A 
ATOM      8  C   UNL     1      -0.636  10.652  21.165  0.00  0.00    +0.000 A 
ATOM      9  C   UNL     1       0.015  10.059  20.058  0.00  0.00    +0.000 A 
ENDROOT
BRANCH   3  10
ATOM     10  C   UNL     1       2.582   7.774  18.632  0.00  0.00    +0.000 C 
ATOM     11  O   UNL     1       3.208   7.818  17.569  0.00  0.00    +0.000 OA
BRANCH  10  12
ATOM     12  C   UNL     1       2.897   6.692  19.646  0.00  0.00    +0.000 C 
BRANCH  12  13
ATOM     13  C   UNL     1       2.255   5.360  19.343  0.00  0.00    +0.000 A 
ATOM     14  C   UNL     1       1.382   4.759  20.263  0.00  0.00    +0.000 A 
ATOM     15  C   UNL     1       0.808   3.513  19.987  0.00  0.00    +0.000 A 
ATOM     16  C   UNL     1       1.109   2.868  18.791  0.00  0.00    +0.000 A 
ATOM     17  F   UNL     1       0.561   1.673  18.532  0.00  0.00    +0.000 F 
ATOM     18  C   UNL     1       1.972   3.455  17.876  0.00  0.00    +0.000 A 
ATOM     19  F   UNL     1       2.262   2.835  16.724  0.00  0.00    +0.000 F 
ATOM     20  C   UNL     1       2.550   4.692  18.145  0.00  0.00    +0.000 A 
ENDBRANCH  12  13
ENDBRANCH  10  12
ENDBRANCH   3  10
BRANCH   8  21
ATOM     21  O   UNL     1      -1.603  11.595  20.931  0.00  0.00    +0.000 OA
ATOM     22  C   UNL     1      -1.284  12.940  21.265  0.00  0.00    +0.000 C 
ENDBRANCH   8  21
BRANCH   1  23
ATOM     23  C   UNL     1      -1.139  11.036  18.011  0.00  0.00    +0.000 C 
BRANCH  23  24
ATOM     24  C   UNL     1      -2.351  10.219  17.570  0.00  0.00    +0.000 C 
BRANCH  24  26
ATOM     25  C   UNL     1      -2.888  10.517  15.129  0.00  0.00    +0.000 C 
ATOM     26  C   UNL     1      -3.196  10.977  16.547  0.00  0.00    +0.000 C 
ENDBRANCH  24  26
ENDBRANCH  23  24
ENDBRANCH   1  23
TORSDOF 7
ENDMDL
MODEL 7
REMARK VINA RESULT:      -7.4      4.516      7.430
REMARK  Name = 
REMARK  9 active torsions:
REMARK  status: ('A' for Active; 'I' for Inactive)
REMARK    1  A    between atoms: C_1  and  C_2
REMARK    2  A    between atoms: C_2  and  C_3
REMARK    3  A    between atoms: C_3  and  C_4
REMARK    4  A    between atoms: C_4  and  N_5
REMARK    5  A    between atoms: C_7  and  C_8
REMARK    6  A    between atoms: C_8  and  C_10
REMARK    7  A    between atoms: C_10  and  C_11
REMARK    8  A    between atoms: C_23  and  O_24
REMARK    9  A    between atoms: O_24  and  C_25
REMARK                            x       y       z     vdW  Elec       q    Type
REMARK                         _______ _______ _______ _____ _____    ______ ____
ROOT
ATOM      1  N   UNL     1       4.257   5.045  18.451  0.00  0.00    +0.000 N 
ATOM      2  C   UNL     1       3.839   6.340  18.256  0.00  0.00    +0.000 A 
ATOM      3  C   UNL     1       2.760   6.586  19.079  0.00  0.00    +0.000 A 
ATOM      4  C   UNL     1       2.498   5.364  19.778  0.00  0.00    +0.000 A 
ATOM      5  C   UNL     1       1.517   4.999  20.723  0.00  0.00    +0.000 A 
ATOM      6  C   UNL     1       1.483   3.700  21.219  0.00  0.00    +0.000 A 
ATOM      7  C   UNL     1       2.409   2.757  20.783  0.00  0.00    +0.000 A 
ATOM      8  C   UNL     1       3.401   3.074  19.840  0.00  0.00    +0.000 A 
ATOM      9  C   UNL     1       3.427   4.402  19.353  0.00  0.00    +0.000 A 
ENDROOT
BRANCH   3  10
ATOM     10  C   UNL     1       2.022   7.845  19.208  0.00  0.00    +0.000 C 
ATOM     11  O   UNL     1       1.616   8.241  20.303  0.00  0.00    +0.000 OA
BRANCH  10  12
ATOM     12  C   UNL     1       1.732   8.655  17.959  0.00  0.00    +0.000 C 
BRANCH  12  13
ATOM     13  C   UNL     1       1.128  10.010  18.232  0.00  0.00    +0.000 A 
ATOM     14  C   UNL     1      -0.264  10.180  18.275  0.00  0.00    +0.000 A 
ATOM     15  C   UNL     1      -0.818  11.445  18.507  0.00  0.00    +0.000 A 
ATOM     16  C   UNL     1       0.022  12.538  18.693  0.00  0.00    +0.000 A 
ATOM     17  F   UNL     1      -0.513  13.748  18.910  0.00  0.00    +0.000 F 
ATOM     18  C   UNL     1       1.400  12.380  18.651  0.00  0.00    +0.000 A 
ATOM     19  F   UNL     1       2.209  13.432  18.830  0.00  0.00    +0.000 F 
ATOM     20  C   UNL     1       1.958  11.127  18.418  0.00  0.00    +0.000 A 
ENDBRANCH  12  13
ENDBRANCH  10  12
ENDBRANCH   3  10
BRANCH   8  21
ATOM     21  O   UNL     1       4.322   2.180  19.360  0.00  0.00    +0.000 OA
ATOM     22  C   UNL     1       3.860   1.228  18.410  0.00  0.00    +0.000 C 
ENDBRANCH   8  21
BRANCH   1  23
ATOM     23  C   UNL     1       5.435   4.494  17.793  0.00  0.00    +0.000 C 
BRANCH  23  24
ATOM     24  C   UNL     1       6.710   5.240  18.177  0.00  0.00    +0.000 C 
BRANCH  24  26
ATOM     25  C   UNL     1       7.590   7.536  17.639  0.00  0.00    +0.000 C 
ATOM     26  C   UNL     1       7.159   6.192  17.070  0.00  0.00    +0.000 C 
ENDBRANCH  24  26
ENDBRANCH  23  24
ENDBRANCH   1  23
TORSDOF 7
ENDMDL
MODEL 8
REMARK VINA RESULT:      -7.4      1.391      3.658
REMARK  Name = 
REMARK  9 active torsions:
REMARK  status: ('A' for Active; 'I' for Inactive)
REMARK    1  A    between atoms: C_1  and  C_2
REMARK    2  A    between atoms: C_2  and  C_3
REMARK    3  A    between atoms: C_3  and  C_4
REMARK    4  A    between atoms: C_4  and  N_5
REMARK    5  A    between atoms: C_7  and  C_8
REMARK    6  A    between atoms: C_8  and  C_10
REMARK    7  A    between atoms: C_10  and  C_11
REMARK    8  A    between atoms: C_23  and  O_24
REMARK    9  A    between atoms: O_24  and  C_25
REMARK                            x       y       z     vdW  Elec       q    Type
REMARK                         _______ _______ _______ _____ _____    ______ ____
ROOT
ATOM      1  N   UNL     1       2.803   5.675  19.704  0.00  0.00    +0.000 N 
ATOM      2  C   UNL     1       3.635   5.114  18.764  0.00  0.00    +0.000 A 
ATOM      3  C   UNL     1       3.870   6.041  17.771  0.00  0.00    +0.000 A 
ATOM      4  C   UNL     1       3.113   7.206  18.117  0.00  0.00    +0.000 A 
ATOM      5  C   UNL     1       2.937   8.451  17.481  0.00  0.00    +0.000 A 
ATOM      6  C   UNL     1       2.095   9.405  18.045  0.00  0.00    +0.000 A 
ATOM      7  C   UNL     1       1.421   9.133  19.231  0.00  0.00    +0.000 A 
ATOM      8  C   UNL     1       1.562   7.904  19.898  0.00  0.00    +0.000 A 
ATOM      9  C   UNL     1       2.429   6.949  19.316  0.00  0.00    +0.000 A 
ENDROOT
BRANCH   3  10
ATOM     10  C   UNL     1       4.720   5.868  16.591  0.00  0.00    +0.000 C 
ATOM     11  O   UNL     1       5.023   6.824  15.872  0.00  0.00    +0.000 OA
BRANCH  10  12
ATOM     12  C   UNL     1       5.206   4.475  16.236  0.00  0.00    +0.000 C 
BRANCH  12  13
ATOM     13  C   UNL     1       5.858   4.380  14.879  0.00  0.00    +0.000 A 
ATOM     14  C   UNL     1       7.080   5.022  14.623  0.00  0.00    +0.000 A 
ATOM     15  C   UNL     1       7.668   4.948  13.355  0.00  0.00    +0.000 A 
ATOM     16  C   UNL     1       7.034   4.234  12.344  0.00  0.00    +0.000 A 
ATOM     17  F   UNL     1       7.599   4.170  11.131  0.00  0.00    +0.000 F 
ATOM     18  C   UNL     1       5.825   3.596  12.588  0.00  0.00    +0.000 A 
ATOM     19  F   UNL     1       5.214   2.907  11.615  0.00  0.00    +0.000 F 
ATOM     20  C   UNL     1       5.232   3.667  13.845  0.00  0.00    +0.000 A 
ENDBRANCH  12  13
ENDBRANCH  10  12
ENDBRANCH   3  10
BRANCH   8  21
ATOM     21  O   UNL     1       0.906   7.575  21.055  0.00  0.00    +0.000 OA
ATOM     22  C   UNL     1       0.087   8.581  21.640  0.00  0.00    +0.000 C 
ENDBRANCH   8  21
BRANCH   1  23
ATOM     23  C   UNL     1       2.428   4.984  20.931  0.00  0.00    +0.000 C 
BRANCH  23  24
ATOM     24  C   UNL     1       1.158   4.154  20.759  0.00  0.00    +0.000 C 
BRANCH  24  26
ATOM     25  C   UNL     1       1.412   2.220  19.169  0.00  0.00    +0.000 C 
ATOM     26  C   UNL     1       1.474   2.665  20.623  0.00  0.00    +0.000 C 
ENDBRANCH  24  26
ENDBRANCH  23  24
ENDBRANCH   1  23
TORSDOF 7
ENDMDL
MODEL 9
REMARK VINA RESULT:      -7.4      4.396      7.483
REMARK  Name = 
REMARK  9 active torsions:
REMARK  status: ('A' for Active; 'I' for Inactive)
REMARK    1  A    between atoms: C_1  and  C_2
REMARK    2  A    between atoms: C_2  and  C_3
REMARK    3  A    between atoms: C_3  and  C_4
REMARK    4  A    between atoms: C_4  and  N_5
REMARK    5  A    between atoms: C_7  and  C_8
REMARK    6  A    between atoms: C_8  and  C_10
REMARK    7  A    between atoms: C_10  and  C_11
REMARK    8  A    between atoms: C_23  and  O_24
REMARK    9  A    between atoms: O_24  and  C_25
REMARK                            x       y       z     vdW  Elec       q    Type
REMARK                         _______ _______ _______ _____ _____    ______ ____
ROOT
ATOM      1  N   UNL     1       3.771   4.659  17.672  0.00  0.00    +0.000 N 
ATOM      2  C   UNL     1       3.634   6.027  17.656  0.00  0.00    +0.000 A 
ATOM      3  C   UNL     1       2.687   6.389  18.591  0.00  0.00    +0.000 A 
ATOM      4  C   UNL     1       2.209   5.171  19.173  0.00  0.00    +0.000 A 
ATOM      5  C   UNL     1       1.232   4.904  20.154  0.00  0.00    +0.000 A 
ATOM      6  C   UNL     1       0.946   3.589  20.507  0.00  0.00    +0.000 A 
ATOM      7  C   UNL     1       1.616   2.535  19.893  0.00  0.00    +0.000 A 
ATOM      8  C   UNL     1       2.593   2.754  18.907  0.00  0.00    +0.000 A 
ATOM      9  C   UNL     1       2.878   4.097  18.567  0.00  0.00    +0.000 A 
ENDROOT
BRANCH   3  10
ATOM     10  C   UNL     1       2.251   7.747  18.920  0.00  0.00    +0.000 C 
ATOM     11  O   UNL     1       2.016   8.082  20.083  0.00  0.00    +0.000 OA
BRANCH  10  12
ATOM     12  C   UNL     1       2.058   8.747  17.795  0.00  0.00    +0.000 C 
BRANCH  12  13
ATOM     13  C   UNL     1       1.172   9.914  18.156  0.00  0.00    +0.000 A 
ATOM     14  C   UNL     1      -0.225   9.792  18.118  0.00  0.00    +0.000 A 
ATOM     15  C   UNL     1      -1.042  10.885  18.431  0.00  0.00    +0.000 A 
ATOM     16  C   UNL     1      -0.459  12.099  18.781  0.00  0.00    +0.000 A 
ATOM     17  F   UNL     1      -1.244  13.144  19.076  0.00  0.00    +0.000 F 
ATOM     18  C   UNL     1       0.922  12.229  18.820  0.00  0.00    +0.000 A 
ATOM     19  F   UNL     1       1.484  13.398  19.157  0.00  0.00    +0.000 F 
ATOM     20  C   UNL     1       1.741  11.148  18.507  0.00  0.00    +0.000 A 
ENDBRANCH  12  13
ENDBRANCH  10  12
ENDBRANCH   3  10
BRANCH   8  21
ATOM     21  O   UNL     1       3.266   1.754  18.254  0.00  0.00    +0.000 OA
ATOM     22  C   UNL     1       4.268   1.064  18.991  0.00  0.00    +0.000 C 
ENDBRANCH   8  21
BRANCH   1  23
ATOM     23  C   UNL     1       4.758   3.961  16.858  0.00  0.00    +0.000 C 
BRANCH  23  24
ATOM     24  C   UNL     1       5.820   4.907  16.304  0.00  0.00    +0.000 C 
BRANCH  24  26
ATOM     25  C   UNL     1       7.467   5.157  18.190  0.00  0.00    +0.000 C 
ATOM     26  C   UNL     1       7.214   4.550  16.818  0.00  0.00    +0.000 C 
ENDBRANCH  24  26
ENDBRANCH  23  24
ENDBRANCH   1  23
TORSDOF 7
ENDMDL
