MODEL 1
REMARK VINA RESULT:      -8.6      0.000      0.000
REMARK  Name = 
REMARK  3 active torsions:
REMARK  status: ('A' for Active; 'I' for Inactive)
REMARK    1  A    between atoms: C_1  and  C_2
REMARK    2  A    between atoms: C_6  and  C_7
REMARK    3  A    between atoms: C_15  and  C_17
REMARK                            x       y       z     vdW  Elec       q    Type
REMARK                         _______ _______ _______ _____ _____    ______ ____
ROOT
ATOM      1  C   UNL     1       6.432   4.451  13.945  0.00  0.00    +0.000 A 
ATOM      2  N   UNL     1       7.594   5.082  13.886  0.00  0.00    +0.000 NA
ATOM      3  N   UNL     1       7.841   5.683  15.102  0.00  0.00    +0.000 NA
ATOM      4  C   UNL     1       6.822   5.425  15.891  0.00  0.00    +0.000 A 
ATOM      5  N   UNL     1       5.914   4.667  15.193  0.00  0.00    +0.000 N 
ATOM      6  C   UNL     1       4.631   4.270  15.733  0.00  0.00    +0.000 C 
ATOM      7  C   UNL     1       4.251   5.240  16.852  0.00  0.00    +0.000 C 
ATOM      8  N   UNL     1       5.353   5.285  17.824  0.00  0.00    +0.000 N 
ATOM      9  C   UNL     1       5.345   4.873  19.155  0.00  0.00    +0.000 C 
ATOM     10  O   UNL     1       6.329   5.014  19.891  0.00  0.00    +0.000 OA
ATOM     11  C   UNL     1       6.578   5.900  17.288  0.00  0.00    +0.000 C 
ENDROOT
BRANCH   1  17
ATOM     12  C   UNL     1       6.589   0.603  11.052  0.00  0.00    +0.000 C 
ATOM     13  C   UNL     1       5.844   1.825  11.498  0.00  0.00    +0.000 A 
ATOM     14  C   UNL     1       4.645   2.190  10.896  0.00  0.00    +0.000 A 
ATOM     15  C   UNL     1       4.016   3.361  11.308  0.00  0.00    +0.000 A 
ATOM     16  C   UNL     1       4.602   4.137  12.303  0.00  0.00    +0.000 A 
ATOM     17  C   UNL     1       5.788   3.697  12.874  0.00  0.00    +0.000 A 
ATOM     18  N   UNL     1       6.412   2.550  12.493  0.00  0.00    +0.000 NA
ENDBRANCH   1  17
BRANCH   9  19
ATOM     19  C   UNL     1       4.111   4.311  19.774  0.00  0.00    +0.000 A 
ATOM     20  C   UNL     1       3.041   5.115  20.191  0.00  0.00    +0.000 A 
ATOM     21  C   UNL     1       2.010   4.593  20.964  0.00  0.00    +0.000 A 
ATOM     22  C   UNL     1       1.970   3.227  21.178  0.00  0.00    +0.000 A 
ATOM     23  F   UNL     1       0.968   2.705  21.890  0.00  0.00    +0.000 F 
ATOM     24  C   UNL     1       2.939   2.381  20.648  0.00  0.00    +0.000 A 
ATOM     25  C   UNL     1       4.023   2.925  19.955  0.00  0.00    +0.000 A 
ENDBRANCH   9  19
TORSDOF 2
ENDMDL
MODEL 2
REMARK VINA RESULT:      -8.1      0.596      1.370
REMARK  Name = 
REMARK  3 active torsions:
REMARK  status: ('A' for Active; 'I' for Inactive)
REMARK    1  A    between atoms: C_1  and  C_2
REMARK    2  A    between atoms: C_6  and  C_7
REMARK    3  A    between atoms: C_15  and  C_17
REMARK                            x       y       z     vdW  Elec       q    Type
REMARK                         _______ _______ _______ _____ _____    ______ ____
ROOT
ATOM      1  C   UNL     1       6.566   4.376  13.860  0.00  0.00    +0.000 A 
ATOM      2  N   UNL     1       7.687   5.077  13.794  0.00  0.00    +0.000 NA
ATOM      3  N   UNL     1       7.869   5.745  14.986  0.00  0.00    +0.000 NA
ATOM      4  C   UNL     1       6.852   5.458  15.767  0.00  0.00    +0.000 A 
ATOM      5  N   UNL     1       6.008   4.614  15.086  0.00  0.00    +0.000 N 
ATOM      6  C   UNL     1       4.741   4.161  15.620  0.00  0.00    +0.000 C 
ATOM      7  C   UNL     1       4.277   5.153  16.686  0.00  0.00    +0.000 C 
ATOM      8  N   UNL     1       5.353   5.311  17.676  0.00  0.00    +0.000 N 
ATOM      9  C   UNL     1       5.342   4.958  19.024  0.00  0.00    +0.000 C 
ATOM     10  O   UNL     1       6.298   5.193  19.771  0.00  0.00    +0.000 OA
ATOM     11  C   UNL     1       6.548   5.978  17.136  0.00  0.00    +0.000 C 
ENDROOT
BRANCH   1  17
ATOM     12  C   UNL     1       3.082   3.820  10.580  0.00  0.00    +0.000 C 
ATOM     13  C   UNL     1       4.332   3.280  11.208  0.00  0.00    +0.000 A 
ATOM     14  C   UNL     1       4.860   2.058  10.807  0.00  0.00    +0.000 A 
ATOM     15  C   UNL     1       5.992   1.573  11.454  0.00  0.00    +0.000 A 
ATOM     16  C   UNL     1       6.562   2.315  12.482  0.00  0.00    +0.000 A 
ATOM     17  C   UNL     1       5.993   3.537  12.812  0.00  0.00    +0.000 A 
ATOM     18  N   UNL     1       4.894   4.033  12.184  0.00  0.00    +0.000 NA
ENDBRANCH   1  17
BRANCH   9  19
ATOM     19  C   UNL     1       4.132   4.346  19.644  0.00  0.00    +0.000 A 
ATOM     20  C   UNL     1       3.043   5.109  20.088  0.00  0.00    +0.000 A 
ATOM     21  C   UNL     1       2.037   4.541  20.861  0.00  0.00    +0.000 A 
ATOM     22  C   UNL     1       2.040   3.171  21.048  0.00  0.00    +0.000 A 
ATOM     23  F   UNL     1       1.062   2.604  21.760  0.00  0.00    +0.000 F 
ATOM     24  C   UNL     1       3.028   2.365  20.491  0.00  0.00    +0.000 A 
ATOM     25  C   UNL     1       4.087   2.955  19.798  0.00  0.00    +0.000 A 
ENDBRANCH   9  19
TORSDOF 2
ENDMDL
MODEL 3
REMARK VINA RESULT:      -7.5      5.467      8.913
REMARK  Name = 
REMARK  3 active torsions:
REMARK  status: ('A' for Active; 'I' for Inactive)
REMARK    1  A    between atoms: C_1  and  C_2
REMARK    2  A    between atoms: C_6  and  C_7
REMARK    3  A    between atoms: C_15  and  C_17
REMARK                            x       y       z     vdW  Elec       q    Type
REMARK                         _______ _______ _______ _____ _____    ______ ____
ROOT
ATOM      1  C   UNL     1       0.855   9.644  20.142  0.00  0.00    +0.000 A 
ATOM      2  N   UNL     1       0.429   9.282  21.341  0.00  0.00    +0.000 NA
ATOM      3  N   UNL     1       0.875   8.005  21.608  0.00  0.00    +0.000 NA
ATOM      4  C   UNL     1       1.560   7.592  20.565  0.00  0.00    +0.000 A 
ATOM      5  N   UNL     1       1.554   8.590  19.621  0.00  0.00    +0.000 N 
ATOM      6  C   UNL     1       2.147   8.443  18.309  0.00  0.00    +0.000 C 
ATOM      7  C   UNL     1       2.230   6.954  17.975  0.00  0.00    +0.000 C 
ATOM      8  N   UNL     1       2.943   6.270  19.064  0.00  0.00    +0.000 N 
ATOM      9  C   UNL     1       4.173   5.617  19.013  0.00  0.00    +0.000 C 
ATOM     10  O   UNL     1       4.645   5.030  19.993  0.00  0.00    +0.000 OA
ATOM     11  C   UNL     1       2.196   6.259  20.332  0.00  0.00    +0.000 C 
ENDROOT
BRANCH   1  17
ATOM     12  C   UNL     1       2.674  13.794  18.507  0.00  0.00    +0.000 C 
ATOM     13  C   UNL     1       1.478  12.902  18.649  0.00  0.00    +0.000 A 
ATOM     14  C   UNL     1       0.232  13.299  18.178  0.00  0.00    +0.000 A 
ATOM     15  C   UNL     1      -0.860  12.460  18.378  0.00  0.00    +0.000 A 
ATOM     16  C   UNL     1      -0.681  11.253  19.045  0.00  0.00    +0.000 A 
ATOM     17  C   UNL     1       0.597  10.912  19.466  0.00  0.00    +0.000 A 
ATOM     18  N   UNL     1       1.678  11.714  19.270  0.00  0.00    +0.000 NA
ENDBRANCH   1  17
BRANCH   9  19
ATOM     19  C   UNL     1       4.941   5.532  17.737  0.00  0.00    +0.000 A 
ATOM     20  C   UNL     1       4.639   4.601  16.734  0.00  0.00    +0.000 A 
ATOM     21  C   UNL     1       5.503   4.393  15.665  0.00  0.00    +0.000 A 
ATOM     22  C   UNL     1       6.587   5.238  15.517  0.00  0.00    +0.000 A 
ATOM     23  F   UNL     1       7.409   5.074  14.476  0.00  0.00    +0.000 F 
ATOM     24  C   UNL     1       6.829   6.272  16.416  0.00  0.00    +0.000 A 
ATOM     25  C   UNL     1       6.012   6.412  17.539  0.00  0.00    +0.000 A 
ENDBRANCH   9  19
TORSDOF 2
ENDMDL
MODEL 4
REMARK VINA RESULT:      -7.5      2.994      7.516
REMARK  Name = 
REMARK  3 active torsions:
REMARK  status: ('A' for Active; 'I' for Inactive)
REMARK    1  A    between atoms: C_1  and  C_2
REMARK    2  A    between atoms: C_6  and  C_7
REMARK    3  A    between atoms: C_15  and  C_17
REMARK                            x       y       z     vdW  Elec       q    Type
REMARK                         _______ _______ _______ _____ _____    ______ ____
ROOT
ATOM      1  C   UNL     1       5.129   5.108  19.106  0.00  0.00    +0.000 A 
ATOM      2  N   UNL     1       6.220   5.550  19.708  0.00  0.00    +0.000 NA
ATOM      3  N   UNL     1       7.290   5.427  18.847  0.00  0.00    +0.000 NA
ATOM      4  C   UNL     1       6.846   4.899  17.729  0.00  0.00    +0.000 A 
ATOM      5  N   UNL     1       5.498   4.672  17.862  0.00  0.00    +0.000 N 
ATOM      6  C   UNL     1       4.699   4.019  16.846  0.00  0.00    +0.000 C 
ATOM      7  C   UNL     1       5.622   3.178  15.966  0.00  0.00    +0.000 C 
ATOM      8  N   UNL     1       6.699   4.042  15.458  0.00  0.00    +0.000 N 
ATOM      9  C   UNL     1       6.959   4.409  14.139  0.00  0.00    +0.000 C 
ATOM     10  O   UNL     1       7.934   5.104  13.832  0.00  0.00    +0.000 OA
ATOM     11  C   UNL     1       7.617   4.506  16.509  0.00  0.00    +0.000 C 
ENDROOT
BRANCH   1  17
ATOM     12  C   UNL     1       1.798   2.440  21.341  0.00  0.00    +0.000 C 
ATOM     13  C   UNL     1       2.184   3.772  20.771  0.00  0.00    +0.000 A 
ATOM     14  C   UNL     1       1.289   4.835  20.774  0.00  0.00    +0.000 A 
ATOM     15  C   UNL     1       1.673   6.037  20.187  0.00  0.00    +0.000 A 
ATOM     16  C   UNL     1       2.933   6.144  19.610  0.00  0.00    +0.000 A 
ATOM     17  C   UNL     1       3.782   5.046  19.664  0.00  0.00    +0.000 A 
ATOM     18  N   UNL     1       3.429   3.868  20.243  0.00  0.00    +0.000 NA
ENDBRANCH   1  17
BRANCH   9  19
ATOM     19  C   UNL     1       6.106   3.909  13.023  0.00  0.00    +0.000 A 
ATOM     20  C   UNL     1       4.869   4.485  12.701  0.00  0.00    +0.000 A 
ATOM     21  C   UNL     1       3.997   3.864  11.813  0.00  0.00    +0.000 A 
ATOM     22  C   UNL     1       4.439   2.750  11.124  0.00  0.00    +0.000 A 
ATOM     23  F   UNL     1       3.627   2.160  10.242  0.00  0.00    +0.000 F 
ATOM     24  C   UNL     1       5.720   2.241  11.311  0.00  0.00    +0.000 A 
ATOM     25  C   UNL     1       6.553   2.813  12.275  0.00  0.00    +0.000 A 
ENDBRANCH   9  19
TORSDOF 2
ENDMDL
MODEL 5
REMARK VINA RESULT:      -7.4      9.343     11.857
REMARK  Name = 
REMARK  3 active torsions:
REMARK  status: ('A' for Active; 'I' for Inactive)
REMARK    1  A    between atoms: C_1  and  C_2
REMARK    2  A    between atoms: C_6  and  C_7
REMARK    3  A    between atoms: C_15  and  C_17
REMARK                            x       y       z     vdW  Elec       q    Type
REMARK                         _______ _______ _______ _____ _____    ______ ____
ROOT
ATOM      1  C   UNL     1       0.314  10.152  21.101  0.00  0.00    +0.000 A 
ATOM      2  N   UNL     1       0.615  10.161  22.389  0.00  0.00    +0.000 NA
ATOM      3  N   UNL     1      -0.312  10.929  23.062  0.00  0.00    +0.000 NA
ATOM      4  C   UNL     1      -1.166  11.392  22.177  0.00  0.00    +0.000 A 
ATOM      5  N   UNL     1      -0.795  10.936  20.936  0.00  0.00    +0.000 N 
ATOM      6  C   UNL     1      -1.470  11.323  19.715  0.00  0.00    +0.000 C 
ATOM      7  C   UNL     1      -2.193  12.648  19.955  0.00  0.00    +0.000 C 
ATOM      8  N   UNL     1      -3.063  12.497  21.131  0.00  0.00    +0.000 N 
ATOM      9  C   UNL     1      -4.455  12.552  21.186  0.00  0.00    +0.000 C 
ATOM     10  O   UNL     1      -5.073  12.463  22.253  0.00  0.00    +0.000 OA
ATOM     11  C   UNL     1      -2.319  12.322  22.388  0.00  0.00    +0.000 C 
ENDROOT
BRANCH   1  17
ATOM     12  C   UNL     1       2.653   6.181  19.700  0.00  0.00    +0.000 C 
ATOM     13  C   UNL     1       2.145   7.546  19.345  0.00  0.00    +0.000 A 
ATOM     14  C   UNL     1       2.390   8.095  18.091  0.00  0.00    +0.000 A 
ATOM     15  C   UNL     1       1.944   9.385  17.824  0.00  0.00    +0.000 A 
ATOM     16  C   UNL     1       1.271  10.093  18.815  0.00  0.00    +0.000 A 
ATOM     17  C   UNL     1       1.043   9.472  20.035  0.00  0.00    +0.000 A 
ATOM     18  N   UNL     1       1.461   8.208  20.310  0.00  0.00    +0.000 NA
ENDBRANCH   1  17
BRANCH   9  19
ATOM     19  C   UNL     1      -5.259  12.801  19.955  0.00  0.00    +0.000 A 
ATOM     20  C   UNL     1      -5.393  11.848  18.935  0.00  0.00    +0.000 A 
ATOM     21  C   UNL     1      -5.955  12.185  17.709  0.00  0.00    +0.000 A 
ATOM     22  C   UNL     1      -6.532  13.433  17.567  0.00  0.00    +0.000 A 
ATOM     23  F   UNL     1      -7.106  13.762  16.405  0.00  0.00    +0.000 F 
ATOM     24  C   UNL     1      -6.549  14.349  18.614  0.00  0.00    +0.000 A 
ATOM     25  C   UNL     1      -5.897  14.039  19.809  0.00  0.00    +0.000 A 
ENDBRANCH   9  19
TORSDOF 2
ENDMDL
MODEL 6
REMARK VINA RESULT:      -7.4      5.392      8.855
REMARK  Name = 
REMARK  3 active torsions:
REMARK  status: ('A' for Active; 'I' for Inactive)
REMARK    1  A    between atoms: C_1  and  C_2
REMARK    2  A    between atoms: C_6  and  C_7
REMARK    3  A    between atoms: C_15  and  C_17
REMARK                            x       y       z     vdW  Elec       q    Type
REMARK                         _______ _______ _______ _____ _____    ______ ____
ROOT
ATOM      1  C   UNL     1       0.856   9.376  20.113  0.00  0.00    +0.000 A 
ATOM      2  N   UNL     1       0.511   9.024  21.341  0.00  0.00    +0.000 NA
ATOM      3  N   UNL     1       1.056   7.790  21.624  0.00  0.00    +0.000 NA
ATOM      4  C   UNL     1       1.719   7.391  20.561  0.00  0.00    +0.000 A 
ATOM      5  N   UNL     1       1.602   8.356  19.590  0.00  0.00    +0.000 N 
ATOM      6  C   UNL     1       2.142   8.207  18.255  0.00  0.00    +0.000 C 
ATOM      7  C   UNL     1       2.313   6.717  17.961  0.00  0.00    +0.000 C 
ATOM      8  N   UNL     1       3.120   6.119  19.034  0.00  0.00    +0.000 N 
ATOM      9  C   UNL     1       4.389   5.549  18.942  0.00  0.00    +0.000 C 
ATOM     10  O   UNL     1       4.945   5.026  19.915  0.00  0.00    +0.000 OA
ATOM     11  C   UNL     1       2.435   6.097  20.336  0.00  0.00    +0.000 C 
ENDROOT
BRANCH   1  17
ATOM     12  C   UNL     1      -2.456  11.672  17.474  0.00  0.00    +0.000 C 
ATOM     13  C   UNL     1      -1.128  11.723  18.168  0.00  0.00    +0.000 A 
ATOM     14  C   UNL     1      -0.335  12.864  18.107  0.00  0.00    +0.000 A 
ATOM     15  C   UNL     1       0.912  12.847  18.723  0.00  0.00    +0.000 A 
ATOM     16  C   UNL     1       1.336  11.695  19.376  0.00  0.00    +0.000 A 
ATOM     17  C   UNL     1       0.481  10.602  19.415  0.00  0.00    +0.000 A 
ATOM     18  N   UNL     1      -0.747  10.603  18.829  0.00  0.00    +0.000 NA
ENDBRANCH   1  17
BRANCH   9  19
ATOM     19  C   UNL     1       5.101   5.476  17.635  0.00  0.00    +0.000 A 
ATOM     20  C   UNL     1       4.712   4.602  16.610  0.00  0.00    +0.000 A 
ATOM     21  C   UNL     1       5.521   4.393  15.499  0.00  0.00    +0.000 A 
ATOM     22  C   UNL     1       6.642   5.186  15.340  0.00  0.00    +0.000 A 
ATOM     23  F   UNL     1       7.414   5.021  14.261  0.00  0.00    +0.000 F 
ATOM     24  C   UNL     1       6.974   6.168  16.267  0.00  0.00    +0.000 A 
ATOM     25  C   UNL     1       6.210   6.305  17.427  0.00  0.00    +0.000 A 
ENDBRANCH   9  19
TORSDOF 2
ENDMDL
MODEL 7
REMARK VINA RESULT:      -7.4      5.589      8.931
REMARK  Name = 
REMARK  3 active torsions:
REMARK  status: ('A' for Active; 'I' for Inactive)
REMARK    1  A    between atoms: C_1  and  C_2
REMARK    2  A    between atoms: C_6  and  C_7
REMARK    3  A    between atoms: C_15  and  C_17
REMARK                            x       y       z     vdW  Elec       q    Type
REMARK                         _______ _______ _______ _____ _____    ______ ____
ROOT
ATOM      1  C   UNL     1       0.844   9.864  20.185  0.00  0.00    +0.000 A 
ATOM      2  N   UNL     1       0.511   9.573  21.433  0.00  0.00    +0.000 NA
ATOM      3  N   UNL     1       0.949   8.300  21.729  0.00  0.00    +0.000 NA
ATOM      4  C   UNL     1       1.535   7.818  20.656  0.00  0.00    +0.000 A 
ATOM      5  N   UNL     1       1.473   8.767  19.665  0.00  0.00    +0.000 N 
ATOM      6  C   UNL     1       1.951   8.538  18.317  0.00  0.00    +0.000 C 
ATOM      7  C   UNL     1       1.972   7.032  18.056  0.00  0.00    +0.000 C 
ATOM      8  N   UNL     1       2.758   6.385  19.117  0.00  0.00    +0.000 N 
ATOM      9  C   UNL     1       3.964   5.698  18.999  0.00  0.00    +0.000 C 
ATOM     10  O   UNL     1       4.503   5.148  19.966  0.00  0.00    +0.000 OA
ATOM     11  C   UNL     1       2.119   6.458  20.441  0.00  0.00    +0.000 C 
ENDROOT
BRANCH   1  17
ATOM     12  C   UNL     1       2.581  13.980  18.384  0.00  0.00    +0.000 C 
ATOM     13  C   UNL     1       1.400  13.075  18.570  0.00  0.00    +0.000 A 
ATOM     14  C   UNL     1       0.143  13.437  18.100  0.00  0.00    +0.000 A 
ATOM     15  C   UNL     1      -0.934  12.588  18.341  0.00  0.00    +0.000 A 
ATOM     16  C   UNL     1      -0.728  11.409  19.049  0.00  0.00    +0.000 A 
ATOM     17  C   UNL     1       0.559  11.103  19.468  0.00  0.00    +0.000 A 
ATOM     18  N   UNL     1       1.626  11.913  19.231  0.00  0.00    +0.000 NA
ENDBRANCH   1  17
BRANCH   9  19
ATOM     19  C   UNL     1       4.621   5.529  17.671  0.00  0.00    +0.000 A 
ATOM     20  C   UNL     1       4.996   6.616  16.870  0.00  0.00    +0.000 A 
ATOM     21  C   UNL     1       5.395   6.432  15.551  0.00  0.00    +0.000 A 
ATOM     22  C   UNL     1       5.576   5.141  15.089  0.00  0.00    +0.000 A 
ATOM     23  F   UNL     1       5.991   4.946  13.835  0.00  0.00    +0.000 F 
ATOM     24  C   UNL     1       5.357   4.039  15.910  0.00  0.00    +0.000 A 
ATOM     25  C   UNL     1       4.863   4.231  17.202  0.00  0.00    +0.000 A 
ENDBRANCH   9  19
TORSDOF 2
ENDMDL
MODEL 8
REMARK VINA RESULT:      -7.3      9.267     11.797
REMARK  Name = 
REMARK  3 active torsions:
REMARK  status: ('A' for Active; 'I' for Inactive)
REMARK    1  A    between atoms: C_1  and  C_2
REMARK    2  A    between atoms: C_6  and  C_7
REMARK    3  A    between atoms: C_15  and  C_17
REMARK                            x       y       z     vdW  Elec       q    Type
REMARK                         _______ _______ _______ _____ _____    ______ ____
ROOT
ATOM      1  C   UNL     1       0.470   9.773  21.383  0.00  0.00    +0.000 A 
ATOM      2  N   UNL     1       0.774   9.481  22.637  0.00  0.00    +0.000 NA
ATOM      3  N   UNL     1      -0.058  10.190  23.477  0.00  0.00    +0.000 NA
ATOM      4  C   UNL     1      -0.856  10.919  22.730  0.00  0.00    +0.000 A 
ATOM      5  N   UNL     1      -0.542  10.693  21.412  0.00  0.00    +0.000 N 
ATOM      6  C   UNL     1      -1.172  11.397  20.315  0.00  0.00    +0.000 C 
ATOM      7  C   UNL     1      -1.739  12.715  20.842  0.00  0.00    +0.000 C 
ATOM      8  N   UNL     1      -2.617  12.421  21.984  0.00  0.00    +0.000 N 
ATOM      9  C   UNL     1      -3.994  12.616  22.086  0.00  0.00    +0.000 C 
ATOM     10  O   UNL     1      -4.615  12.377  23.127  0.00  0.00    +0.000 OA
ATOM     11  C   UNL     1      -1.894  11.907  23.158  0.00  0.00    +0.000 C 
ENDROOT
BRANCH   1  17
ATOM     12  C   UNL     1       2.940   6.167  19.358  0.00  0.00    +0.000 C 
ATOM     13  C   UNL     1       2.279   7.502  19.192  0.00  0.00    +0.000 A 
ATOM     14  C   UNL     1       2.319   8.171  17.974  0.00  0.00    +0.000 A 
ATOM     15  C   UNL     1       1.736   9.431  17.881  0.00  0.00    +0.000 A 
ATOM     16  C   UNL     1       1.136   9.990  19.004  0.00  0.00    +0.000 A 
ATOM     17  C   UNL     1       1.114   9.253  20.180  0.00  0.00    +0.000 A 
ATOM     18  N   UNL     1       1.668   8.016  20.288  0.00  0.00    +0.000 NA
ENDBRANCH   1  17
BRANCH   9  19
ATOM     19  C   UNL     1      -4.768  13.203  20.955  0.00  0.00    +0.000 A 
ATOM     20  C   UNL     1      -4.989  14.581  20.824  0.00  0.00    +0.000 A 
ATOM     21  C   UNL     1      -5.896  15.078  19.896  0.00  0.00    +0.000 A 
ATOM     22  C   UNL     1      -6.457  14.201  18.986  0.00  0.00    +0.000 A 
ATOM     23  F   UNL     1      -7.306  14.667  18.065  0.00  0.00    +0.000 F 
ATOM     24  C   UNL     1      -6.141  12.846  18.993  0.00  0.00    +0.000 A 
ATOM     25  C   UNL     1      -5.305  12.341  19.990  0.00  0.00    +0.000 A 
ENDBRANCH   9  19
TORSDOF 2
ENDMDL
MODEL 9
REMARK VINA RESULT:      -7.3      5.497      8.835
REMARK  Name = 
REMARK  3 active torsions:
REMARK  status: ('A' for Active; 'I' for Inactive)
REMARK    1  A    between atoms: C_1  and  C_2
REMARK    2  A    between atoms: C_6  and  C_7
REMARK    3  A    between atoms: C_15  and  C_17
REMARK                            x       y       z     vdW  Elec       q    Type
REMARK                         _______ _______ _______ _____ _____    ______ ____
ROOT
ATOM      1  C   UNL     1       0.811   9.580  20.119  0.00  0.00    +0.000 A 
ATOM      2  N   UNL     1       0.585   9.328  21.399  0.00  0.00    +0.000 NA
ATOM      3  N   UNL     1       1.156   8.117  21.726  0.00  0.00    +0.000 NA
ATOM      4  C   UNL     1       1.717   7.632  20.640  0.00  0.00    +0.000 A 
ATOM      5  N   UNL     1       1.506   8.517  19.611  0.00  0.00    +0.000 N 
ATOM      6  C   UNL     1       1.919   8.259  18.248  0.00  0.00    +0.000 C 
ATOM      7  C   UNL     1       2.063   6.750  18.058  0.00  0.00    +0.000 C 
ATOM      8  N   UNL     1       2.970   6.234  19.095  0.00  0.00    +0.000 N 
ATOM      9  C   UNL     1       4.225   5.652  18.929  0.00  0.00    +0.000 C 
ATOM     10  O   UNL     1       4.871   5.205  19.884  0.00  0.00    +0.000 OA
ATOM     11  C   UNL     1       2.410   6.320  20.453  0.00  0.00    +0.000 C 
ENDROOT
BRANCH   1  17
ATOM     12  C   UNL     1      -2.640  11.575  17.414  0.00  0.00    +0.000 C 
ATOM     13  C   UNL     1      -1.307  11.725  18.085  0.00  0.00    +0.000 A 
ATOM     14  C   UNL     1      -0.570  12.897  17.953  0.00  0.00    +0.000 A 
ATOM     15  C   UNL     1       0.684  12.971  18.550  0.00  0.00    +0.000 A 
ATOM     16  C   UNL     1       1.171  11.876  19.256  0.00  0.00    +0.000 A 
ATOM     17  C   UNL     1       0.369  10.748  19.364  0.00  0.00    +0.000 A 
ATOM     18  N   UNL     1      -0.864  10.661  18.797  0.00  0.00    +0.000 NA
ENDBRANCH   1  17
BRANCH   9  19
ATOM     19  C   UNL     1       4.811   5.471  17.570  0.00  0.00    +0.000 A 
ATOM     20  C   UNL     1       5.058   6.546  16.705  0.00  0.00    +0.000 A 
ATOM     21  C   UNL     1       5.390   6.332  15.372  0.00  0.00    +0.000 A 
ATOM     22  C   UNL     1       5.635   5.038  14.951  0.00  0.00    +0.000 A 
ATOM     23  F   UNL     1       5.987   4.818  13.681  0.00  0.00    +0.000 F 
ATOM     24  C   UNL     1       5.544   3.961  15.826  0.00  0.00    +0.000 A 
ATOM     25  C   UNL     1       5.117   4.174  17.138  0.00  0.00    +0.000 A 
ENDBRANCH   9  19
TORSDOF 2
ENDMDL
