MODEL 1
REMARK VINA RESULT:      -8.0      0.000      0.000
REMARK  Name = 
REMARK  6 active torsions:
REMARK  status: ('A' for Active; 'I' for Inactive)
REMARK    1  A    between atoms: C_1  and  C_2
REMARK    2  A    between atoms: C_3  and  C_4
REMARK    3  A    between atoms: N_8  and  C_9
REMARK    4  A    between atoms: C_16  and  N_17
REMARK    5  A    between atoms: N_20  and  C_21
REMARK    6  A    between atoms: C_30  and  C_31
REMARK                            x       y       z     vdW  Elec       q    Type
REMARK                         _______ _______ _______ _____ _____    ______ ____
ROOT
ATOM      1  C   UNL     1      -1.934  15.140  20.968  0.00  0.00    +0.000 C 
ATOM      2  C   UNL     1      -2.024  13.821  21.695  0.00  0.00    +0.000 A 
ATOM      3  C   UNL     1      -2.747  13.657  22.878  0.00  0.00    +0.000 A 
ATOM      4  N   UNL     1      -2.718  12.475  23.524  0.00  0.00    +0.000 NA
ATOM      5  N   UNL     1      -1.935  11.430  23.062  0.00  0.00    +0.000 NA
ATOM      6  C   UNL     1      -1.222  11.517  21.916  0.00  0.00    +0.000 A 
ATOM      7  N   UNL     1      -0.307  10.514  21.613  0.00  0.00    +0.000 N 
ATOM      8  C   UNL     1       0.178   9.721  22.748  0.00  0.00    +0.000 C 
ATOM      9  C   UNL     1       1.590   9.241  22.410  0.00  0.00    +0.000 C 
ATOM     10  C   UNL     1       1.657   8.518  21.059  0.00  0.00    +0.000 C 
ATOM     11  C   UNL     1       0.949   9.317  19.952  0.00  0.00    +0.000 C 
ATOM     12  C   UNL     1      -0.463   9.723  20.390  0.00  0.00    +0.000 C 
ATOM     13  C   UNL     1      -1.297  12.705  21.170  0.00  0.00    +0.000 A 
ATOM     14  C   UNL     1      -0.561  12.906  19.867  0.00  0.00    +0.000 C 
ENDROOT
BRANCH   3  15
ATOM     15  C   UNL     1      -3.578  14.678  23.529  0.00  0.00    +0.000 A 
ATOM     16  C   UNL     1      -3.254  15.645  24.475  0.00  0.00    +0.000 A 
ATOM     17  C   UNL     1      -4.444  16.328  24.763  0.00  0.00    +0.000 A 
ATOM     18  N   UNL     1      -5.465  15.873  24.043  0.00  0.00    +0.000 NA
ATOM     19  N   UNL     1      -4.924  14.892  23.287  0.00  0.00    +0.000 N 
ATOM     20  C   UNL     1      -5.797  14.186  22.377  0.00  0.00    +0.000 C 
ENDBRANCH   3  15
BRANCH  10  21
ATOM     21  N   UNL     1       1.145   7.153  21.150  0.00  0.00    +0.000 N 
ATOM     22  C   UNL     1       1.789   6.125  20.510  0.00  0.00    +0.000 C 
ATOM     23  O   UNL     1       2.819   6.268  19.866  0.00  0.00    +0.000 OA
ATOM     24  N   UNL     1       1.187   4.913  20.726  0.00  0.00    +0.000 N 
ATOM     25  H   UNL     1       0.187   7.006  21.425  0.00  0.00    +0.000 HD
ATOM     26  H   UNL     1       0.225   4.907  21.034  0.00  0.00    +0.000 HD
BRANCH  24  27
ATOM     27  C   UNL     1       1.741   3.678  20.167  0.00  0.00    +0.000 C 
ATOM     28  C   UNL     1       1.081   3.360  18.821  0.00  0.00    +0.000 C 
ATOM     29  C   UNL     1       1.672   4.099  17.622  0.00  0.00    +0.000 C 
ATOM     30  C   UNL     1       2.847   3.359  16.984  0.00  0.00    +0.000 C 
ATOM     31  C   UNL     1       4.122   3.303  17.819  0.00  0.00    +0.000 C 
ATOM     32  C   UNL     1       3.959   2.743  19.231  0.00  0.00    +0.000 C 
ATOM     33  C   UNL     1       3.271   3.725  20.177  0.00  0.00    +0.000 C 
ENDBRANCH  24  27
ENDBRANCH  10  21
TORSDOF 3
ENDMDL
MODEL 2
REMARK VINA RESULT:      -7.9      6.307      7.776
REMARK  Name = 
REMARK  6 active torsions:
REMARK  status: ('A' for Active; 'I' for Inactive)
REMARK    1  A    between atoms: C_1  and  C_2
REMARK    2  A    between atoms: C_3  and  C_4
REMARK    3  A    between atoms: N_8  and  C_9
REMARK    4  A    between atoms: C_16  and  N_17
REMARK    5  A    between atoms: N_20  and  C_21
REMARK    6  A    between atoms: C_30  and  C_31
REMARK                            x       y       z     vdW  Elec       q    Type
REMARK                         _______ _______ _______ _____ _____    ______ ____
ROOT
ATOM      1  C   UNL     1      -2.639  13.241  19.979  0.00  0.00    +0.000 C 
ATOM      2  C   UNL     1      -1.372  13.434  20.778  0.00  0.00    +0.000 A 
ATOM      3  C   UNL     1      -1.363  13.520  22.171  0.00  0.00    +0.000 A 
ATOM      4  N   UNL     1      -0.211  13.779  22.820  0.00  0.00    +0.000 NA
ATOM      5  N   UNL     1       0.961  14.018  22.122  0.00  0.00    +0.000 NA
ATOM      6  C   UNL     1       1.025  13.936  20.773  0.00  0.00    +0.000 A 
ATOM      7  N   UNL     1       2.173  14.378  20.124  0.00  0.00    +0.000 N 
ATOM      8  C   UNL     1       3.004  15.334  20.865  0.00  0.00    +0.000 C 
ATOM      9  C   UNL     1       3.719  16.218  19.842  0.00  0.00    +0.000 C 
ATOM     10  C   UNL     1       4.481  15.401  18.790  0.00  0.00    +0.000 C 
ATOM     11  C   UNL     1       3.606  14.282  18.199  0.00  0.00    +0.000 C 
ATOM     12  C   UNL     1       2.961  13.448  19.312  0.00  0.00    +0.000 C 
ATOM     13  C   UNL     1      -0.138  13.583  20.069  0.00  0.00    +0.000 A 
ATOM     14  C   UNL     1      -0.178  13.442  18.566  0.00  0.00    +0.000 C 
ENDROOT
BRANCH   3  15
ATOM     15  C   UNL     1      -2.525  13.350  23.054  0.00  0.00    +0.000 A 
ATOM     16  C   UNL     1      -3.039  12.215  23.670  0.00  0.00    +0.000 A 
ATOM     17  C   UNL     1      -4.178  12.631  24.374  0.00  0.00    +0.000 A 
ATOM     18  N   UNL     1      -4.383  13.939  24.261  0.00  0.00    +0.000 NA
ATOM     19  N   UNL     1      -3.365  14.365  23.478  0.00  0.00    +0.000 N 
ATOM     20  C   UNL     1      -3.305  15.774  23.162  0.00  0.00    +0.000 C 
ENDBRANCH   3  15
BRANCH  10  21
ATOM     21  N   UNL     1       5.739  14.880  19.318  0.00  0.00    +0.000 N 
ATOM     22  C   UNL     1       6.833  14.746  18.500  0.00  0.00    +0.000 C 
ATOM     23  O   UNL     1       6.840  15.071  17.321  0.00  0.00    +0.000 OA
ATOM     24  N   UNL     1       7.931  14.269  19.167  0.00  0.00    +0.000 N 
ATOM     25  H   UNL     1       5.731  14.355  20.178  0.00  0.00    +0.000 HD
ATOM     26  H   UNL     1       7.785  13.787  20.042  0.00  0.00    +0.000 HD
BRANCH  24  27
ATOM     27  C   UNL     1       9.216  14.092  18.487  0.00  0.00    +0.000 C 
ATOM     28  C   UNL     1      10.371  14.454  19.426  0.00  0.00    +0.000 C 
ATOM     29  C   UNL     1      10.793  13.345  20.387  0.00  0.00    +0.000 C 
ATOM     30  C   UNL     1      11.845  12.409  19.794  0.00  0.00    +0.000 C 
ATOM     31  C   UNL     1      11.362  11.506  18.664  0.00  0.00    +0.000 C 
ATOM     32  C   UNL     1      10.692  12.221  17.492  0.00  0.00    +0.000 C 
ATOM     33  C   UNL     1       9.285  12.712  17.827  0.00  0.00    +0.000 C 
ENDBRANCH  24  27
ENDBRANCH  10  21
TORSDOF 3
ENDMDL
MODEL 3
REMARK VINA RESULT:      -7.7      6.907      8.107
REMARK  Name = 
REMARK  6 active torsions:
REMARK  status: ('A' for Active; 'I' for Inactive)
REMARK    1  A    between atoms: C_1  and  C_2
REMARK    2  A    between atoms: C_3  and  C_4
REMARK    3  A    between atoms: N_8  and  C_9
REMARK    4  A    between atoms: C_16  and  N_17
REMARK    5  A    between atoms: N_20  and  C_21
REMARK    6  A    between atoms: C_30  and  C_31
REMARK                            x       y       z     vdW  Elec       q    Type
REMARK                         _______ _______ _______ _____ _____    ______ ____
ROOT
ATOM      1  C   UNL     1      -2.204  16.009  20.617  0.00  0.00    +0.000 C 
ATOM      2  C   UNL     1      -0.931  15.321  21.047  0.00  0.00    +0.000 A 
ATOM      3  C   UNL     1      -0.803  14.667  22.273  0.00  0.00    +0.000 A 
ATOM      4  N   UNL     1       0.386  14.145  22.634  0.00  0.00    +0.000 NA
ATOM      5  N   UNL     1       1.504  14.297  21.830  0.00  0.00    +0.000 NA
ATOM      6  C   UNL     1       1.446  14.907  20.624  0.00  0.00    +0.000 A 
ATOM      7  N   UNL     1       2.631  15.201  19.959  0.00  0.00    +0.000 N 
ATOM      8  C   UNL     1       3.833  15.289  20.796  0.00  0.00    +0.000 C 
ATOM      9  C   UNL     1       4.795  16.271  20.124  0.00  0.00    +0.000 C 
ATOM     10  C   UNL     1       5.070  15.913  18.658  0.00  0.00    +0.000 C 
ATOM     11  C   UNL     1       3.768  15.634  17.889  0.00  0.00    +0.000 C 
ATOM     12  C   UNL     1       2.896  14.622  18.641  0.00  0.00    +0.000 C 
ATOM     13  C   UNL     1       0.203  15.386  20.177  0.00  0.00    +0.000 A 
ATOM     14  C   UNL     1       0.017  16.065  18.841  0.00  0.00    +0.000 C 
ENDROOT
BRANCH   3  15
ATOM     15  C   UNL     1      -1.871  14.471  23.263  0.00  0.00    +0.000 A 
ATOM     16  C   UNL     1      -2.797  13.444  23.408  0.00  0.00    +0.000 A 
ATOM     17  C   UNL     1      -3.596  13.788  24.507  0.00  0.00    +0.000 A 
ATOM     18  N   UNL     1      -3.211  14.931  25.065  0.00  0.00    +0.000 NA
ATOM     19  N   UNL     1      -2.154  15.322  24.317  0.00  0.00    +0.000 N 
ATOM     20  C   UNL     1      -1.497  16.559  24.676  0.00  0.00    +0.000 C 
ENDBRANCH   3  15
BRANCH  10  21
ATOM     21  N   UNL     1       6.015  14.806  18.540  0.00  0.00    +0.000 N 
ATOM     22  C   UNL     1       7.354  15.049  18.370  0.00  0.00    +0.000 C 
ATOM     23  O   UNL     1       7.839  16.172  18.340  0.00  0.00    +0.000 OA
ATOM     24  N   UNL     1       8.094  13.897  18.306  0.00  0.00    +0.000 N 
ATOM     25  H   UNL     1       5.671  13.892  18.291  0.00  0.00    +0.000 HD
ATOM     26  H   UNL     1       7.616  13.037  18.077  0.00  0.00    +0.000 HD
BRANCH  24  27
ATOM     27  C   UNL     1       9.551  13.935  18.170  0.00  0.00    +0.000 C 
ATOM     28  C   UNL     1      10.207  14.203  19.528  0.00  0.00    +0.000 C 
ATOM     29  C   UNL     1      10.381  12.972  20.415  0.00  0.00    +0.000 C 
ATOM     30  C   UNL     1      11.695  12.233  20.161  0.00  0.00    +0.000 C 
ATOM     31  C   UNL     1      11.799  11.517  18.818  0.00  0.00    +0.000 C 
ATOM     32  C   UNL     1      11.530  12.382  17.589  0.00  0.00    +0.000 C 
ATOM     33  C   UNL     1      10.049  12.704  17.407  0.00  0.00    +0.000 C 
ENDBRANCH  24  27
ENDBRANCH  10  21
TORSDOF 3
ENDMDL
MODEL 4
REMARK VINA RESULT:      -7.6      3.644     10.945
REMARK  Name = 
REMARK  6 active torsions:
REMARK  status: ('A' for Active; 'I' for Inactive)
REMARK    1  A    between atoms: C_1  and  C_2
REMARK    2  A    between atoms: C_3  and  C_4
REMARK    3  A    between atoms: N_8  and  C_9
REMARK    4  A    between atoms: C_16  and  N_17
REMARK    5  A    between atoms: N_20  and  C_21
REMARK    6  A    between atoms: C_30  and  C_31
REMARK                            x       y       z     vdW  Elec       q    Type
REMARK                         _______ _______ _______ _____ _____    ______ ____
ROOT
ATOM      1  C   UNL     1       4.122   5.334  19.462  0.00  0.00    +0.000 C 
ATOM      2  C   UNL     1       3.533   6.498  18.701  0.00  0.00    +0.000 A 
ATOM      3  C   UNL     1       3.999   6.894  17.447  0.00  0.00    +0.000 A 
ATOM      4  N   UNL     1       3.487   7.993  16.858  0.00  0.00    +0.000 NA
ATOM      5  N   UNL     1       2.541   8.772  17.503  0.00  0.00    +0.000 NA
ATOM      6  C   UNL     1       2.037   8.437  18.713  0.00  0.00    +0.000 A 
ATOM      7  N   UNL     1       1.244   9.356  19.391  0.00  0.00    +0.000 N 
ATOM      8  C   UNL     1       1.413  10.761  19.004  0.00  0.00    +0.000 C 
ATOM      9  C   UNL     1       1.092  11.622  20.227  0.00  0.00    +0.000 C 
ATOM     10  C   UNL     1      -0.279  11.294  20.833  0.00  0.00    +0.000 C 
ATOM     11  C   UNL     1      -0.467   9.780  21.023  0.00  0.00    +0.000 C 
ATOM     12  C   UNL     1      -0.141   9.022  19.731  0.00  0.00    +0.000 C 
ATOM     13  C   UNL     1       2.483   7.250  19.318  0.00  0.00    +0.000 A 
ATOM     14  C   UNL     1       1.975   6.768  20.655  0.00  0.00    +0.000 C 
ENDROOT
BRANCH   3  15
ATOM     15  C   UNL     1       5.034   6.215  16.656  0.00  0.00    +0.000 A 
ATOM     16  C   UNL     1       4.938   5.181  15.732  0.00  0.00    +0.000 A 
ATOM     17  C   UNL     1       6.246   4.910  15.307  0.00  0.00    +0.000 A 
ATOM     18  N   UNL     1       7.132   5.719  15.878  0.00  0.00    +0.000 NA
ATOM     19  N   UNL     1       6.384   6.517  16.674  0.00  0.00    +0.000 N 
ATOM     20  C   UNL     1       7.070   7.527  17.448  0.00  0.00    +0.000 C 
ENDBRANCH   3  15
BRANCH  10  21
ATOM     21  N   UNL     1      -1.367  11.879  20.054  0.00  0.00    +0.000 N 
ATOM     22  C   UNL     1      -2.508  12.320  20.676  0.00  0.00    +0.000 C 
ATOM     23  O   UNL     1      -2.674  12.286  21.887  0.00  0.00    +0.000 OA
ATOM     24  N   UNL     1      -3.409  12.863  19.797  0.00  0.00    +0.000 N 
ATOM     25  H   UNL     1      -1.415  11.697  19.064  0.00  0.00    +0.000 HD
ATOM     26  H   UNL     1      -3.324  12.623  18.820  0.00  0.00    +0.000 HD
BRANCH  24  27
ATOM     27  C   UNL     1      -4.675  13.432  20.261  0.00  0.00    +0.000 C 
ATOM     28  C   UNL     1      -5.733  13.351  19.156  0.00  0.00    +0.000 C 
ATOM     29  C   UNL     1      -6.447  12.005  19.043  0.00  0.00    +0.000 C 
ATOM     30  C   UNL     1      -7.680  11.905  19.942  0.00  0.00    +0.000 C 
ATOM     31  C   UNL     1      -7.400  11.847  21.440  0.00  0.00    +0.000 C 
ATOM     32  C   UNL     1      -6.538  12.981  21.993  0.00  0.00    +0.000 C 
ATOM     33  C   UNL     1      -5.064  12.836  21.618  0.00  0.00    +0.000 C 
ENDBRANCH  24  27
ENDBRANCH  10  21
TORSDOF 3
ENDMDL
MODEL 5
REMARK VINA RESULT:      -7.5      6.429      8.031
REMARK  Name = 
REMARK  6 active torsions:
REMARK  status: ('A' for Active; 'I' for Inactive)
REMARK    1  A    between atoms: C_1  and  C_2
REMARK    2  A    between atoms: C_3  and  C_4
REMARK    3  A    between atoms: N_8  and  C_9
REMARK    4  A    between atoms: C_16  and  N_17
REMARK    5  A    between atoms: N_20  and  C_21
REMARK    6  A    between atoms: C_30  and  C_31
REMARK                            x       y       z     vdW  Elec       q    Type
REMARK                         _______ _______ _______ _____ _____    ______ ____
ROOT
ATOM      1  C   UNL     1      -2.219  12.995  19.690  0.00  0.00    +0.000 C 
ATOM      2  C   UNL     1      -1.016  13.337  20.535  0.00  0.00    +0.000 A 
ATOM      3  C   UNL     1      -1.082  13.480  21.922  0.00  0.00    +0.000 A 
ATOM      4  N   UNL     1       0.009  13.870  22.609  0.00  0.00    +0.000 NA
ATOM      5  N   UNL     1       1.188  14.187  21.954  0.00  0.00    +0.000 NA
ATOM      6  C   UNL     1       1.324  14.056  20.614  0.00  0.00    +0.000 A 
ATOM      7  N   UNL     1       2.458  14.575  19.998  0.00  0.00    +0.000 N 
ATOM      8  C   UNL     1       3.162  15.632  20.732  0.00  0.00    +0.000 C 
ATOM      9  C   UNL     1       3.844  16.536  19.703  0.00  0.00    +0.000 C 
ATOM     10  C   UNL     1       4.726  15.750  18.724  0.00  0.00    +0.000 C 
ATOM     11  C   UNL     1       3.986  14.533  18.146  0.00  0.00    +0.000 C 
ATOM     12  C   UNL     1       3.365  13.689  19.265  0.00  0.00    +0.000 C 
ATOM     13  C   UNL     1       0.233  13.569  19.876  0.00  0.00    +0.000 A 
ATOM     14  C   UNL     1       0.279  13.364  18.380  0.00  0.00    +0.000 C 
ENDROOT
BRANCH   3  15
ATOM     15  C   UNL     1      -2.266  13.241  22.758  0.00  0.00    +0.000 A 
ATOM     16  C   UNL     1      -3.311  14.085  23.116  0.00  0.00    +0.000 A 
ATOM     17  C   UNL     1      -4.151  13.339  23.954  0.00  0.00    +0.000 A 
ATOM     18  N   UNL     1      -3.716  12.092  24.112  0.00  0.00    +0.000 NA
ATOM     19  N   UNL     1      -2.589  12.040  23.367  0.00  0.00    +0.000 N 
ATOM     20  C   UNL     1      -1.864  10.790  23.330  0.00  0.00    +0.000 C 
ENDBRANCH   3  15
BRANCH  10  21
ATOM     21  N   UNL     1       5.999  15.370  19.330  0.00  0.00    +0.000 N 
ATOM     22  C   UNL     1       7.074  15.040  18.543  0.00  0.00    +0.000 C 
ATOM     23  O   UNL     1       7.050  15.072  17.320  0.00  0.00    +0.000 OA
ATOM     24  N   UNL     1       8.190  14.736  19.277  0.00  0.00    +0.000 N 
ATOM     25  H   UNL     1       6.014  15.067  20.291  0.00  0.00    +0.000 HD
ATOM     26  H   UNL     1       8.067  14.478  20.246  0.00  0.00    +0.000 HD
BRANCH  24  27
ATOM     27  C   UNL     1       9.458  14.398  18.629  0.00  0.00    +0.000 C 
ATOM     28  C   UNL     1      10.616  14.521  19.625  0.00  0.00    +0.000 C 
ATOM     29  C   UNL     1      10.822  13.308  20.529  0.00  0.00    +0.000 C 
ATOM     30  C   UNL     1      11.740  12.252  19.912  0.00  0.00    +0.000 C 
ATOM     31  C   UNL     1      11.170  11.502  18.713  0.00  0.00    +0.000 C 
ATOM     32  C   UNL     1      10.667  12.378  17.567  0.00  0.00    +0.000 C 
ATOM     33  C   UNL     1       9.341  13.063  17.888  0.00  0.00    +0.000 C 
ENDBRANCH  24  27
ENDBRANCH  10  21
TORSDOF 3
ENDMDL
MODEL 6
REMARK VINA RESULT:      -7.5      3.603     11.228
REMARK  Name = 
REMARK  6 active torsions:
REMARK  status: ('A' for Active; 'I' for Inactive)
REMARK    1  A    between atoms: C_1  and  C_2
REMARK    2  A    between atoms: C_3  and  C_4
REMARK    3  A    between atoms: N_8  and  C_9
REMARK    4  A    between atoms: C_16  and  N_17
REMARK    5  A    between atoms: N_20  and  C_21
REMARK    6  A    between atoms: C_30  and  C_31
REMARK                            x       y       z     vdW  Elec       q    Type
REMARK                         _______ _______ _______ _____ _____    ______ ____
ROOT
ATOM      1  C   UNL     1       3.933   5.421  19.584  0.00  0.00    +0.000 C 
ATOM      2  C   UNL     1       3.370   6.607  18.838  0.00  0.00    +0.000 A 
ATOM      3  C   UNL     1       3.845   7.007  17.588  0.00  0.00    +0.000 A 
ATOM      4  N   UNL     1       3.359   8.124  17.012  0.00  0.00    +0.000 NA
ATOM      5  N   UNL     1       2.432   8.918  17.667  0.00  0.00    +0.000 NA
ATOM      6  C   UNL     1       1.920   8.581  18.873  0.00  0.00    +0.000 A 
ATOM      7  N   UNL     1       1.150   9.511  19.563  0.00  0.00    +0.000 N 
ATOM      8  C   UNL     1       1.352  10.916  19.192  0.00  0.00    +0.000 C 
ATOM      9  C   UNL     1       1.052  11.769  20.425  0.00  0.00    +0.000 C 
ATOM     10  C   UNL     1      -0.326  11.467  21.028  0.00  0.00    +0.000 C 
ATOM     11  C   UNL     1      -0.549   9.955  21.201  0.00  0.00    +0.000 C 
ATOM     12  C   UNL     1      -0.242   9.205  19.900  0.00  0.00    +0.000 C 
ATOM     13  C   UNL     1       2.340   7.377  19.464  0.00  0.00    +0.000 A 
ATOM     14  C   UNL     1       1.821   6.892  20.797  0.00  0.00    +0.000 C 
ENDROOT
BRANCH   3  15
ATOM     15  C   UNL     1       4.863   6.312  16.789  0.00  0.00    +0.000 A 
ATOM     16  C   UNL     1       4.753   5.239  15.912  0.00  0.00    +0.000 A 
ATOM     17  C   UNL     1       6.049   4.973  15.451  0.00  0.00    +0.000 A 
ATOM     18  N   UNL     1       6.941   5.820  15.955  0.00  0.00    +0.000 NA
ATOM     19  N   UNL     1       6.207   6.638  16.744  0.00  0.00    +0.000 N 
ATOM     20  C   UNL     1       6.902   7.691  17.450  0.00  0.00    +0.000 C 
ENDBRANCH   3  15
BRANCH  10  21
ATOM     21  N   UNL     1      -1.401  12.086  20.257  0.00  0.00    +0.000 N 
ATOM     22  C   UNL     1      -2.587  12.419  20.861  0.00  0.00    +0.000 C 
ATOM     23  O   UNL     1      -2.808  12.256  22.053  0.00  0.00    +0.000 OA
ATOM     24  N   UNL     1      -3.468  13.013  19.996  0.00  0.00    +0.000 N 
ATOM     25  H   UNL     1      -1.395  12.003  19.253  0.00  0.00    +0.000 HD
ATOM     26  H   UNL     1      -3.328  12.877  19.005  0.00  0.00    +0.000 HD
BRANCH  24  27
ATOM     27  C   UNL     1      -4.778  13.485  20.450  0.00  0.00    +0.000 C 
ATOM     28  C   UNL     1      -4.653  14.868  21.097  0.00  0.00    +0.000 C 
ATOM     29  C   UNL     1      -4.635  16.040  20.118  0.00  0.00    +0.000 C 
ATOM     30  C   UNL     1      -6.033  16.556  19.779  0.00  0.00    +0.000 C 
ATOM     31  C   UNL     1      -6.896  15.619  18.939  0.00  0.00    +0.000 C 
ATOM     32  C   UNL     1      -7.066  14.207  19.495  0.00  0.00    +0.000 C 
ATOM     33  C   UNL     1      -5.812  13.352  19.328  0.00  0.00    +0.000 C 
ENDBRANCH  24  27
ENDBRANCH  10  21
TORSDOF 3
ENDMDL
MODEL 7
REMARK VINA RESULT:      -7.5      6.661      8.057
REMARK  Name = 
REMARK  6 active torsions:
REMARK  status: ('A' for Active; 'I' for Inactive)
REMARK    1  A    between atoms: C_1  and  C_2
REMARK    2  A    between atoms: C_3  and  C_4
REMARK    3  A    between atoms: N_8  and  C_9
REMARK    4  A    between atoms: C_16  and  N_17
REMARK    5  A    between atoms: N_20  and  C_21
REMARK    6  A    between atoms: C_30  and  C_31
REMARK                            x       y       z     vdW  Elec       q    Type
REMARK                         _______ _______ _______ _____ _____    ______ ____
ROOT
ATOM      1  C   UNL     1      -2.290  15.683  20.342  0.00  0.00    +0.000 C 
ATOM      2  C   UNL     1      -1.106  14.830  20.729  0.00  0.00    +0.000 A 
ATOM      3  C   UNL     1      -1.188  13.809  21.676  0.00  0.00    +0.000 A 
ATOM      4  N   UNL     1      -0.076  13.140  22.040  0.00  0.00    +0.000 NA
ATOM      5  N   UNL     1       1.164  13.489  21.529  0.00  0.00    +0.000 NA
ATOM      6  C   UNL     1       1.312  14.459  20.598  0.00  0.00    +0.000 A 
ATOM      7  N   UNL     1       2.592  14.894  20.274  0.00  0.00    +0.000 N 
ATOM      8  C   UNL     1       3.630  14.647  21.282  0.00  0.00    +0.000 C 
ATOM      9  C   UNL     1       4.686  15.744  21.139  0.00  0.00    +0.000 C 
ATOM     10  C   UNL     1       5.215  15.868  19.704  0.00  0.00    +0.000 C 
ATOM     11  C   UNL     1       4.069  15.918  18.680  0.00  0.00    +0.000 C 
ATOM     12  C   UNL     1       3.088  14.761  18.902  0.00  0.00    +0.000 C 
ATOM     13  C   UNL     1       0.162  15.118  20.131  0.00  0.00    +0.000 A 
ATOM     14  C   UNL     1       0.206  16.201  19.080  0.00  0.00    +0.000 C 
ENDROOT
BRANCH   3  15
ATOM     15  C   UNL     1      -2.410  13.355  22.354  0.00  0.00    +0.000 A 
ATOM     16  C   UNL     1      -2.796  13.445  23.686  0.00  0.00    +0.000 A 
ATOM     17  C   UNL     1      -4.048  12.822  23.776  0.00  0.00    +0.000 A 
ATOM     18  N   UNL     1      -4.472  12.384  22.595  0.00  0.00    +0.000 NA
ATOM     19  N   UNL     1      -3.483  12.732  21.741  0.00  0.00    +0.000 N 
ATOM     20  C   UNL     1      -3.647  12.388  20.347  0.00  0.00    +0.000 C 
ENDBRANCH   3  15
BRANCH  10  21
ATOM     21  N   UNL     1       6.174  14.813  19.389  0.00  0.00    +0.000 N 
ATOM     22  C   UNL     1       7.497  15.115  19.187  0.00  0.00    +0.000 C 
ATOM     23  O   UNL     1       7.956  16.245  19.284  0.00  0.00    +0.000 OA
ATOM     24  N   UNL     1       8.256  14.003  18.929  0.00  0.00    +0.000 N 
ATOM     25  H   UNL     1       5.837  13.932  19.037  0.00  0.00    +0.000 HD
ATOM     26  H   UNL     1       7.785  13.169  18.610  0.00  0.00    +0.000 HD
BRANCH  24  27
ATOM     27  C   UNL     1       9.703  14.100  18.725  0.00  0.00    +0.000 C 
ATOM     28  C   UNL     1      10.445  13.844  20.040  0.00  0.00    +0.000 C 
ATOM     29  C   UNL     1      10.653  12.371  20.388  0.00  0.00    +0.000 C 
ATOM     30  C   UNL     1      11.935  11.791  19.793  0.00  0.00    +0.000 C 
ATOM     31  C   UNL     1      11.945  11.631  18.276  0.00  0.00    +0.000 C 
ATOM     32  C   UNL     1      11.616  12.893  17.480  0.00  0.00    +0.000 C 
ATOM     33  C   UNL     1      10.132  13.249  17.527  0.00  0.00    +0.000 C 
ENDBRANCH  24  27
ENDBRANCH  10  21
TORSDOF 3
ENDMDL
MODEL 8
REMARK VINA RESULT:      -7.4      0.935      1.313
REMARK  Name = 
REMARK  6 active torsions:
REMARK  status: ('A' for Active; 'I' for Inactive)
REMARK    1  A    between atoms: C_1  and  C_2
REMARK    2  A    between atoms: C_3  and  C_4
REMARK    3  A    between atoms: N_8  and  C_9
REMARK    4  A    between atoms: C_16  and  N_17
REMARK    5  A    between atoms: N_20  and  C_21
REMARK    6  A    between atoms: C_30  and  C_31
REMARK                            x       y       z     vdW  Elec       q    Type
REMARK                         _______ _______ _______ _____ _____    ______ ____
ROOT
ATOM      1  C   UNL     1      -1.191  15.271  20.573  0.00  0.00    +0.000 C 
ATOM      2  C   UNL     1      -1.463  13.977  21.302  0.00  0.00    +0.000 A 
ATOM      3  C   UNL     1      -2.273  13.904  22.436  0.00  0.00    +0.000 A 
ATOM      4  N   UNL     1      -2.408  12.734  23.090  0.00  0.00    +0.000 NA
ATOM      5  N   UNL     1      -1.708  11.608  22.688  0.00  0.00    +0.000 NA
ATOM      6  C   UNL     1      -0.919  11.606  21.589  0.00  0.00    +0.000 A 
ATOM      7  N   UNL     1      -0.095  10.511  21.353  0.00  0.00    +0.000 N 
ATOM      8  C   UNL     1       0.232   9.687  22.523  0.00  0.00    +0.000 C 
ATOM      9  C   UNL     1       1.606   9.060  22.280  0.00  0.00    +0.000 C 
ATOM     10  C   UNL     1       1.685   8.316  20.940  0.00  0.00    +0.000 C 
ATOM     11  C   UNL     1       1.135   9.169  19.785  0.00  0.00    +0.000 C 
ATOM     12  C   UNL     1      -0.253   9.724  20.128  0.00  0.00    +0.000 C 
ATOM     13  C   UNL     1      -0.823  12.786  20.833  0.00  0.00    +0.000 A 
ATOM     14  C   UNL     1       0.012  12.892  19.579  0.00  0.00    +0.000 C 
ENDROOT
BRANCH   3  15
ATOM     15  C   UNL     1      -3.034  15.013  23.026  0.00  0.00    +0.000 A 
ATOM     16  C   UNL     1      -4.352  15.413  22.834  0.00  0.00    +0.000 A 
ATOM     17  C   UNL     1      -4.537  16.551  23.630  0.00  0.00    +0.000 A 
ATOM     18  N   UNL     1      -3.443  16.862  24.318  0.00  0.00    +0.000 NA
ATOM     19  N   UNL     1      -2.549  15.912  23.960  0.00  0.00    +0.000 N 
ATOM     20  C   UNL     1      -1.231  15.974  24.549  0.00  0.00    +0.000 C 
ENDBRANCH   3  15
BRANCH  10  21
ATOM     21  N   UNL     1       1.030   7.013  21.008  0.00  0.00    +0.000 N 
ATOM     22  C   UNL     1       1.647   5.898  20.500  0.00  0.00    +0.000 C 
ATOM     23  O   UNL     1       2.764   5.911  20.001  0.00  0.00    +0.000 OA
ATOM     24  N   UNL     1       0.902   4.760  20.672  0.00  0.00    +0.000 N 
ATOM     25  H   UNL     1       0.033   6.971  21.151  0.00  0.00    +0.000 HD
ATOM     26  H   UNL     1      -0.088   4.861  20.843  0.00  0.00    +0.000 HD
BRANCH  24  27
ATOM     27  C   UNL     1       1.399   3.453  20.239  0.00  0.00    +0.000 C 
ATOM     28  C   UNL     1       0.960   3.166  18.799  0.00  0.00    +0.000 C 
ATOM     29  C   UNL     1       1.839   3.792  17.719  0.00  0.00    +0.000 C 
ATOM     30  C   UNL     1       3.015   2.903  17.316  0.00  0.00    +0.000 C 
ATOM     31  C   UNL     1       4.103   2.732  18.370  0.00  0.00    +0.000 C 
ATOM     32  C   UNL     1       3.624   2.243  19.736  0.00  0.00    +0.000 C 
ATOM     33  C   UNL     1       2.897   3.327  20.528  0.00  0.00    +0.000 C 
ENDBRANCH  24  27
ENDBRANCH  10  21
TORSDOF 3
ENDMDL
MODEL 9
REMARK VINA RESULT:      -7.3      1.867      2.504
REMARK  Name = 
REMARK  6 active torsions:
REMARK  status: ('A' for Active; 'I' for Inactive)
REMARK    1  A    between atoms: C_1  and  C_2
REMARK    2  A    between atoms: C_3  and  C_4
REMARK    3  A    between atoms: N_8  and  C_9
REMARK    4  A    between atoms: C_16  and  N_17
REMARK    5  A    between atoms: N_20  and  C_21
REMARK    6  A    between atoms: C_30  and  C_31
REMARK                            x       y       z     vdW  Elec       q    Type
REMARK                         _______ _______ _______ _____ _____    ______ ____
ROOT
ATOM      1  C   UNL     1      -5.520  14.065  19.850  0.00  0.00    +0.000 C 
ATOM      2  C   UNL     1      -4.429  13.494  20.722  0.00  0.00    +0.000 A 
ATOM      3  C   UNL     1      -4.271  13.845  22.063  0.00  0.00    +0.000 A 
ATOM      4  N   UNL     1      -3.225  13.365  22.765  0.00  0.00    +0.000 NA
ATOM      5  N   UNL     1      -2.267  12.568  22.159  0.00  0.00    +0.000 NA
ATOM      6  C   UNL     1      -2.367  12.178  20.867  0.00  0.00    +0.000 A 
ATOM      7  N   UNL     1      -1.282  11.549  20.267  0.00  0.00    +0.000 N 
ATOM      8  C   UNL     1       0.026  11.791  20.885  0.00  0.00    +0.000 C 
ATOM      9  C   UNL     1       1.085  11.685  19.787  0.00  0.00    +0.000 C 
ATOM     10  C   UNL     1       0.990  10.370  19.004  0.00  0.00    +0.000 C 
ATOM     11  C   UNL     1      -0.452  10.078  18.559  0.00  0.00    +0.000 C 
ATOM     12  C   UNL     1      -1.421  10.188  19.742  0.00  0.00    +0.000 C 
ATOM     13  C   UNL     1      -3.491  12.589  20.130  0.00  0.00    +0.000 A 
ATOM     14  C   UNL     1      -3.716  12.198  18.689  0.00  0.00    +0.000 C 
ENDROOT
BRANCH   3  15
ATOM     15  C   UNL     1      -5.160  14.723  22.836  0.00  0.00    +0.000 A 
ATOM     16  C   UNL     1      -5.035  16.062  23.186  0.00  0.00    +0.000 A 
ATOM     17  C   UNL     1      -6.166  16.376  23.952  0.00  0.00    +0.000 A 
ATOM     18  N   UNL     1      -6.989  15.339  24.073  0.00  0.00    +0.000 NA
ATOM     19  N   UNL     1      -6.380  14.353  23.376  0.00  0.00    +0.000 N 
ATOM     20  C   UNL     1      -7.038  13.067  23.316  0.00  0.00    +0.000 C 
ENDBRANCH   3  15
BRANCH  10  21
ATOM     21  N   UNL     1       1.561   9.253  19.752  0.00  0.00    +0.000 N 
ATOM     22  C   UNL     1       1.913   8.093  19.110  0.00  0.00    +0.000 C 
ATOM     23  O   UNL     1       1.808   7.930  17.902  0.00  0.00    +0.000 OA
ATOM     24  N   UNL     1       2.456   7.166  19.960  0.00  0.00    +0.000 N 
ATOM     25  H   UNL     1       1.429   9.213  20.750  0.00  0.00    +0.000 HD
ATOM     26  H   UNL     1       2.271   7.260  20.949  0.00  0.00    +0.000 HD
BRANCH  24  27
ATOM     27  C   UNL     1       2.938   5.873  19.469  0.00  0.00    +0.000 C 
ATOM     28  C   UNL     1       2.778   4.799  20.549  0.00  0.00    +0.000 C 
ATOM     29  C   UNL     1       1.386   4.178  20.642  0.00  0.00    +0.000 C 
ATOM     30  C   UNL     1       1.205   2.976  19.715  0.00  0.00    +0.000 C 
ATOM     31  C   UNL     1       1.172   3.293  18.224  0.00  0.00    +0.000 C 
ATOM     32  C   UNL     1       2.366   4.087  17.694  0.00  0.00    +0.000 C 
ATOM     33  C   UNL     1       2.323   5.558  18.103  0.00  0.00    +0.000 C 
ENDBRANCH  24  27
ENDBRANCH  10  21
TORSDOF 3
ENDMDL
