MODEL 1
REMARK VINA RESULT:      -8.3      0.000      0.000
REMARK  Name = 
REMARK  6 active torsions:
REMARK  status: ('A' for Active; 'I' for Inactive)
REMARK    1  A    between atoms: C_2  and  C_3
REMARK    2  A    between atoms: C_3  and  O_4
REMARK    3  A    between atoms: O_4  and  C_5
REMARK    4  A    between atoms: C_8  and  C_9
REMARK    5  A    between atoms: C_9  and  C_11
REMARK    6  A    between atoms: N_20  and  C_21
REMARK                            x       y       z     vdW  Elec       q    Type
REMARK                         _______ _______ _______ _____ _____    ______ ____
ROOT
ATOM      1  C   UNL     1       6.383   6.528  16.938  0.00  0.00    +0.000 A 
ATOM      2  C   UNL     1       5.086   7.000  17.148  0.00  0.00    +0.000 A 
ATOM      3  C   UNL     1       4.032   6.106  17.327  0.00  0.00    +0.000 A 
ATOM      4  C   UNL     1       4.258   4.728  17.261  0.00  0.00    +0.000 A 
ATOM      5  C   UNL     1       5.542   4.255  16.961  0.00  0.00    +0.000 A 
ATOM      6  C   UNL     1       6.602   5.156  16.806  0.00  0.00    +0.000 A 
ENDROOT
BRANCH   4   7
ATOM      7  C   UNL     1       3.092   3.832  17.472  0.00  0.00    +0.000 C 
ATOM      8  O   UNL     1       2.563   3.303  16.497  0.00  0.00    +0.000 OA
BRANCH   7   9
ATOM      9  C   UNL     1       2.538   3.553  18.817  0.00  0.00    +0.000 A 
ATOM     10  C   UNL     1       1.256   4.037  19.115  0.00  0.00    +0.000 A 
ATOM     11  C   UNL     1       0.686   3.800  20.367  0.00  0.00    +0.000 A 
ATOM     12  C   UNL     1       1.400   3.086  21.326  0.00  0.00    +0.000 A 
ATOM     13  C   UNL     1       2.686   2.636  21.036  0.00  0.00    +0.000 A 
ATOM     14  F   UNL     1       3.371   1.960  21.965  0.00  0.00    +0.000 F 
ATOM     15  C   UNL     1       3.268   2.870  19.794  0.00  0.00    +0.000 A 
ENDBRANCH   7   9
ENDBRANCH   4   7
BRANCH   1  16
ATOM     16  O   UNL     1       7.498   7.328  16.866  0.00  0.00    +0.000 OA
BRANCH  16  17
ATOM     17  C   UNL     1       8.006   7.703  18.143  0.00  0.00    +0.000 C 
BRANCH  17  19
ATOM     18  O   UNL     1       7.851  10.004  17.539  0.00  0.00    +0.000 OA
ATOM     19  C   UNL     1       8.383   9.172  18.274  0.00  0.00    +0.000 C 
ATOM     20  N   UNL     1       9.332   9.434  19.242  0.00  0.00    +0.000 N 
ATOM     21  H   UNL     1       9.799   8.624  19.639  0.00  0.00    +0.000 HD
BRANCH  20  22
ATOM     22  C   UNL     1       9.770  10.715  19.637  0.00  0.00    +0.000 A 
ATOM     23  C   UNL     1      10.641  11.502  18.882  0.00  0.00    +0.000 A 
ATOM     24  C   UNL     1      11.046  12.746  19.359  0.00  0.00    +0.000 A 
ATOM     25  C   UNL     1      10.556  13.174  20.580  0.00  0.00    +0.000 A 
ATOM     26  N   UNL     1       9.686  12.461  21.329  0.00  0.00    +0.000 NA
ATOM     27  C   UNL     1       9.312  11.255  20.835  0.00  0.00    +0.000 A 
ENDBRANCH  20  22
ENDBRANCH  17  19
ENDBRANCH  16  17
ENDBRANCH   1  16
TORSDOF 6
ENDMDL
MODEL 2
REMARK VINA RESULT:      -8.0      0.585      1.354
REMARK  Name = 
REMARK  6 active torsions:
REMARK  status: ('A' for Active; 'I' for Inactive)
REMARK    1  A    between atoms: C_2  and  C_3
REMARK    2  A    between atoms: C_3  and  O_4
REMARK    3  A    between atoms: O_4  and  C_5
REMARK    4  A    between atoms: C_8  and  C_9
REMARK    5  A    between atoms: C_9  and  C_11
REMARK    6  A    between atoms: N_20  and  C_21
REMARK                            x       y       z     vdW  Elec       q    Type
REMARK                         _______ _______ _______ _____ _____    ______ ____
ROOT
ATOM      1  C   UNL     1       6.289   6.727  17.066  0.00  0.00    +0.000 A 
ATOM      2  C   UNL     1       6.503   5.363  16.860  0.00  0.00    +0.000 A 
ATOM      3  C   UNL     1       5.453   4.458  16.994  0.00  0.00    +0.000 A 
ATOM      4  C   UNL     1       4.182   4.903  17.372  0.00  0.00    +0.000 A 
ATOM      5  C   UNL     1       3.988   6.258  17.666  0.00  0.00    +0.000 A 
ATOM      6  C   UNL     1       5.040   7.167  17.507  0.00  0.00    +0.000 A 
ENDROOT
BRANCH   4   7
ATOM      7  C   UNL     1       3.106   3.886  17.485  0.00  0.00    +0.000 C 
ATOM      8  O   UNL     1       2.676   3.354  16.464  0.00  0.00    +0.000 OA
BRANCH   7   9
ATOM      9  C   UNL     1       2.525   3.487  18.789  0.00  0.00    +0.000 A 
ATOM     10  C   UNL     1       1.157   3.715  18.997  0.00  0.00    +0.000 A 
ATOM     11  C   UNL     1       0.558   3.355  20.206  0.00  0.00    +0.000 A 
ATOM     12  C   UNL     1       1.329   2.777  21.212  0.00  0.00    +0.000 A 
ATOM     13  C   UNL     1       2.693   2.584  21.012  0.00  0.00    +0.000 A 
ATOM     14  F   UNL     1       3.430   2.038  21.985  0.00  0.00    +0.000 F 
ATOM     15  C   UNL     1       3.303   2.942  19.814  0.00  0.00    +0.000 A 
ENDBRANCH   7   9
ENDBRANCH   4   7
BRANCH   1  16
ATOM     16  O   UNL     1       7.232   7.702  16.846  0.00  0.00    +0.000 OA
BRANCH  16  17
ATOM     17  C   UNL     1       8.097   7.910  17.958  0.00  0.00    +0.000 C 
BRANCH  17  19
ATOM     18  O   UNL     1       7.907  10.255  17.568  0.00  0.00    +0.000 OA
ATOM     19  C   UNL     1       8.429   9.368  18.244  0.00  0.00    +0.000 C 
ATOM     20  N   UNL     1       9.330   9.557  19.274  0.00  0.00    +0.000 N 
ATOM     21  H   UNL     1       9.800   8.723  19.612  0.00  0.00    +0.000 HD
BRANCH  20  22
ATOM     22  C   UNL     1       9.717  10.804  19.807  0.00  0.00    +0.000 A 
ATOM     23  C   UNL     1       9.183  11.347  20.976  0.00  0.00    +0.000 A 
ATOM     24  C   UNL     1       9.602  12.598  21.418  0.00  0.00    +0.000 A 
ATOM     25  C   UNL     1      10.559  13.271  20.678  0.00  0.00    +0.000 A 
ATOM     26  N   UNL     1      11.127  12.771  19.558  0.00  0.00    +0.000 NA
ATOM     27  C   UNL     1      10.697  11.550  19.157  0.00  0.00    +0.000 A 
ENDBRANCH  20  22
ENDBRANCH  17  19
ENDBRANCH  16  17
ENDBRANCH   1  16
TORSDOF 6
ENDMDL
MODEL 3
REMARK VINA RESULT:      -8.0      5.348      7.803
REMARK  Name = 
REMARK  6 active torsions:
REMARK  status: ('A' for Active; 'I' for Inactive)
REMARK    1  A    between atoms: C_2  and  C_3
REMARK    2  A    between atoms: C_3  and  O_4
REMARK    3  A    between atoms: O_4  and  C_5
REMARK    4  A    between atoms: C_8  and  C_9
REMARK    5  A    between atoms: C_9  and  C_11
REMARK    6  A    between atoms: N_20  and  C_21
REMARK                            x       y       z     vdW  Elec       q    Type
REMARK                         _______ _______ _______ _____ _____    ______ ____
ROOT
ATOM      1  C   UNL     1       3.159   5.824  18.002  0.00  0.00    +0.000 A 
ATOM      2  C   UNL     1       3.431   4.486  17.705  0.00  0.00    +0.000 A 
ATOM      3  C   UNL     1       4.607   4.137  17.045  0.00  0.00    +0.000 A 
ATOM      4  C   UNL     1       5.510   5.126  16.643  0.00  0.00    +0.000 A 
ATOM      5  C   UNL     1       5.196   6.474  16.860  0.00  0.00    +0.000 A 
ATOM      6  C   UNL     1       4.024   6.818  17.544  0.00  0.00    +0.000 A 
ENDROOT
BRANCH   4   7
ATOM      7  C   UNL     1       6.749   4.683  15.954  0.00  0.00    +0.000 C 
ATOM      8  O   UNL     1       7.756   4.459  16.622  0.00  0.00    +0.000 OA
BRANCH   7   9
ATOM      9  C   UNL     1       6.819   4.503  14.485  0.00  0.00    +0.000 A 
ATOM     10  C   UNL     1       7.669   5.349  13.758  0.00  0.00    +0.000 A 
ATOM     11  C   UNL     1       7.774   5.220  12.371  0.00  0.00    +0.000 A 
ATOM     12  C   UNL     1       7.024   4.251  11.709  0.00  0.00    +0.000 A 
ATOM     13  C   UNL     1       6.158   3.435  12.433  0.00  0.00    +0.000 A 
ATOM     14  F   UNL     1       5.433   2.513  11.791  0.00  0.00    +0.000 F 
ATOM     15  C   UNL     1       6.039   3.557  13.814  0.00  0.00    +0.000 A 
ENDBRANCH   7   9
ENDBRANCH   4   7
BRANCH   1  16
ATOM     16  O   UNL     1       2.086   6.250  18.747  0.00  0.00    +0.000 OA
BRANCH  16  17
ATOM     17  C   UNL     1       2.437   7.198  19.750  0.00  0.00    +0.000 C 
BRANCH  17  19
ATOM     18  O   UNL     1       0.894   8.568  20.946  0.00  0.00    +0.000 OA
ATOM     19  C   UNL     1       1.480   8.374  19.879  0.00  0.00    +0.000 C 
ATOM     20  N   UNL     1       1.352   9.135  18.734  0.00  0.00    +0.000 N 
ATOM     21  H   UNL     1       1.763   8.744  17.892  0.00  0.00    +0.000 HD
BRANCH  20  22
ATOM     22  C   UNL     1       0.618  10.335  18.623  0.00  0.00    +0.000 A 
ATOM     23  C   UNL     1      -0.751  10.384  18.358  0.00  0.00    +0.000 A 
ATOM     24  C   UNL     1      -1.393  11.613  18.238  0.00  0.00    +0.000 A 
ATOM     25  C   UNL     1      -0.644  12.766  18.397  0.00  0.00    +0.000 A 
ATOM     26  N   UNL     1       0.676  12.766  18.685  0.00  0.00    +0.000 NA
ATOM     27  C   UNL     1       1.270  11.553  18.798  0.00  0.00    +0.000 A 
ENDBRANCH  20  22
ENDBRANCH  17  19
ENDBRANCH  16  17
ENDBRANCH   1  16
TORSDOF 6
ENDMDL
MODEL 4
REMARK VINA RESULT:      -8.0      6.976      8.216
REMARK  Name = 
REMARK  6 active torsions:
REMARK  status: ('A' for Active; 'I' for Inactive)
REMARK    1  A    between atoms: C_2  and  C_3
REMARK    2  A    between atoms: C_3  and  O_4
REMARK    3  A    between atoms: O_4  and  C_5
REMARK    4  A    between atoms: C_8  and  C_9
REMARK    5  A    between atoms: C_9  and  C_11
REMARK    6  A    between atoms: N_20  and  C_21
REMARK                            x       y       z     vdW  Elec       q    Type
REMARK                         _______ _______ _______ _____ _____    ______ ____
ROOT
ATOM      1  C   UNL     1       1.107   9.880  19.119  0.00  0.00    +0.000 A 
ATOM      2  C   UNL     1       1.067   9.117  20.289  0.00  0.00    +0.000 A 
ATOM      3  C   UNL     1       1.709   7.882  20.345  0.00  0.00    +0.000 A 
ATOM      4  C   UNL     1       2.368   7.378  19.220  0.00  0.00    +0.000 A 
ATOM      5  C   UNL     1       2.332   8.100  18.020  0.00  0.00    +0.000 A 
ATOM      6  C   UNL     1       1.706   9.352  17.975  0.00  0.00    +0.000 A 
ENDROOT
BRANCH   4   7
ATOM      7  C   UNL     1       3.040   6.060  19.353  0.00  0.00    +0.000 C 
ATOM      8  O   UNL     1       4.267   6.009  19.312  0.00  0.00    +0.000 OA
BRANCH   7   9
ATOM      9  C   UNL     1       2.284   4.798  19.531  0.00  0.00    +0.000 A 
ATOM     10  C   UNL     1       1.784   4.163  18.386  0.00  0.00    +0.000 A 
ATOM     11  C   UNL     1       1.067   2.970  18.498  0.00  0.00    +0.000 A 
ATOM     12  C   UNL     1       0.842   2.415  19.756  0.00  0.00    +0.000 A 
ATOM     13  C   UNL     1       1.313   3.068  20.892  0.00  0.00    +0.000 A 
ATOM     14  F   UNL     1       1.086   2.536  22.098  0.00  0.00    +0.000 F 
ATOM     15  C   UNL     1       2.024   4.260  20.795  0.00  0.00    +0.000 A 
ENDBRANCH   7   9
ENDBRANCH   4   7
BRANCH   1  16
ATOM     16  O   UNL     1       0.604  11.153  19.007  0.00  0.00    +0.000 OA
BRANCH  16  17
ATOM     17  C   UNL     1       0.905  11.979  20.127  0.00  0.00    +0.000 C 
BRANCH  17  19
ATOM     18  O   UNL     1      -1.059  13.331  20.101  0.00  0.00    +0.000 OA
ATOM     19  C   UNL     1      -0.304  12.635  20.780  0.00  0.00    +0.000 C 
ATOM     20  N   UNL     1      -0.433  12.378  22.131  0.00  0.00    +0.000 N 
ATOM     21  H   UNL     1       0.364  11.935  22.578  0.00  0.00    +0.000 HD
BRANCH  20  22
ATOM     22  C   UNL     1      -1.517  12.773  22.942  0.00  0.00    +0.000 A 
ATOM     23  C   UNL     1      -1.609  14.021  23.559  0.00  0.00    +0.000 A 
ATOM     24  C   UNL     1      -2.704  14.319  24.366  0.00  0.00    +0.000 A 
ATOM     25  C   UNL     1      -3.686  13.358  24.525  0.00  0.00    +0.000 A 
ATOM     26  N   UNL     1      -3.654  12.149  23.923  0.00  0.00    +0.000 NA
ATOM     27  C   UNL     1      -2.577  11.891  23.142  0.00  0.00    +0.000 A 
ENDBRANCH  20  22
ENDBRANCH  17  19
ENDBRANCH  16  17
ENDBRANCH   1  16
TORSDOF 6
ENDMDL
MODEL 5
REMARK VINA RESULT:      -8.0      5.903      8.304
REMARK  Name = 
REMARK  6 active torsions:
REMARK  status: ('A' for Active; 'I' for Inactive)
REMARK    1  A    between atoms: C_2  and  C_3
REMARK    2  A    between atoms: C_3  and  O_4
REMARK    3  A    between atoms: O_4  and  C_5
REMARK    4  A    between atoms: C_8  and  C_9
REMARK    5  A    between atoms: C_9  and  C_11
REMARK    6  A    between atoms: N_20  and  C_21
REMARK                            x       y       z     vdW  Elec       q    Type
REMARK                         _______ _______ _______ _____ _____    ______ ____
ROOT
ATOM      1  C   UNL     1       2.198   7.451  19.669  0.00  0.00    +0.000 A 
ATOM      2  C   UNL     1       1.438   8.106  20.642  0.00  0.00    +0.000 A 
ATOM      3  C   UNL     1       0.714   9.250  20.315  0.00  0.00    +0.000 A 
ATOM      4  C   UNL     1       0.770   9.775  19.020  0.00  0.00    +0.000 A 
ATOM      5  C   UNL     1       1.602   9.171  18.069  0.00  0.00    +0.000 A 
ATOM      6  C   UNL     1       2.309   8.008  18.395  0.00  0.00    +0.000 A 
ENDROOT
BRANCH   4   7
ATOM      7  C   UNL     1      -0.036  10.990  18.738  0.00  0.00    +0.000 C 
ATOM      8  O   UNL     1       0.491  12.095  18.855  0.00  0.00    +0.000 OA
BRANCH   7   9
ATOM      9  C   UNL     1      -1.456  10.923  18.322  0.00  0.00    +0.000 A 
ATOM     10  C   UNL     1      -1.808   9.995  17.331  0.00  0.00    +0.000 A 
ATOM     11  C   UNL     1      -3.133   9.889  16.904  0.00  0.00    +0.000 A 
ATOM     12  C   UNL     1      -4.106  10.715  17.461  0.00  0.00    +0.000 A 
ATOM     13  C   UNL     1      -3.745  11.657  18.421  0.00  0.00    +0.000 A 
ATOM     14  F   UNL     1      -4.681  12.455  18.945  0.00  0.00    +0.000 F 
ATOM     15  C   UNL     1      -2.427  11.777  18.851  0.00  0.00    +0.000 A 
ENDBRANCH   7   9
ENDBRANCH   4   7
BRANCH   1  16
ATOM     16  O   UNL     1       2.850   6.258  19.869  0.00  0.00    +0.000 OA
BRANCH  16  17
ATOM     17  C   UNL     1       2.312   5.187  19.100  0.00  0.00    +0.000 C 
BRANCH  17  19
ATOM     18  O   UNL     1       2.899   3.668  17.358  0.00  0.00    +0.000 OA
ATOM     19  C   UNL     1       3.235   4.655  18.012  0.00  0.00    +0.000 C 
ATOM     20  N   UNL     1       4.413   5.362  17.867  0.00  0.00    +0.000 N 
ATOM     21  H   UNL     1       4.618   6.038  18.596  0.00  0.00    +0.000 HD
BRANCH  20  22
ATOM     22  C   UNL     1       5.382   5.145  16.866  0.00  0.00    +0.000 A 
ATOM     23  C   UNL     1       5.135   5.301  15.502  0.00  0.00    +0.000 A 
ATOM     24  C   UNL     1       6.143   5.040  14.578  0.00  0.00    +0.000 A 
ATOM     25  C   UNL     1       7.380   4.636  15.049  0.00  0.00    +0.000 A 
ATOM     26  N   UNL     1       7.673   4.501  16.361  0.00  0.00    +0.000 NA
ATOM     27  C   UNL     1       6.671   4.766  17.234  0.00  0.00    +0.000 A 
ENDBRANCH  20  22
ENDBRANCH  17  19
ENDBRANCH  16  17
ENDBRANCH   1  16
TORSDOF 6
ENDMDL
MODEL 6
REMARK VINA RESULT:      -8.0      5.263      7.687
REMARK  Name = 
REMARK  6 active torsions:
REMARK  status: ('A' for Active; 'I' for Inactive)
REMARK    1  A    between atoms: C_2  and  C_3
REMARK    2  A    between atoms: C_3  and  O_4
REMARK    3  A    between atoms: O_4  and  C_5
REMARK    4  A    between atoms: C_8  and  C_9
REMARK    5  A    between atoms: C_9  and  C_11
REMARK    6  A    between atoms: N_20  and  C_21
REMARK                            x       y       z     vdW  Elec       q    Type
REMARK                         _______ _______ _______ _____ _____    ______ ____
ROOT
ATOM      1  C   UNL     1       3.841   3.293  18.906  0.00  0.00    +0.000 A 
ATOM      2  C   UNL     1       5.129   3.780  19.139  0.00  0.00    +0.000 A 
ATOM      3  C   UNL     1       5.802   4.489  18.147  0.00  0.00    +0.000 A 
ATOM      4  C   UNL     1       5.209   4.691  16.897  0.00  0.00    +0.000 A 
ATOM      5  C   UNL     1       3.954   4.126  16.632  0.00  0.00    +0.000 A 
ATOM      6  C   UNL     1       3.271   3.434  17.639  0.00  0.00    +0.000 A 
ENDROOT
BRANCH   4   7
ATOM      7  C   UNL     1       5.978   5.466  15.890  0.00  0.00    +0.000 C 
ATOM      8  O   UNL     1       6.345   6.606  16.167  0.00  0.00    +0.000 OA
BRANCH   7   9
ATOM      9  C   UNL     1       6.320   4.916  14.557  0.00  0.00    +0.000 A 
ATOM     10  C   UNL     1       7.472   5.399  13.921  0.00  0.00    +0.000 A 
ATOM     11  C   UNL     1       7.841   4.913  12.665  0.00  0.00    +0.000 A 
ATOM     12  C   UNL     1       7.053   3.950  12.040  0.00  0.00    +0.000 A 
ATOM     13  C   UNL     1       5.892   3.498  12.662  0.00  0.00    +0.000 A 
ATOM     14  F   UNL     1       5.134   2.580  12.052  0.00  0.00    +0.000 F 
ATOM     15  C   UNL     1       5.510   3.978  13.910  0.00  0.00    +0.000 A 
ENDBRANCH   7   9
ENDBRANCH   4   7
BRANCH   1  16
ATOM     16  O   UNL     1       3.058   2.685  19.857  0.00  0.00    +0.000 OA
BRANCH  16  17
ATOM     17  C   UNL     1       2.710   3.547  20.936  0.00  0.00    +0.000 C 
BRANCH  17  19
ATOM     18  O   UNL     1       0.649   4.585  20.334  0.00  0.00    +0.000 OA
ATOM     19  C   UNL     1       1.852   4.743  20.546  0.00  0.00    +0.000 C 
ATOM     20  N   UNL     1       2.541   5.936  20.457  0.00  0.00    +0.000 N 
ATOM     21  H   UNL     1       3.554   5.868  20.488  0.00  0.00    +0.000 HD
BRANCH  20  22
ATOM     22  C   UNL     1       1.965   7.202  20.222  0.00  0.00    +0.000 A 
ATOM     23  C   UNL     1       1.207   7.895  21.166  0.00  0.00    +0.000 A 
ATOM     24  C   UNL     1       0.650   9.129  20.842  0.00  0.00    +0.000 A 
ATOM     25  C   UNL     1       0.879   9.643  19.577  0.00  0.00    +0.000 A 
ATOM     26  N   UNL     1       1.632   9.022  18.643  0.00  0.00    +0.000 NA
ATOM     27  C   UNL     1       2.160   7.824  18.991  0.00  0.00    +0.000 A 
ENDBRANCH  20  22
ENDBRANCH  17  19
ENDBRANCH  16  17
ENDBRANCH   1  16
TORSDOF 6
ENDMDL
MODEL 7
REMARK VINA RESULT:      -8.0      7.056      8.290
REMARK  Name = 
REMARK  6 active torsions:
REMARK  status: ('A' for Active; 'I' for Inactive)
REMARK    1  A    between atoms: C_2  and  C_3
REMARK    2  A    between atoms: C_3  and  O_4
REMARK    3  A    between atoms: O_4  and  C_5
REMARK    4  A    between atoms: C_8  and  C_9
REMARK    5  A    between atoms: C_9  and  C_11
REMARK    6  A    between atoms: N_20  and  C_21
REMARK                            x       y       z     vdW  Elec       q    Type
REMARK                         _______ _______ _______ _____ _____    ______ ____
ROOT
ATOM      1  C   UNL     1       1.221   9.244  19.687  0.00  0.00    +0.000 A 
ATOM      2  C   UNL     1       1.635   9.319  18.356  0.00  0.00    +0.000 A 
ATOM      3  C   UNL     1       2.305   8.249  17.767  0.00  0.00    +0.000 A 
ATOM      4  C   UNL     1       2.600   7.104  18.513  0.00  0.00    +0.000 A 
ATOM      5  C   UNL     1       2.265   7.064  19.873  0.00  0.00    +0.000 A 
ATOM      6  C   UNL     1       1.571   8.132  20.454  0.00  0.00    +0.000 A 
ENDROOT
BRANCH   4   7
ATOM      7  C   UNL     1       3.306   5.997  17.819  0.00  0.00    +0.000 C 
ATOM      8  O   UNL     1       4.177   6.268  16.996  0.00  0.00    +0.000 OA
BRANCH   7   9
ATOM      9  C   UNL     1       2.998   4.571  18.081  0.00  0.00    +0.000 A 
ATOM     10  C   UNL     1       4.071   3.679  18.214  0.00  0.00    +0.000 A 
ATOM     11  C   UNL     1       3.836   2.326  18.464  0.00  0.00    +0.000 A 
ATOM     12  C   UNL     1       2.528   1.861  18.572  0.00  0.00    +0.000 A 
ATOM     13  C   UNL     1       1.466   2.746  18.407  0.00  0.00    +0.000 A 
ATOM     14  F   UNL     1       0.211   2.292  18.502  0.00  0.00    +0.000 F 
ATOM     15  C   UNL     1       1.685   4.096  18.152  0.00  0.00    +0.000 A 
ENDBRANCH   7   9
ENDBRANCH   4   7
BRANCH   1  16
ATOM     16  O   UNL     1       0.458  10.198  20.317  0.00  0.00    +0.000 OA
BRANCH  16  17
ATOM     17  C   UNL     1      -0.413   9.660  21.307  0.00  0.00    +0.000 C 
BRANCH  17  19
ATOM     18  O   UNL     1      -0.200  10.394  23.566  0.00  0.00    +0.000 OA
ATOM     19  C   UNL     1      -0.716  10.598  22.467  0.00  0.00    +0.000 C 
ATOM     20  N   UNL     1      -1.586  11.625  22.158  0.00  0.00    +0.000 N 
ATOM     21  H   UNL     1      -2.059  11.553  21.262  0.00  0.00    +0.000 HD
BRANCH  20  22
ATOM     22  C   UNL     1      -1.941  12.686  23.017  0.00  0.00    +0.000 A 
ATOM     23  C   UNL     1      -1.109  13.772  23.293  0.00  0.00    +0.000 A 
ATOM     24  C   UNL     1      -1.528  14.764  24.175  0.00  0.00    +0.000 A 
ATOM     25  C   UNL     1      -2.781  14.646  24.752  0.00  0.00    +0.000 A 
ATOM     26  N   UNL     1      -3.632  13.629  24.491  0.00  0.00    +0.000 NA
ATOM     27  C   UNL     1      -3.194  12.682  23.626  0.00  0.00    +0.000 A 
ENDBRANCH  20  22
ENDBRANCH  17  19
ENDBRANCH  16  17
ENDBRANCH   1  16
TORSDOF 6
ENDMDL
MODEL 8
REMARK VINA RESULT:      -7.9      1.946      2.435
REMARK  Name = 
REMARK  6 active torsions:
REMARK  status: ('A' for Active; 'I' for Inactive)
REMARK    1  A    between atoms: C_2  and  C_3
REMARK    2  A    between atoms: C_3  and  O_4
REMARK    3  A    between atoms: O_4  and  C_5
REMARK    4  A    between atoms: C_8  and  C_9
REMARK    5  A    between atoms: C_9  and  C_11
REMARK    6  A    between atoms: N_20  and  C_21
REMARK                            x       y       z     vdW  Elec       q    Type
REMARK                         _______ _______ _______ _____ _____    ______ ____
ROOT
ATOM      1  C   UNL     1       7.492   6.961  18.065  0.00  0.00    +0.000 A 
ATOM      2  C   UNL     1       6.400   7.253  17.244  0.00  0.00    +0.000 A 
ATOM      3  C   UNL     1       5.459   6.269  16.950  0.00  0.00    +0.000 A 
ATOM      4  C   UNL     1       5.617   4.971  17.444  0.00  0.00    +0.000 A 
ATOM      5  C   UNL     1       6.758   4.654  18.192  0.00  0.00    +0.000 A 
ATOM      6  C   UNL     1       7.689   5.651  18.505  0.00  0.00    +0.000 A 
ENDROOT
BRANCH   4   7
ATOM      7  C   UNL     1       4.570   3.975  17.100  0.00  0.00    +0.000 C 
ATOM      8  O   UNL     1       4.488   3.571  15.942  0.00  0.00    +0.000 OA
BRANCH   7   9
ATOM      9  C   UNL     1       3.616   3.448  18.103  0.00  0.00    +0.000 A 
ATOM     10  C   UNL     1       4.071   3.277  19.418  0.00  0.00    +0.000 A 
ATOM     11  C   UNL     1       3.211   2.787  20.403  0.00  0.00    +0.000 A 
ATOM     12  C   UNL     1       1.899   2.457  20.073  0.00  0.00    +0.000 A 
ATOM     13  C   UNL     1       1.463   2.599  18.758  0.00  0.00    +0.000 A 
ATOM     14  F   UNL     1       0.204   2.271  18.444  0.00  0.00    +0.000 F 
ATOM     15  C   UNL     1       2.310   3.081  17.765  0.00  0.00    +0.000 A 
ENDBRANCH   7   9
ENDBRANCH   4   7
BRANCH   1  16
ATOM     16  O   UNL     1       8.404   7.890  18.501  0.00  0.00    +0.000 OA
BRANCH  16  17
ATOM     17  C   UNL     1       8.199   9.186  17.945  0.00  0.00    +0.000 C 
BRANCH  17  19
ATOM     18  O   UNL     1       9.462  10.127  19.736  0.00  0.00    +0.000 OA
ATOM     19  C   UNL     1       8.999  10.299  18.608  0.00  0.00    +0.000 C 
ATOM     20  N   UNL     1       9.125  11.443  17.845  0.00  0.00    +0.000 N 
ATOM     21  H   UNL     1       8.540  11.492  17.017  0.00  0.00    +0.000 HD
BRANCH  20  22
ATOM     22  C   UNL     1       9.904  12.571  18.179  0.00  0.00    +0.000 A 
ATOM     23  C   UNL     1       9.415  13.666  18.892  0.00  0.00    +0.000 A 
ATOM     24  C   UNL     1      10.246  14.752  19.156  0.00  0.00    +0.000 A 
ATOM     25  C   UNL     1      11.554  14.705  18.705  0.00  0.00    +0.000 A 
ATOM     26  N   UNL     1      12.078  13.652  18.040  0.00  0.00    +0.000 NA
ATOM     27  C   UNL     1      11.243  12.612  17.801  0.00  0.00    +0.000 A 
ENDBRANCH  20  22
ENDBRANCH  17  19
ENDBRANCH  16  17
ENDBRANCH   1  16
TORSDOF 6
ENDMDL
MODEL 9
REMARK VINA RESULT:      -7.9      1.869      2.156
REMARK  Name = 
REMARK  6 active torsions:
REMARK  status: ('A' for Active; 'I' for Inactive)
REMARK    1  A    between atoms: C_2  and  C_3
REMARK    2  A    between atoms: C_3  and  O_4
REMARK    3  A    between atoms: O_4  and  C_5
REMARK    4  A    between atoms: C_8  and  C_9
REMARK    5  A    between atoms: C_9  and  C_11
REMARK    6  A    between atoms: N_20  and  C_21
REMARK                            x       y       z     vdW  Elec       q    Type
REMARK                         _______ _______ _______ _____ _____    ______ ____
ROOT
ATOM      1  C   UNL     1       6.986   7.241  17.557  0.00  0.00    +0.000 A 
ATOM      2  C   UNL     1       5.701   6.919  17.116  0.00  0.00    +0.000 A 
ATOM      3  C   UNL     1       5.030   5.819  17.646  0.00  0.00    +0.000 A 
ATOM      4  C   UNL     1       5.652   5.007  18.600  0.00  0.00    +0.000 A 
ATOM      5  C   UNL     1       6.973   5.276  18.976  0.00  0.00    +0.000 A 
ATOM      6  C   UNL     1       7.635   6.396  18.458  0.00  0.00    +0.000 A 
ENDROOT
BRANCH   4   7
ATOM      7  C   UNL     1       4.875   3.857  19.131  0.00  0.00    +0.000 C 
ATOM      8  O   UNL     1       5.448   2.787  19.321  0.00  0.00    +0.000 OA
BRANCH   7   9
ATOM      9  C   UNL     1       3.429   3.952  19.440  0.00  0.00    +0.000 A 
ATOM     10  C   UNL     1       3.004   4.981  20.292  0.00  0.00    +0.000 A 
ATOM     11  C   UNL     1       1.651   5.116  20.613  0.00  0.00    +0.000 A 
ATOM     12  C   UNL     1       0.724   4.218  20.091  0.00  0.00    +0.000 A 
ATOM     13  C   UNL     1       1.157   3.178  19.272  0.00  0.00    +0.000 A 
ATOM     14  F   UNL     1       0.264   2.312  18.781  0.00  0.00    +0.000 F 
ATOM     15  C   UNL     1       2.502   3.028  18.948  0.00  0.00    +0.000 A 
ENDBRANCH   7   9
ENDBRANCH   4   7
BRANCH   1  16
ATOM     16  O   UNL     1       7.677   8.366  17.177  0.00  0.00    +0.000 OA
BRANCH  16  17
ATOM     17  C   UNL     1       8.442   8.941  18.233  0.00  0.00    +0.000 C 
BRANCH  17  19
ATOM     18  O   UNL     1       7.988  11.168  17.509  0.00  0.00    +0.000 OA
ATOM     19  C   UNL     1       8.802  10.407  18.034  0.00  0.00    +0.000 C 
ATOM     20  N   UNL     1      10.064  10.750  18.477  0.00  0.00    +0.000 N 
ATOM     21  H   UNL     1      10.675   9.976  18.723  0.00  0.00    +0.000 HD
BRANCH  20  22
ATOM     22  C   UNL     1      10.596  12.056  18.510  0.00  0.00    +0.000 A 
ATOM     23  C   UNL     1      11.288  12.637  17.447  0.00  0.00    +0.000 A 
ATOM     24  C   UNL     1      11.805  13.923  17.574  0.00  0.00    +0.000 A 
ATOM     25  C   UNL     1      11.604  14.600  18.764  0.00  0.00    +0.000 A 
ATOM     26  N   UNL     1      10.913  14.089  19.807  0.00  0.00    +0.000 NA
ATOM     27  C   UNL     1      10.422  12.836  19.650  0.00  0.00    +0.000 A 
ENDBRANCH  20  22
ENDBRANCH  17  19
ENDBRANCH  16  17
ENDBRANCH   1  16
TORSDOF 6
ENDMDL
