MODEL 1
REMARK VINA RESULT:     -10.1      0.000      0.000
REMARK  Name = 
REMARK  7 active torsions:
REMARK  status: ('A' for Active; 'I' for Inactive)
REMARK    1  A    between atoms: C_1  and  C_2
REMARK    2  A    between atoms: N_4  and  C_5
REMARK    3  A    between atoms: C_9  and  C_10
REMARK    4  A    between atoms: N_12  and  C_13
REMARK    5  A    between atoms: C_16  and  O_17
REMARK    6  A    between atoms: O_17  and  C_18
REMARK    7  A    between atoms: C_18  and  C_19
REMARK                            x       y       z     vdW  Elec       q    Type
REMARK                         _______ _______ _______ _____ _____    ______ ____
ROOT
ATOM      1  C   UNL     1       4.013   5.446  18.540  0.00  0.00    +0.000 A 
ATOM      2  C   UNL     1       3.500   6.731  18.586  0.00  0.00    +0.000 A 
ATOM      3  N   UNL     1       2.413   6.760  19.438  0.00  0.00    +0.000 N 
ATOM      4  C   UNL     1       2.163   5.458  19.857  0.00  0.00    +0.000 A 
ATOM      5  N   UNL     1       1.128   5.046  20.620  0.00  0.00    +0.000 NA
ATOM      6  C   UNL     1       1.153   3.736  20.880  0.00  0.00    +0.000 A 
ATOM      7  N   UNL     1       2.060   2.839  20.463  0.00  0.00    +0.000 NA
ATOM      8  C   UNL     1       3.070   3.284  19.684  0.00  0.00    +0.000 A 
ATOM      9  C   UNL     1       3.147   4.632  19.327  0.00  0.00    +0.000 A 
ENDROOT
BRANCH   3  10
ATOM     10  C   UNL     1       1.713   7.935  19.833  0.00  0.00    +0.000 A 
ATOM     11  C   UNL     1       1.518   8.964  18.909  0.00  0.00    +0.000 A 
ATOM     12  C   UNL     1       0.837  10.120  19.276  0.00  0.00    +0.000 A 
ATOM     13  C   UNL     1       0.299  10.257  20.559  0.00  0.00    +0.000 A 
ATOM     14  C   UNL     1       0.521   9.239  21.497  0.00  0.00    +0.000 A 
ATOM     15 CL   UNL     1      -0.041   9.383  23.126  0.00  0.00    +0.000 Cl
ATOM     16  C   UNL     1       1.203   8.069  21.131  0.00  0.00    +0.000 A 
BRANCH  13  17
ATOM     17  O   UNL     1      -0.456  11.346  20.930  0.00  0.00    +0.000 OA
BRANCH  17  18
ATOM     18  C   UNL     1      -0.728  12.253  19.856  0.00  0.00    +0.000 C 
BRANCH  18  19
ATOM     19  C   UNL     1      -2.116  12.123  19.286  0.00  0.00    +0.000 A 
ATOM     20  C   UNL     1      -3.269  12.476  19.997  0.00  0.00    +0.000 A 
ATOM     21  C   UNL     1      -4.530  12.281  19.428  0.00  0.00    +0.000 A 
ATOM     22  C   UNL     1      -4.647  11.741  18.148  0.00  0.00    +0.000 A 
ATOM     23  C   UNL     1      -3.502  11.411  17.435  0.00  0.00    +0.000 A 
ATOM     24  F   UNL     1      -3.607  10.891  16.206  0.00  0.00    +0.000 F 
ATOM     25  C   UNL     1      -2.244  11.600  17.989  0.00  0.00    +0.000 A 
ENDBRANCH  18  19
ENDBRANCH  17  18
ENDBRANCH  13  17
ENDBRANCH   3  10
BRANCH   1  30
ATOM     26  C   UNL     1       6.383   4.204  15.872  0.00  0.00    +0.000 A 
ATOM     27  C   UNL     1       7.605   4.349  16.533  0.00  0.00    +0.000 A 
ATOM     28  C   UNL     1       7.653   4.865  17.826  0.00  0.00    +0.000 A 
ATOM     29  C   UNL     1       6.478   5.227  18.477  0.00  0.00    +0.000 A 
ATOM     30  C   UNL     1       5.241   5.109  17.829  0.00  0.00    +0.000 A 
ATOM     31  C   UNL     1       5.207   4.620  16.513  0.00  0.00    +0.000 A 
BRANCH  26  35
ATOM     32  C   UNL     1       6.399   3.443  12.178  0.00  0.00    +0.000 C 
ATOM     33  C   UNL     1       6.758   4.232  13.409  0.00  0.00    +0.000 C 
ATOM     34  O   UNL     1       7.417   5.264  13.316  0.00  0.00    +0.000 OA
ATOM     35  N   UNL     1       6.275   3.658  14.574  0.00  0.00    +0.000 N 
ATOM     36  H   UNL     1       5.907   2.716  14.504  0.00  0.00    +0.000 HD
ENDBRANCH  26  35
ENDBRANCH   1  30
TORSDOF 6
ENDMDL
MODEL 2
REMARK VINA RESULT:     -10.0      2.513      3.000
REMARK  Name = 
REMARK  7 active torsions:
REMARK  status: ('A' for Active; 'I' for Inactive)
REMARK    1  A    between atoms: C_1  and  C_2
REMARK    2  A    between atoms: N_4  and  C_5
REMARK    3  A    between atoms: C_9  and  C_10
REMARK    4  A    between atoms: N_12  and  C_13
REMARK    5  A    between atoms: C_16  and  O_17
REMARK    6  A    between atoms: O_17  and  C_18
REMARK    7  A    between atoms: C_18  and  C_19
REMARK                            x       y       z     vdW  Elec       q    Type
REMARK                         _______ _______ _______ _____ _____    ______ ____
ROOT
ATOM      1  C   UNL     1       3.981   5.381  18.625  0.00  0.00    +0.000 A 
ATOM      2  C   UNL     1       3.483   6.665  18.764  0.00  0.00    +0.000 A 
ATOM      3  N   UNL     1       2.384   6.642  19.601  0.00  0.00    +0.000 N 
ATOM      4  C   UNL     1       2.113   5.314  19.915  0.00  0.00    +0.000 A 
ATOM      5  N   UNL     1       1.062   4.858  20.630  0.00  0.00    +0.000 NA
ATOM      6  C   UNL     1       1.067   3.532  20.787  0.00  0.00    +0.000 A 
ATOM      7  N   UNL     1       1.970   2.659  20.315  0.00  0.00    +0.000 NA
ATOM      8  C   UNL     1       2.997   3.149  19.586  0.00  0.00    +0.000 A 
ATOM      9  C   UNL     1       3.094   4.520  19.335  0.00  0.00    +0.000 A 
ENDROOT
BRANCH   3  10
ATOM     10  C   UNL     1       1.692   7.792  20.076  0.00  0.00    +0.000 A 
ATOM     11  C   UNL     1       1.328   7.871  21.422  0.00  0.00    +0.000 A 
ATOM     12  C   UNL     1       0.651   8.985  21.904  0.00  0.00    +0.000 A 
ATOM     13  C   UNL     1       0.360  10.065  21.065  0.00  0.00    +0.000 A 
ATOM     14  C   UNL     1       0.698   9.975  19.707  0.00  0.00    +0.000 A 
ATOM     15 CL   UNL     1       0.289  11.235  18.596  0.00  0.00    +0.000 Cl
ATOM     16  C   UNL     1       1.384   8.854  19.215  0.00  0.00    +0.000 A 
BRANCH  13  17
ATOM     17  O   UNL     1      -0.228  11.221  21.526  0.00  0.00    +0.000 OA
BRANCH  17  18
ATOM     18  C   UNL     1      -0.875  11.073  22.794  0.00  0.00    +0.000 C 
BRANCH  18  19
ATOM     19  C   UNL     1      -1.694  12.269  23.202  0.00  0.00    +0.000 A 
ATOM     20  C   UNL     1      -1.171  13.565  23.272  0.00  0.00    +0.000 A 
ATOM     21  C   UNL     1      -1.973  14.623  23.709  0.00  0.00    +0.000 A 
ATOM     22  C   UNL     1      -3.301  14.394  24.069  0.00  0.00    +0.000 A 
ATOM     23  C   UNL     1      -3.825  13.112  23.979  0.00  0.00    +0.000 A 
ATOM     24  F   UNL     1      -5.099  12.885  24.324  0.00  0.00    +0.000 F 
ATOM     25  C   UNL     1      -3.039  12.054  23.546  0.00  0.00    +0.000 A 
ENDBRANCH  18  19
ENDBRANCH  17  18
ENDBRANCH  13  17
ENDBRANCH   3  10
BRANCH   1  30
ATOM     26  C   UNL     1       6.374   4.218  15.943  0.00  0.00    +0.000 A 
ATOM     27  C   UNL     1       7.595   4.402  16.598  0.00  0.00    +0.000 A 
ATOM     28  C   UNL     1       7.634   4.918  17.890  0.00  0.00    +0.000 A 
ATOM     29  C   UNL     1       6.452   5.242  18.548  0.00  0.00    +0.000 A 
ATOM     30  C   UNL     1       5.215   5.085  17.907  0.00  0.00    +0.000 A 
ATOM     31  C   UNL     1       5.190   4.595  16.592  0.00  0.00    +0.000 A 
BRANCH  26  35
ATOM     32  C   UNL     1       6.409   3.454  12.250  0.00  0.00    +0.000 C 
ATOM     33  C   UNL     1       6.754   4.249  13.481  0.00  0.00    +0.000 C 
ATOM     34  O   UNL     1       7.398   5.289  13.388  0.00  0.00    +0.000 OA
ATOM     35  N   UNL     1       6.277   3.669  14.645  0.00  0.00    +0.000 N 
ATOM     36  H   UNL     1       5.922   2.722  14.576  0.00  0.00    +0.000 HD
ENDBRANCH  26  35
ENDBRANCH   1  30
TORSDOF 6
ENDMDL
MODEL 3
REMARK VINA RESULT:      -9.9      1.758      2.145
REMARK  Name = 
REMARK  7 active torsions:
REMARK  status: ('A' for Active; 'I' for Inactive)
REMARK    1  A    between atoms: C_1  and  C_2
REMARK    2  A    between atoms: N_4  and  C_5
REMARK    3  A    between atoms: C_9  and  C_10
REMARK    4  A    between atoms: N_12  and  C_13
REMARK    5  A    between atoms: C_16  and  O_17
REMARK    6  A    between atoms: O_17  and  C_18
REMARK    7  A    between atoms: C_18  and  C_19
REMARK                            x       y       z     vdW  Elec       q    Type
REMARK                         _______ _______ _______ _____ _____    ______ ____
ROOT
ATOM      1  C   UNL     1       3.959   5.526  18.525  0.00  0.00    +0.000 A 
ATOM      2  C   UNL     1       3.508   6.829  18.653  0.00  0.00    +0.000 A 
ATOM      3  N   UNL     1       2.403   6.851  19.481  0.00  0.00    +0.000 N 
ATOM      4  C   UNL     1       2.079   5.537  19.799  0.00  0.00    +0.000 A 
ATOM      5  N   UNL     1       1.007   5.124  20.508  0.00  0.00    +0.000 NA
ATOM      6  C   UNL     1       0.961   3.799  20.672  0.00  0.00    +0.000 A 
ATOM      7  N   UNL     1       1.835   2.891  20.212  0.00  0.00    +0.000 NA
ATOM      8  C   UNL     1       2.885   3.339  19.489  0.00  0.00    +0.000 A 
ATOM      9  C   UNL     1       3.035   4.703  19.232  0.00  0.00    +0.000 A 
ENDROOT
BRANCH   3  10
ATOM     10  C   UNL     1       1.750   8.029  19.945  0.00  0.00    +0.000 A 
ATOM     11  C   UNL     1       1.527   9.087  19.061  0.00  0.00    +0.000 A 
ATOM     12  C   UNL     1       0.892  10.245  19.495  0.00  0.00    +0.000 A 
ATOM     13  C   UNL     1       0.429  10.358  20.809  0.00  0.00    +0.000 A 
ATOM     14  C   UNL     1       0.679   9.310  21.706  0.00  0.00    +0.000 A 
ATOM     15 CL   UNL     1       0.211   9.421  23.367  0.00  0.00    +0.000 Cl
ATOM     16  C   UNL     1       1.316   8.137  21.273  0.00  0.00    +0.000 A 
BRANCH  13  17
ATOM     17  O   UNL     1      -0.282  11.451  21.249  0.00  0.00    +0.000 OA
BRANCH  17  18
ATOM     18  C   UNL     1      -1.359  11.827  20.383  0.00  0.00    +0.000 C 
BRANCH  18  19
ATOM     19  C   UNL     1      -2.586  12.306  21.111  0.00  0.00    +0.000 A 
ATOM     20  C   UNL     1      -3.674  12.902  20.463  0.00  0.00    +0.000 A 
ATOM     21  C   UNL     1      -4.761  13.373  21.204  0.00  0.00    +0.000 A 
ATOM     22  C   UNL     1      -4.771  13.244  22.593  0.00  0.00    +0.000 A 
ATOM     23  C   UNL     1      -3.702  12.633  23.233  0.00  0.00    +0.000 A 
ATOM     24  F   UNL     1      -3.705  12.507  24.566  0.00  0.00    +0.000 F 
ATOM     25  C   UNL     1      -2.617  12.161  22.508  0.00  0.00    +0.000 A 
ENDBRANCH  18  19
ENDBRANCH  17  18
ENDBRANCH  13  17
ENDBRANCH   3  10
BRANCH   1  30
ATOM     26  C   UNL     1       6.328   4.252  15.872  0.00  0.00    +0.000 A 
ATOM     27  C   UNL     1       7.551   4.403  16.533  0.00  0.00    +0.000 A 
ATOM     28  C   UNL     1       7.599   4.933  17.819  0.00  0.00    +0.000 A 
ATOM     29  C   UNL     1       6.424   5.304  18.466  0.00  0.00    +0.000 A 
ATOM     30  C   UNL     1       5.187   5.181  17.819  0.00  0.00    +0.000 A 
ATOM     31  C   UNL     1       5.153   4.677  16.508  0.00  0.00    +0.000 A 
BRANCH  26  35
ATOM     32  C   UNL     1       6.369   3.441  12.189  0.00  0.00    +0.000 C 
ATOM     33  C   UNL     1       6.736   4.235  13.414  0.00  0.00    +0.000 C 
ATOM     34  O   UNL     1       7.427   5.244  13.316  0.00  0.00    +0.000 OA
ATOM     35  N   UNL     1       6.221   3.692  14.580  0.00  0.00    +0.000 N 
ATOM     36  H   UNL     1       5.825   2.761  14.518  0.00  0.00    +0.000 HD
ENDBRANCH  26  35
ENDBRANCH   1  30
TORSDOF 6
ENDMDL
MODEL 4
REMARK VINA RESULT:      -9.6      2.384      2.853
REMARK  Name = 
REMARK  7 active torsions:
REMARK  status: ('A' for Active; 'I' for Inactive)
REMARK    1  A    between atoms: C_1  and  C_2
REMARK    2  A    between atoms: N_4  and  C_5
REMARK    3  A    between atoms: C_9  and  C_10
REMARK    4  A    between atoms: N_12  and  C_13
REMARK    5  A    between atoms: C_16  and  O_17
REMARK    6  A    between atoms: O_17  and  C_18
REMARK    7  A    between atoms: C_18  and  C_19
REMARK                            x       y       z     vdW  Elec       q    Type
REMARK                         _______ _______ _______ _____ _____    ______ ____
ROOT
ATOM      1  C   UNL     1       3.999   5.432  18.602  0.00  0.00    +0.000 A 
ATOM      2  C   UNL     1       3.466   6.708  18.645  0.00  0.00    +0.000 A 
ATOM      3  N   UNL     1       2.377   6.721  19.496  0.00  0.00    +0.000 N 
ATOM      4  C   UNL     1       2.147   5.416  19.917  0.00  0.00    +0.000 A 
ATOM      5  N   UNL     1       1.118   4.989  20.679  0.00  0.00    +0.000 NA
ATOM      6  C   UNL     1       1.163   3.679  20.941  0.00  0.00    +0.000 A 
ATOM      7  N   UNL     1       2.086   2.797  20.527  0.00  0.00    +0.000 NA
ATOM      8  C   UNL     1       3.090   3.257  19.749  0.00  0.00    +0.000 A 
ATOM      9  C   UNL     1       3.145   4.605  19.389  0.00  0.00    +0.000 A 
ENDROOT
BRANCH   3  10
ATOM     10  C   UNL     1       1.657   7.886  19.888  0.00  0.00    +0.000 A 
ATOM     11  C   UNL     1       1.406   8.889  18.950  0.00  0.00    +0.000 A 
ATOM     12  C   UNL     1       0.706  10.034  19.314  0.00  0.00    +0.000 A 
ATOM     13  C   UNL     1       0.204  10.184  20.609  0.00  0.00    +0.000 A 
ATOM     14  C   UNL     1       0.481   9.192  21.561  0.00  0.00    +0.000 A 
ATOM     15 CL   UNL     1      -0.034   9.357  23.203  0.00  0.00    +0.000 Cl
ATOM     16  C   UNL     1       1.184   8.034  21.199  0.00  0.00    +0.000 A 
BRANCH  13  17
ATOM     17  O   UNL     1      -0.570  11.260  20.981  0.00  0.00    +0.000 OA
BRANCH  17  18
ATOM     18  C   UNL     1       0.171  12.316  21.602  0.00  0.00    +0.000 C 
BRANCH  18  19
ATOM     19  C   UNL     1       0.776  13.291  20.626  0.00  0.00    +0.000 A 
ATOM     20  C   UNL     1       0.011  14.044  19.728  0.00  0.00    +0.000 A 
ATOM     21  C   UNL     1       0.639  14.892  18.812  0.00  0.00    +0.000 A 
ATOM     22  C   UNL     1       2.030  14.999  18.794  0.00  0.00    +0.000 A 
ATOM     23  C   UNL     1       2.786  14.268  19.700  0.00  0.00    +0.000 A 
ATOM     24  F   UNL     1       4.121  14.365  19.687  0.00  0.00    +0.000 F 
ATOM     25  C   UNL     1       2.174  13.423  20.614  0.00  0.00    +0.000 A 
ENDBRANCH  18  19
ENDBRANCH  17  18
ENDBRANCH  13  17
ENDBRANCH   3  10
BRANCH   1  30
ATOM     26  C   UNL     1       6.392   4.229  15.938  0.00  0.00    +0.000 A 
ATOM     27  C   UNL     1       7.611   4.390  16.603  0.00  0.00    +0.000 A 
ATOM     28  C   UNL     1       7.649   4.903  17.896  0.00  0.00    +0.000 A 
ATOM     29  C   UNL     1       6.467   5.248  18.545  0.00  0.00    +0.000 A 
ATOM     30  C   UNL     1       5.233   5.114  17.894  0.00  0.00    +0.000 A 
ATOM     31  C   UNL     1       5.210   4.627  16.577  0.00  0.00    +0.000 A 
BRANCH  26  35
ATOM     32  C   UNL     1       6.429   3.476  12.242  0.00  0.00    +0.000 C 
ATOM     33  C   UNL     1       6.775   4.267  13.476  0.00  0.00    +0.000 C 
ATOM     34  O   UNL     1       7.420   5.307  13.387  0.00  0.00    +0.000 OA
ATOM     35  N   UNL     1       6.296   3.684  14.638  0.00  0.00    +0.000 N 
ATOM     36  H   UNL     1       5.940   2.738  14.566  0.00  0.00    +0.000 HD
ENDBRANCH  26  35
ENDBRANCH   1  30
TORSDOF 6
ENDMDL
MODEL 5
REMARK VINA RESULT:      -9.5      0.934      1.229
REMARK  Name = 
REMARK  7 active torsions:
REMARK  status: ('A' for Active; 'I' for Inactive)
REMARK    1  A    between atoms: C_1  and  C_2
REMARK    2  A    between atoms: N_4  and  C_5
REMARK    3  A    between atoms: C_9  and  C_10
REMARK    4  A    between atoms: N_12  and  C_13
REMARK    5  A    between atoms: C_16  and  O_17
REMARK    6  A    between atoms: O_17  and  C_18
REMARK    7  A    between atoms: C_18  and  C_19
REMARK                            x       y       z     vdW  Elec       q    Type
REMARK                         _______ _______ _______ _____ _____    ______ ____
ROOT
ATOM      1  C   UNL     1       4.008   5.436  18.560  0.00  0.00    +0.000 A 
ATOM      2  C   UNL     1       3.493   6.720  18.621  0.00  0.00    +0.000 A 
ATOM      3  N   UNL     1       2.413   6.740  19.483  0.00  0.00    +0.000 N 
ATOM      4  C   UNL     1       2.169   5.434  19.893  0.00  0.00    +0.000 A 
ATOM      5  N   UNL     1       1.141   5.014  20.661  0.00  0.00    +0.000 NA
ATOM      6  C   UNL     1       1.170   3.701  20.908  0.00  0.00    +0.000 A 
ATOM      7  N   UNL     1       2.075   2.810  20.477  0.00  0.00    +0.000 NA
ATOM      8  C   UNL     1       3.078   3.263  19.693  0.00  0.00    +0.000 A 
ATOM      9  C   UNL     1       3.149   4.614  19.347  0.00  0.00    +0.000 A 
ENDROOT
BRANCH   3  10
ATOM     10  C   UNL     1       1.714   7.911  19.894  0.00  0.00    +0.000 A 
ATOM     11  C   UNL     1       1.435   8.910  18.960  0.00  0.00    +0.000 A 
ATOM     12  C   UNL     1       0.755  10.061  19.341  0.00  0.00    +0.000 A 
ATOM     13  C   UNL     1       0.300  10.221  20.654  0.00  0.00    +0.000 A 
ATOM     14  C   UNL     1       0.606   9.233  21.600  0.00  0.00    +0.000 A 
ATOM     15 CL   UNL     1       0.151   9.409  23.259  0.00  0.00    +0.000 Cl
ATOM     16  C   UNL     1       1.289   8.068  21.220  0.00  0.00    +0.000 A 
BRANCH  13  17
ATOM     17  O   UNL     1      -0.454  11.304  21.047  0.00  0.00    +0.000 OA
BRANCH  17  18
ATOM     18  C   UNL     1      -1.032  12.030  19.957  0.00  0.00    +0.000 C 
BRANCH  18  19
ATOM     19  C   UNL     1      -2.369  12.646  20.277  0.00  0.00    +0.000 A 
ATOM     20  C   UNL     1      -2.547  13.604  21.281  0.00  0.00    +0.000 A 
ATOM     21  C   UNL     1      -3.824  14.097  21.562  0.00  0.00    +0.000 A 
ATOM     22  C   UNL     1      -4.926  13.641  20.839  0.00  0.00    +0.000 A 
ATOM     23  C   UNL     1      -4.746  12.707  19.829  0.00  0.00    +0.000 A 
ATOM     24  F   UNL     1      -5.800  12.264  19.132  0.00  0.00    +0.000 F 
ATOM     25  C   UNL     1      -3.483  12.211  19.540  0.00  0.00    +0.000 A 
ENDBRANCH  18  19
ENDBRANCH  17  18
ENDBRANCH  13  17
ENDBRANCH   3  10
BRANCH   1  30
ATOM     26  C   UNL     1       6.357   4.205  15.870  0.00  0.00    +0.000 A 
ATOM     27  C   UNL     1       7.586   4.365  16.516  0.00  0.00    +0.000 A 
ATOM     28  C   UNL     1       7.645   4.887  17.805  0.00  0.00    +0.000 A 
ATOM     29  C   UNL     1       6.474   5.241  18.469  0.00  0.00    +0.000 A 
ATOM     30  C   UNL     1       5.230   5.108  17.836  0.00  0.00    +0.000 A 
ATOM     31  C   UNL     1       5.186   4.613  16.523  0.00  0.00    +0.000 A 
BRANCH  26  35
ATOM     32  C   UNL     1       6.351   3.421  12.180  0.00  0.00    +0.000 C 
ATOM     33  C   UNL     1       6.722   4.215  13.405  0.00  0.00    +0.000 C 
ATOM     34  O   UNL     1       7.388   5.240  13.302  0.00  0.00    +0.000 OA
ATOM     35  N   UNL     1       6.240   3.651  14.576  0.00  0.00    +0.000 N 
ATOM     36  H   UNL     1       5.864   2.712  14.514  0.00  0.00    +0.000 HD
ENDBRANCH  26  35
ENDBRANCH   1  30
TORSDOF 6
ENDMDL
MODEL 6
REMARK VINA RESULT:      -9.5      1.762      2.307
REMARK  Name = 
REMARK  7 active torsions:
REMARK  status: ('A' for Active; 'I' for Inactive)
REMARK    1  A    between atoms: C_1  and  C_2
REMARK    2  A    between atoms: N_4  and  C_5
REMARK    3  A    between atoms: C_9  and  C_10
REMARK    4  A    between atoms: N_12  and  C_13
REMARK    5  A    between atoms: C_16  and  O_17
REMARK    6  A    between atoms: O_17  and  C_18
REMARK    7  A    between atoms: C_18  and  C_19
REMARK                            x       y       z     vdW  Elec       q    Type
REMARK                         _______ _______ _______ _____ _____    ______ ____
ROOT
ATOM      1  C   UNL     1       3.985   5.418  18.576  0.00  0.00    +0.000 A 
ATOM      2  C   UNL     1       3.465   6.699  18.640  0.00  0.00    +0.000 A 
ATOM      3  N   UNL     1       2.382   6.712  19.498  0.00  0.00    +0.000 N 
ATOM      4  C   UNL     1       2.141   5.403  19.902  0.00  0.00    +0.000 A 
ATOM      5  N   UNL     1       1.112   4.976  20.665  0.00  0.00    +0.000 NA
ATOM      6  C   UNL     1       1.145   3.663  20.908  0.00  0.00    +0.000 A 
ATOM      7  N   UNL     1       2.055   2.777  20.477  0.00  0.00    +0.000 NA
ATOM      8  C   UNL     1       3.060   3.237  19.698  0.00  0.00    +0.000 A 
ATOM      9  C   UNL     1       3.127   4.589  19.357  0.00  0.00    +0.000 A 
ENDROOT
BRANCH   3  10
ATOM     10  C   UNL     1       1.677   7.878  19.910  0.00  0.00    +0.000 A 
ATOM     11  C   UNL     1       1.400   8.882  18.979  0.00  0.00    +0.000 A 
ATOM     12  C   UNL     1       0.714  10.028  19.363  0.00  0.00    +0.000 A 
ATOM     13  C   UNL     1       0.251  10.181  20.673  0.00  0.00    +0.000 A 
ATOM     14  C   UNL     1       0.554   9.189  21.616  0.00  0.00    +0.000 A 
ATOM     15 CL   UNL     1       0.088   9.355  23.273  0.00  0.00    +0.000 Cl
ATOM     16  C   UNL     1       1.243   8.028  21.234  0.00  0.00    +0.000 A 
BRANCH  13  17
ATOM     17  O   UNL     1      -0.508  11.259  21.067  0.00  0.00    +0.000 OA
BRANCH  17  18
ATOM     18  C   UNL     1      -1.314  11.811  20.019  0.00  0.00    +0.000 C 
BRANCH  18  19
ATOM     19  C   UNL     1      -1.071  13.276  19.773  0.00  0.00    +0.000 A 
ATOM     20  C   UNL     1      -0.287  13.753  18.717  0.00  0.00    +0.000 A 
ATOM     21  C   UNL     1      -0.058  15.124  18.576  0.00  0.00    +0.000 A 
ATOM     22  C   UNL     1      -0.616  16.025  19.482  0.00  0.00    +0.000 A 
ATOM     23  C   UNL     1      -1.411  15.553  20.517  0.00  0.00    +0.000 A 
ATOM     24  F   UNL     1      -1.950  16.413  21.392  0.00  0.00    +0.000 F 
ATOM     25  C   UNL     1      -1.646  14.194  20.667  0.00  0.00    +0.000 A 
ENDBRANCH  18  19
ENDBRANCH  17  18
ENDBRANCH  13  17
ENDBRANCH   3  10
BRANCH   1  30
ATOM     26  C   UNL     1       6.349   4.199  15.893  0.00  0.00    +0.000 A 
ATOM     27  C   UNL     1       7.575   4.367  16.542  0.00  0.00    +0.000 A 
ATOM     28  C   UNL     1       7.627   4.891  17.831  0.00  0.00    +0.000 A 
ATOM     29  C   UNL     1       6.453   5.238  18.491  0.00  0.00    +0.000 A 
ATOM     30  C   UNL     1       5.211   5.097  17.856  0.00  0.00    +0.000 A 
ATOM     31  C   UNL     1       5.173   4.600  16.543  0.00  0.00    +0.000 A 
BRANCH  26  35
ATOM     32  C   UNL     1       6.354   3.413  12.204  0.00  0.00    +0.000 C 
ATOM     33  C   UNL     1       6.716   4.211  13.429  0.00  0.00    +0.000 C 
ATOM     34  O   UNL     1       7.372   5.243  13.326  0.00  0.00    +0.000 OA
ATOM     35  N   UNL     1       6.238   3.643  14.599  0.00  0.00    +0.000 N 
ATOM     36  H   UNL     1       5.871   2.701  14.537  0.00  0.00    +0.000 HD
ENDBRANCH  26  35
ENDBRANCH   1  30
TORSDOF 6
ENDMDL
MODEL 7
REMARK VINA RESULT:      -9.5      1.637      2.052
REMARK  Name = 
REMARK  7 active torsions:
REMARK  status: ('A' for Active; 'I' for Inactive)
REMARK    1  A    between atoms: C_1  and  C_2
REMARK    2  A    between atoms: N_4  and  C_5
REMARK    3  A    between atoms: C_9  and  C_10
REMARK    4  A    between atoms: N_12  and  C_13
REMARK    5  A    between atoms: C_16  and  O_17
REMARK    6  A    between atoms: O_17  and  C_18
REMARK    7  A    between atoms: C_18  and  C_19
REMARK                            x       y       z     vdW  Elec       q    Type
REMARK                         _______ _______ _______ _____ _____    ______ ____
ROOT
ATOM      1  C   UNL     1       3.880   5.506  18.226  0.00  0.00    +0.000 A 
ATOM      2  C   UNL     1       3.423   6.808  18.331  0.00  0.00    +0.000 A 
ATOM      3  N   UNL     1       2.401   6.861  19.258  0.00  0.00    +0.000 N 
ATOM      4  C   UNL     1       2.129   5.562  19.671  0.00  0.00    +0.000 A 
ATOM      5  N   UNL     1       1.134   5.175  20.498  0.00  0.00    +0.000 NA
ATOM      6  C   UNL     1       1.125   3.859  20.732  0.00  0.00    +0.000 A 
ATOM      7  N   UNL     1       1.965   2.938  20.237  0.00  0.00    +0.000 NA
ATOM      8  C   UNL     1       2.935   3.359  19.396  0.00  0.00    +0.000 A 
ATOM      9  C   UNL     1       3.040   4.710  19.058  0.00  0.00    +0.000 A 
ENDROOT
BRANCH   3  10
ATOM     10  C   UNL     1       1.777   8.055  19.722  0.00  0.00    +0.000 A 
ATOM     11  C   UNL     1       1.554   9.107  18.832  0.00  0.00    +0.000 A 
ATOM     12  C   UNL     1       0.947  10.280  19.265  0.00  0.00    +0.000 A 
ATOM     13  C   UNL     1       0.511  10.414  20.586  0.00  0.00    +0.000 A 
ATOM     14  C   UNL     1       0.760   9.371  21.489  0.00  0.00    +0.000 A 
ATOM     15 CL   UNL     1       0.326   9.506  23.157  0.00  0.00    +0.000 Cl
ATOM     16  C   UNL     1       1.369   8.183  21.056  0.00  0.00    +0.000 A 
BRANCH  13  17
ATOM     17  O   UNL     1      -0.173  11.523  21.029  0.00  0.00    +0.000 OA
BRANCH  17  18
ATOM     18  C   UNL     1      -1.508  11.620  20.518  0.00  0.00    +0.000 C 
BRANCH  18  19
ATOM     19  C   UNL     1      -2.497  12.184  21.503  0.00  0.00    +0.000 A 
ATOM     20  C   UNL     1      -2.397  11.984  22.885  0.00  0.00    +0.000 A 
ATOM     21  C   UNL     1      -3.379  12.492  23.740  0.00  0.00    +0.000 A 
ATOM     22  C   UNL     1      -4.459  13.207  23.222  0.00  0.00    +0.000 A 
ATOM     23  C   UNL     1      -4.545  13.424  21.854  0.00  0.00    +0.000 A 
ATOM     24  F   UNL     1      -5.579  14.109  21.351  0.00  0.00    +0.000 F 
ATOM     25  C   UNL     1      -3.576  12.925  20.995  0.00  0.00    +0.000 A 
ENDBRANCH  18  19
ENDBRANCH  17  18
ENDBRANCH  13  17
ENDBRANCH   3  10
BRANCH   1  30
ATOM     26  C   UNL     1       6.012   4.074  15.454  0.00  0.00    +0.000 A 
ATOM     27  C   UNL     1       7.289   4.322  15.965  0.00  0.00    +0.000 A 
ATOM     28  C   UNL     1       7.449   4.967  17.188  0.00  0.00    +0.000 A 
ATOM     29  C   UNL     1       6.333   5.357  17.923  0.00  0.00    +0.000 A 
ATOM     30  C   UNL     1       5.041   5.137  17.425  0.00  0.00    +0.000 A 
ATOM     31  C   UNL     1       4.893   4.516  16.174  0.00  0.00    +0.000 A 
BRANCH  26  35
ATOM     32  C   UNL     1       5.830   2.874  11.883  0.00  0.00    +0.000 C 
ATOM     33  C   UNL     1       6.333   3.743  13.006  0.00  0.00    +0.000 C 
ATOM     34  O   UNL     1       7.138   4.641  12.783  0.00  0.00    +0.000 OA
ATOM     35  N   UNL     1       5.794   3.396  14.235  0.00  0.00    +0.000 N 
ATOM     36  H   UNL     1       5.285   2.521  14.283  0.00  0.00    +0.000 HD
ENDBRANCH  26  35
ENDBRANCH   1  30
TORSDOF 6
ENDMDL
MODEL 8
REMARK VINA RESULT:      -9.5      2.277      2.767
REMARK  Name = 
REMARK  7 active torsions:
REMARK  status: ('A' for Active; 'I' for Inactive)
REMARK    1  A    between atoms: C_1  and  C_2
REMARK    2  A    between atoms: N_4  and  C_5
REMARK    3  A    between atoms: C_9  and  C_10
REMARK    4  A    between atoms: N_12  and  C_13
REMARK    5  A    between atoms: C_16  and  O_17
REMARK    6  A    between atoms: O_17  and  C_18
REMARK    7  A    between atoms: C_18  and  C_19
REMARK                            x       y       z     vdW  Elec       q    Type
REMARK                         _______ _______ _______ _____ _____    ______ ____
ROOT
ATOM      1  C   UNL     1       4.026   5.785  18.124  0.00  0.00    +0.000 A 
ATOM      2  C   UNL     1       3.326   6.979  18.161  0.00  0.00    +0.000 A 
ATOM      3  N   UNL     1       2.432   6.953  19.214  0.00  0.00    +0.000 N 
ATOM      4  C   UNL     1       2.485   5.689  19.790  0.00  0.00    +0.000 A 
ATOM      5  N   UNL     1       1.697   5.227  20.784  0.00  0.00    +0.000 NA
ATOM      6  C   UNL     1       1.986   3.975  21.148  0.00  0.00    +0.000 A 
ATOM      7  N   UNL     1       2.932   3.174  20.634  0.00  0.00    +0.000 NA
ATOM      8  C   UNL     1       3.688   3.663  19.626  0.00  0.00    +0.000 A 
ATOM      9  C   UNL     1       3.472   4.955  19.142  0.00  0.00    +0.000 A 
ENDROOT
BRANCH   3  10
ATOM     10  C   UNL     1       1.636   8.055  19.640  0.00  0.00    +0.000 A 
ATOM     11  C   UNL     1       1.372   9.099  18.751  0.00  0.00    +0.000 A 
ATOM     12  C   UNL     1       0.598  10.183  19.147  0.00  0.00    +0.000 A 
ATOM     13  C   UNL     1       0.034  10.230  20.426  0.00  0.00    +0.000 A 
ATOM     14  C   UNL     1       0.324   9.198  21.330  0.00  0.00    +0.000 A 
ATOM     15 CL   UNL     1      -0.268   9.238  22.954  0.00  0.00    +0.000 Cl
ATOM     16  C   UNL     1       1.102   8.100  20.934  0.00  0.00    +0.000 A 
BRANCH  13  17
ATOM     17  O   UNL     1      -0.810  11.242  20.824  0.00  0.00    +0.000 OA
BRANCH  17  18
ATOM     18  C   UNL     1      -0.169  12.251  21.612  0.00  0.00    +0.000 C 
BRANCH  18  19
ATOM     19  C   UNL     1      -1.092  12.949  22.575  0.00  0.00    +0.000 A 
ATOM     20  C   UNL     1      -0.808  14.199  23.136  0.00  0.00    +0.000 A 
ATOM     21  C   UNL     1      -1.684  14.767  24.065  0.00  0.00    +0.000 A 
ATOM     22  C   UNL     1      -2.850  14.095  24.432  0.00  0.00    +0.000 A 
ATOM     23  C   UNL     1      -3.142  12.866  23.859  0.00  0.00    +0.000 A 
ATOM     24  F   UNL     1      -4.259  12.215  24.207  0.00  0.00    +0.000 F 
ATOM     25  C   UNL     1      -2.280  12.291  22.935  0.00  0.00    +0.000 A 
ENDBRANCH  18  19
ENDBRANCH  17  18
ENDBRANCH  13  17
ENDBRANCH   3  10
BRANCH   1  30
ATOM     26  C   UNL     1       6.062   4.441  15.239  0.00  0.00    +0.000 A 
ATOM     27  C   UNL     1       7.311   4.996  15.532  0.00  0.00    +0.000 A 
ATOM     28  C   UNL     1       7.477   5.814  16.646  0.00  0.00    +0.000 A 
ATOM     29  C   UNL     1       6.401   6.074  17.488  0.00  0.00    +0.000 A 
ATOM     30  C   UNL     1       5.134   5.545  17.207  0.00  0.00    +0.000 A 
ATOM     31  C   UNL     1       4.969   4.749  16.062  0.00  0.00    +0.000 A 
BRANCH  26  35
ATOM     32  C   UNL     1       5.883   2.698  11.899  0.00  0.00    +0.000 C 
ATOM     33  C   UNL     1       6.382   3.734  12.872  0.00  0.00    +0.000 C 
ATOM     34  O   UNL     1       7.182   4.591  12.510  0.00  0.00    +0.000 OA
ATOM     35  N   UNL     1       5.846   3.580  14.141  0.00  0.00    +0.000 N 
ATOM     36  H   UNL     1       5.342   2.720  14.326  0.00  0.00    +0.000 HD
ENDBRANCH  26  35
ENDBRANCH   1  30
TORSDOF 6
ENDMDL
MODEL 9
REMARK VINA RESULT:      -9.3      4.029     10.717
REMARK  Name = 
REMARK  7 active torsions:
REMARK  status: ('A' for Active; 'I' for Inactive)
REMARK    1  A    between atoms: C_1  and  C_2
REMARK    2  A    between atoms: N_4  and  C_5
REMARK    3  A    between atoms: C_9  and  C_10
REMARK    4  A    between atoms: N_12  and  C_13
REMARK    5  A    between atoms: C_16  and  O_17
REMARK    6  A    between atoms: O_17  and  C_18
REMARK    7  A    between atoms: C_18  and  C_19
REMARK                            x       y       z     vdW  Elec       q    Type
REMARK                         _______ _______ _______ _____ _____    ______ ____
ROOT
ATOM      1  C   UNL     1      -1.780  11.541  18.713  0.00  0.00    +0.000 A 
ATOM      2  C   UNL     1      -1.105  10.395  18.326  0.00  0.00    +0.000 A 
ATOM      3  N   UNL     1       0.180  10.428  18.833  0.00  0.00    +0.000 N 
ATOM      4  C   UNL     1       0.363  11.656  19.459  0.00  0.00    +0.000 A 
ATOM      5  N   UNL     1       1.511  12.118  19.997  0.00  0.00    +0.000 NA
ATOM      6  C   UNL     1       1.386  13.329  20.547  0.00  0.00    +0.000 A 
ATOM      7  N   UNL     1       0.281  14.089  20.601  0.00  0.00    +0.000 NA
ATOM      8  C   UNL     1      -0.845  13.603  20.034  0.00  0.00    +0.000 A 
ATOM      9  C   UNL     1      -0.839  12.354  19.410  0.00  0.00    +0.000 A 
ENDROOT
BRANCH   3  10
ATOM     10  C   UNL     1       1.121   9.362  18.749  0.00  0.00    +0.000 A 
ATOM     11  C   UNL     1       2.009   9.310  17.673  0.00  0.00    +0.000 A 
ATOM     12  C   UNL     1       2.934   8.277  17.573  0.00  0.00    +0.000 A 
ATOM     13  C   UNL     1       3.022   7.296  18.565  0.00  0.00    +0.000 A 
ATOM     14  C   UNL     1       2.110   7.329  19.630  0.00  0.00    +0.000 A 
ATOM     15 CL   UNL     1       2.106   6.098  20.845  0.00  0.00    +0.000 Cl
ATOM     16  C   UNL     1       1.177   8.371  19.738  0.00  0.00    +0.000 A 
BRANCH  13  17
ATOM     17  O   UNL     1       3.982   6.310  18.547  0.00  0.00    +0.000 OA
BRANCH  17  18
ATOM     18  C   UNL     1       3.805   5.352  17.497  0.00  0.00    +0.000 C 
BRANCH  18  19
ATOM     19  C   UNL     1       3.302   4.015  17.973  0.00  0.00    +0.000 A 
ATOM     20  C   UNL     1       4.150   2.946  18.282  0.00  0.00    +0.000 A 
ATOM     21  C   UNL     1       3.614   1.714  18.668  0.00  0.00    +0.000 A 
ATOM     22  C   UNL     1       2.232   1.546  18.754  0.00  0.00    +0.000 A 
ATOM     23  C   UNL     1       1.392   2.614  18.469  0.00  0.00    +0.000 A 
ATOM     24  F   UNL     1       0.065   2.459  18.550  0.00  0.00    +0.000 F 
ATOM     25  C   UNL     1       1.912   3.842  18.085  0.00  0.00    +0.000 A 
ENDBRANCH  18  19
ENDBRANCH  17  18
ENDBRANCH  13  17
ENDBRANCH   3  10
BRANCH   1  30
ATOM     26  C   UNL     1      -5.447  12.292  19.223  0.00  0.00    +0.000 A 
ATOM     27  C   UNL     1      -5.940  12.023  17.943  0.00  0.00    +0.000 A 
ATOM     28  C   UNL     1      -5.080  11.622  16.924  0.00  0.00    +0.000 A 
ATOM     29  C   UNL     1      -3.720  11.470  17.177  0.00  0.00    +0.000 A 
ATOM     30  C   UNL     1      -3.198  11.751  18.447  0.00  0.00    +0.000 A 
ATOM     31  C   UNL     1      -4.068  12.189  19.458  0.00  0.00    +0.000 A 
BRANCH  26  35
ATOM     32  C   UNL     1      -7.915  12.552  22.063  0.00  0.00    +0.000 C 
ATOM     33  C   UNL     1      -7.076  11.821  21.048  0.00  0.00    +0.000 C 
ATOM     34  O   UNL     1      -7.138  10.599  20.955  0.00  0.00    +0.000 OA
ATOM     35  N   UNL     1      -6.279  12.672  20.299  0.00  0.00    +0.000 N 
ATOM     36  H   UNL     1      -6.205  13.632  20.616  0.00  0.00    +0.000 HD
ENDBRANCH  26  35
ENDBRANCH   1  30
TORSDOF 6
ENDMDL
