MODEL 1
REMARK VINA RESULT:      -7.1      0.000      0.000
REMARK  Name = 
REMARK  10 active torsions:
REMARK  status: ('A' for Active; 'I' for Inactive)
REMARK    1  A    between atoms: C_1  and  C_2
REMARK    2  A    between atoms: C_2  and  C_3
REMARK    3  A    between atoms: N_5  and  S_6
REMARK    4  A    between atoms: S_6  and  C_9
REMARK    5  A    between atoms: C_17  and  C_18
REMARK    6  A    between atoms: C_18  and  C_19
REMARK    7  A    between atoms: N_21  and  C_22
REMARK    8  A    between atoms: N_21  and  C_23
REMARK    9  A    between atoms: C_23  and  C_24
REMARK   10  A    between atoms: C_24  and  C_25
REMARK                            x       y       z     vdW  Elec       q    Type
REMARK                         _______ _______ _______ _____ _____    ______ ____
ROOT
ATOM      1  C   UNL     1       3.884   4.866  18.642  0.00  0.00    +0.000 C 
ATOM      2  C   UNL     1       5.366   4.788  18.222  0.00  0.00    +0.000 C 
ATOM      3  N   UNL     1       5.598   5.479  16.919  0.00  0.00    +0.000 NA
ATOM      4  C   UNL     1       5.217   6.921  16.988  0.00  0.00    +0.000 C 
ATOM      5  C   UNL     1       3.752   7.076  17.393  0.00  0.00    +0.000 C 
ATOM      6  C   UNL     1       3.446   6.360  18.718  0.00  0.00    +0.000 C 
ENDROOT
BRANCH   3   7
ATOM      7  S   UNL     1       7.213   5.287  16.324  0.00  0.00    +0.000 S 
ATOM      8  O   UNL     1       7.841   6.590  16.276  0.00  0.00    +0.000 OA
ATOM      9  O   UNL     1       7.814   4.192  17.058  0.00  0.00    +0.000 OA
BRANCH   7  10
ATOM     10  C   UNL     1       6.964   4.769  14.644  0.00  0.00    +0.000 A 
ATOM     11  C   UNL     1       7.762   5.328  13.643  0.00  0.00    +0.000 A 
ATOM     12  C   UNL     1       7.591   4.915  12.321  0.00  0.00    +0.000 A 
ATOM     13  C   UNL     1       6.636   3.947  12.009  0.00  0.00    +0.000 A 
ATOM     14  C   UNL     1       5.851   3.380  13.017  0.00  0.00    +0.000 A 
ATOM     15  C   UNL     1       6.014   3.787  14.340  0.00  0.00    +0.000 A 
ENDBRANCH   7  10
ENDBRANCH   3   7
BRANCH   1  17
ATOM     16  C   UNL     1       3.154   2.496  17.908  0.00  0.00    +0.000 C 
ATOM     17  C   UNL     1       2.959   3.997  17.753  0.00  0.00    +0.000 C 
ENDBRANCH   1  17
BRANCH   6  18
ATOM     18  C   UNL     1       1.970   6.506  19.140  0.00  0.00    +0.000 C 
BRANCH  18  19
ATOM     19  C   UNL     1       1.703   7.693  20.049  0.00  0.00    +0.000 C 
ATOM     20  O   UNL     1       1.787   7.540  21.272  0.00  0.00    +0.000 OA
ATOM     21  N   UNL     1       1.379   8.926  19.501  0.00  0.00    +0.000 N 
ATOM     22  C   UNL     1       1.219   9.239  18.081  0.00  0.00    +0.000 C 
BRANCH  21  23
ATOM     23  C   UNL     1       1.135  10.047  20.420  0.00  0.00    +0.000 C 
BRANCH  23  24
ATOM     24  C   UNL     1      -0.339  10.386  20.661  0.00  0.00    +0.000 C 
BRANCH  24  25
ATOM     25  C   UNL     1      -0.568  10.820  22.043  0.00  0.00    +0.000 C 
ATOM     26  N   UNL     1      -0.741  11.178  23.132  0.00  0.00    +0.000 NA
ENDBRANCH  24  25
ENDBRANCH  23  24
ENDBRANCH  21  23
ENDBRANCH  18  19
ENDBRANCH   6  18
TORSDOF 8
ENDMDL
MODEL 2
REMARK VINA RESULT:      -7.1      0.341      1.007
REMARK  Name = 
REMARK  10 active torsions:
REMARK  status: ('A' for Active; 'I' for Inactive)
REMARK    1  A    between atoms: C_1  and  C_2
REMARK    2  A    between atoms: C_2  and  C_3
REMARK    3  A    between atoms: N_5  and  S_6
REMARK    4  A    between atoms: S_6  and  C_9
REMARK    5  A    between atoms: C_17  and  C_18
REMARK    6  A    between atoms: C_18  and  C_19
REMARK    7  A    between atoms: N_21  and  C_22
REMARK    8  A    between atoms: N_21  and  C_23
REMARK    9  A    between atoms: C_23  and  C_24
REMARK   10  A    between atoms: C_24  and  C_25
REMARK                            x       y       z     vdW  Elec       q    Type
REMARK                         _______ _______ _______ _____ _____    ______ ____
ROOT
ATOM      1  C   UNL     1       3.881   5.232  18.872  0.00  0.00    +0.000 C 
ATOM      2  C   UNL     1       5.361   5.157  18.448  0.00  0.00    +0.000 C 
ATOM      3  N   UNL     1       5.557   5.678  17.062  0.00  0.00    +0.000 NA
ATOM      4  C   UNL     1       5.120   7.101  16.945  0.00  0.00    +0.000 C 
ATOM      5  C   UNL     1       3.652   7.251  17.342  0.00  0.00    +0.000 C 
ATOM      6  C   UNL     1       3.383   6.706  18.754  0.00  0.00    +0.000 C 
ENDROOT
BRANCH   3   7
ATOM      7  S   UNL     1       7.175   5.471  16.479  0.00  0.00    +0.000 S 
ATOM      8  O   UNL     1       7.788   6.776  16.359  0.00  0.00    +0.000 OA
ATOM      9  O   UNL     1       7.788   4.425  17.273  0.00  0.00    +0.000 OA
BRANCH   7  10
ATOM     10  C   UNL     1       6.932   4.857  14.830  0.00  0.00    +0.000 A 
ATOM     11  C   UNL     1       5.861   3.993  14.586  0.00  0.00    +0.000 A 
ATOM     12  C   UNL     1       5.646   3.519  13.292  0.00  0.00    +0.000 A 
ATOM     13  C   UNL     1       6.491   3.914  12.253  0.00  0.00    +0.000 A 
ATOM     14  C   UNL     1       7.551   4.790  12.501  0.00  0.00    +0.000 A 
ATOM     15  C   UNL     1       7.774   5.268  13.792  0.00  0.00    +0.000 A 
ENDBRANCH   7  10
ENDBRANCH   3   7
BRANCH   1  17
ATOM     16  C   UNL     1       3.685   2.928  17.714  0.00  0.00    +0.000 C 
ATOM     17  C   UNL     1       2.985   4.218  18.116  0.00  0.00    +0.000 C 
ENDBRANCH   1  17
BRANCH   6  18
ATOM     18  C   UNL     1       1.906   6.850  19.171  0.00  0.00    +0.000 C 
BRANCH  18  19
ATOM     19  C   UNL     1       1.635   8.033  20.084  0.00  0.00    +0.000 C 
ATOM     20  O   UNL     1       1.795   7.897  21.301  0.00  0.00    +0.000 OA
ATOM     21  N   UNL     1       1.222   9.242  19.544  0.00  0.00    +0.000 N 
ATOM     22  C   UNL     1       0.967   9.531  18.133  0.00  0.00    +0.000 C 
BRANCH  21  23
ATOM     23  C   UNL     1       0.977  10.361  20.467  0.00  0.00    +0.000 C 
BRANCH  23  24
ATOM     24  C   UNL     1      -0.497  10.686  20.724  0.00  0.00    +0.000 C 
BRANCH  24  25
ATOM     25  C   UNL     1      -0.748  10.940  22.146  0.00  0.00    +0.000 C 
ATOM     26  N   UNL     1      -0.942  11.158  23.268  0.00  0.00    +0.000 NA
ENDBRANCH  24  25
ENDBRANCH  23  24
ENDBRANCH  21  23
ENDBRANCH  18  19
ENDBRANCH   6  18
TORSDOF 8
ENDMDL
MODEL 3
REMARK VINA RESULT:      -6.8      1.106      1.198
REMARK  Name = 
REMARK  10 active torsions:
REMARK  status: ('A' for Active; 'I' for Inactive)
REMARK    1  A    between atoms: C_1  and  C_2
REMARK    2  A    between atoms: C_2  and  C_3
REMARK    3  A    between atoms: N_5  and  S_6
REMARK    4  A    between atoms: S_6  and  C_9
REMARK    5  A    between atoms: C_17  and  C_18
REMARK    6  A    between atoms: C_18  and  C_19
REMARK    7  A    between atoms: N_21  and  C_22
REMARK    8  A    between atoms: N_21  and  C_23
REMARK    9  A    between atoms: C_23  and  C_24
REMARK   10  A    between atoms: C_24  and  C_25
REMARK                            x       y       z     vdW  Elec       q    Type
REMARK                         _______ _______ _______ _____ _____    ______ ____
ROOT
ATOM      1  C   UNL     1       3.682   5.157  18.603  0.00  0.00    +0.000 C 
ATOM      2  C   UNL     1       5.170   4.996  18.236  0.00  0.00    +0.000 C 
ATOM      3  N   UNL     1       5.502   5.733  16.980  0.00  0.00    +0.000 NA
ATOM      4  C   UNL     1       5.219   7.193  17.111  0.00  0.00    +0.000 C 
ATOM      5  C   UNL     1       3.752   7.431  17.467  0.00  0.00    +0.000 C 
ATOM      6  C   UNL     1       3.344   6.673  18.741  0.00  0.00    +0.000 C 
ENDROOT
BRANCH   3   7
ATOM      7  S   UNL     1       7.124   5.458  16.437  0.00  0.00    +0.000 S 
ATOM      8  O   UNL     1       7.795   6.736  16.331  0.00  0.00    +0.000 OA
ATOM      9  O   UNL     1       7.672   4.389  17.246  0.00  0.00    +0.000 OA
BRANCH   7  10
ATOM     10  C   UNL     1       6.896   4.852  14.784  0.00  0.00    +0.000 A 
ATOM     11  C   UNL     1       7.756   5.303  13.778  0.00  0.00    +0.000 A 
ATOM     12  C   UNL     1       7.602   4.820  12.479  0.00  0.00    +0.000 A 
ATOM     13  C   UNL     1       6.602   3.889  12.193  0.00  0.00    +0.000 A 
ATOM     14  C   UNL     1       5.755   3.430  13.205  0.00  0.00    +0.000 A 
ATOM     15  C   UNL     1       5.901   3.908  14.507  0.00  0.00    +0.000 A 
ENDBRANCH   7  10
ENDBRANCH   3   7
BRANCH   1  17
ATOM     16  C   UNL     1       2.514   2.935  17.980  0.00  0.00    +0.000 C 
ATOM     17  C   UNL     1       2.736   4.401  17.635  0.00  0.00    +0.000 C 
ENDBRANCH   1  17
BRANCH   6  18
ATOM     18  C   UNL     1       1.865   6.902  19.114  0.00  0.00    +0.000 C 
BRANCH  18  19
ATOM     19  C   UNL     1       1.626   8.145  19.954  0.00  0.00    +0.000 C 
ATOM     20  O   UNL     1       1.833   8.093  21.171  0.00  0.00    +0.000 OA
ATOM     21  N   UNL     1       1.190   9.314  19.349  0.00  0.00    +0.000 N 
ATOM     22  C   UNL     1       0.880   9.506  17.932  0.00  0.00    +0.000 C 
BRANCH  21  23
ATOM     23  C   UNL     1       0.978  10.494  20.201  0.00  0.00    +0.000 C 
BRANCH  23  24
ATOM     24  C   UNL     1       1.343  11.837  19.562  0.00  0.00    +0.000 C 
BRANCH  24  25
ATOM     25  C   UNL     1       1.727  12.823  20.576  0.00  0.00    +0.000 C 
ATOM     26  N   UNL     1       2.025  13.594  21.390  0.00  0.00    +0.000 NA
ENDBRANCH  24  25
ENDBRANCH  23  24
ENDBRANCH  21  23
ENDBRANCH  18  19
ENDBRANCH   6  18
TORSDOF 8
ENDMDL
MODEL 4
REMARK VINA RESULT:      -6.7      1.007      1.528
REMARK  Name = 
REMARK  10 active torsions:
REMARK  status: ('A' for Active; 'I' for Inactive)
REMARK    1  A    between atoms: C_1  and  C_2
REMARK    2  A    between atoms: C_2  and  C_3
REMARK    3  A    between atoms: N_5  and  S_6
REMARK    4  A    between atoms: S_6  and  C_9
REMARK    5  A    between atoms: C_17  and  C_18
REMARK    6  A    between atoms: C_18  and  C_19
REMARK    7  A    between atoms: N_21  and  C_22
REMARK    8  A    between atoms: N_21  and  C_23
REMARK    9  A    between atoms: C_23  and  C_24
REMARK   10  A    between atoms: C_24  and  C_25
REMARK                            x       y       z     vdW  Elec       q    Type
REMARK                         _______ _______ _______ _____ _____    ______ ____
ROOT
ATOM      1  C   UNL     1       3.562   5.580  18.565  0.00  0.00    +0.000 C 
ATOM      2  C   UNL     1       5.055   5.359  18.251  0.00  0.00    +0.000 C 
ATOM      3  N   UNL     1       5.388   5.794  16.861  0.00  0.00    +0.000 NA
ATOM      4  C   UNL     1       5.086   7.242  16.653  0.00  0.00    +0.000 C 
ATOM      5  C   UNL     1       3.614   7.535  16.939  0.00  0.00    +0.000 C 
ATOM      6  C   UNL     1       3.205   7.083  18.350  0.00  0.00    +0.000 C 
ENDROOT
BRANCH   3   7
ATOM      7  S   UNL     1       7.016   5.423  16.403  0.00  0.00    +0.000 S 
ATOM      8  O   UNL     1       7.761   6.661  16.317  0.00  0.00    +0.000 OA
ATOM      9  O   UNL     1       7.465   4.337  17.250  0.00  0.00    +0.000 OA
BRANCH   7  10
ATOM     10  C   UNL     1       6.838   4.809  14.746  0.00  0.00    +0.000 A 
ATOM     11  C   UNL     1       5.780   3.941  14.463  0.00  0.00    +0.000 A 
ATOM     12  C   UNL     1       5.615   3.466  13.161  0.00  0.00    +0.000 A 
ATOM     13  C   UNL     1       6.496   3.864  12.155  0.00  0.00    +0.000 A 
ATOM     14  C   UNL     1       7.543   4.744  12.442  0.00  0.00    +0.000 A 
ATOM     15  C   UNL     1       7.716   5.223  13.740  0.00  0.00    +0.000 A 
ENDBRANCH   7  10
ENDBRANCH   3   7
BRANCH   1  17
ATOM     16  C   UNL     1       3.086   3.158  17.795  0.00  0.00    +0.000 C 
ATOM     17  C   UNL     1       2.633   4.610  17.791  0.00  0.00    +0.000 C 
ENDBRANCH   1  17
BRANCH   6  18
ATOM     18  C   UNL     1       1.721   7.371  18.655  0.00  0.00    +0.000 C 
BRANCH  18  19
ATOM     19  C   UNL     1       1.425   8.830  18.957  0.00  0.00    +0.000 C 
ATOM     20  O   UNL     1       1.434   9.646  18.029  0.00  0.00    +0.000 OA
ATOM     21  N   UNL     1       1.144   9.224  20.257  0.00  0.00    +0.000 N 
ATOM     22  C   UNL     1       1.129   8.374  21.447  0.00  0.00    +0.000 C 
BRANCH  21  23
ATOM     23  C   UNL     1       0.858  10.646  20.500  0.00  0.00    +0.000 C 
BRANCH  23  24
ATOM     24  C   UNL     1      -0.619  10.988  20.717  0.00  0.00    +0.000 C 
BRANCH  24  25
ATOM     25  C   UNL     1      -0.876  11.390  22.103  0.00  0.00    +0.000 C 
ATOM     26  N   UNL     1      -1.084  11.723  23.194  0.00  0.00    +0.000 NA
ENDBRANCH  24  25
ENDBRANCH  23  24
ENDBRANCH  21  23
ENDBRANCH  18  19
ENDBRANCH   6  18
TORSDOF 8
ENDMDL
MODEL 5
REMARK VINA RESULT:      -6.7      2.962      3.737
REMARK  Name = 
REMARK  10 active torsions:
REMARK  status: ('A' for Active; 'I' for Inactive)
REMARK    1  A    between atoms: C_1  and  C_2
REMARK    2  A    between atoms: C_2  and  C_3
REMARK    3  A    between atoms: N_5  and  S_6
REMARK    4  A    between atoms: S_6  and  C_9
REMARK    5  A    between atoms: C_17  and  C_18
REMARK    6  A    between atoms: C_18  and  C_19
REMARK    7  A    between atoms: N_21  and  C_22
REMARK    8  A    between atoms: N_21  and  C_23
REMARK    9  A    between atoms: C_23  and  C_24
REMARK   10  A    between atoms: C_24  and  C_25
REMARK                            x       y       z     vdW  Elec       q    Type
REMARK                         _______ _______ _______ _____ _____    ______ ____
ROOT
ATOM      1  C   UNL     1       2.207   5.696  20.600  0.00  0.00    +0.000 C 
ATOM      2  C   UNL     1       3.448   5.145  19.870  0.00  0.00    +0.000 C 
ATOM      3  N   UNL     1       3.365   5.388  18.398  0.00  0.00    +0.000 NA
ATOM      4  C   UNL     1       3.261   6.845  18.088  0.00  0.00    +0.000 C 
ATOM      5  C   UNL     1       2.041   7.459  18.775  0.00  0.00    +0.000 C 
ATOM      6  C   UNL     1       2.058   7.218  20.293  0.00  0.00    +0.000 C 
ENDROOT
BRANCH   3   7
ATOM      7  S   UNL     1       4.658   4.652  17.512  0.00  0.00    +0.000 S 
ATOM      8  O   UNL     1       4.920   3.348  18.084  0.00  0.00    +0.000 OA
ATOM      9  O   UNL     1       4.357   4.805  16.104  0.00  0.00    +0.000 OA
BRANCH   7  10
ATOM     10  C   UNL     1       6.051   5.681  17.905  0.00  0.00    +0.000 A 
ATOM     11  C   UNL     1       6.875   5.317  18.974  0.00  0.00    +0.000 A 
ATOM     12  C   UNL     1       7.984   6.105  19.281  0.00  0.00    +0.000 A 
ATOM     13  C   UNL     1       8.268   7.240  18.520  0.00  0.00    +0.000 A 
ATOM     14  C   UNL     1       7.450   7.590  17.443  0.00  0.00    +0.000 A 
ATOM     15  C   UNL     1       6.338   6.809  17.129  0.00  0.00    +0.000 A 
ENDBRANCH   7  10
ENDBRANCH   3   7
BRANCH   1  17
ATOM     16  C   UNL     1       1.086   3.372  20.419  0.00  0.00    +0.000 C 
ATOM     17  C   UNL     1       0.922   4.880  20.304  0.00  0.00    +0.000 C 
ENDBRANCH   1  17
BRANCH   6  18
ATOM     18  C   UNL     1       0.834   7.831  21.001  0.00  0.00    +0.000 C 
BRANCH  18  19
ATOM     19  C   UNL     1       1.019   9.283  21.407  0.00  0.00    +0.000 C 
ATOM     20  O   UNL     1       1.688   9.542  22.412  0.00  0.00    +0.000 OA
ATOM     21  N   UNL     1       0.447  10.292  20.645  0.00  0.00    +0.000 N 
ATOM     22  C   UNL     1      -0.388  10.126  19.455  0.00  0.00    +0.000 C 
BRANCH  21  23
ATOM     23  C   UNL     1       0.658  11.682  21.073  0.00  0.00    +0.000 C 
BRANCH  23  24
ATOM     24  C   UNL     1      -0.557  12.361  21.714  0.00  0.00    +0.000 C 
BRANCH  24  25
ATOM     25  C   UNL     1      -0.199  13.659  22.294  0.00  0.00    +0.000 C 
ATOM     26  N   UNL     1       0.073  14.694  22.743  0.00  0.00    +0.000 NA
ENDBRANCH  24  25
ENDBRANCH  23  24
ENDBRANCH  21  23
ENDBRANCH  18  19
ENDBRANCH   6  18
TORSDOF 8
ENDMDL
MODEL 6
REMARK VINA RESULT:      -6.6      2.788      4.479
REMARK  Name = 
REMARK  10 active torsions:
REMARK  status: ('A' for Active; 'I' for Inactive)
REMARK    1  A    between atoms: C_1  and  C_2
REMARK    2  A    between atoms: C_2  and  C_3
REMARK    3  A    between atoms: N_5  and  S_6
REMARK    4  A    between atoms: S_6  and  C_9
REMARK    5  A    between atoms: C_17  and  C_18
REMARK    6  A    between atoms: C_18  and  C_19
REMARK    7  A    between atoms: N_21  and  C_22
REMARK    8  A    between atoms: N_21  and  C_23
REMARK    9  A    between atoms: C_23  and  C_24
REMARK   10  A    between atoms: C_24  and  C_25
REMARK                            x       y       z     vdW  Elec       q    Type
REMARK                         _______ _______ _______ _____ _____    ______ ____
ROOT
ATOM      1  C   UNL     1       3.400   6.222  16.965  0.00  0.00    +0.000 C 
ATOM      2  C   UNL     1       4.784   6.164  16.288  0.00  0.00    +0.000 C 
ATOM      3  N   UNL     1       5.724   5.286  17.048  0.00  0.00    +0.000 NA
ATOM      4  C   UNL     1       5.207   3.890  17.152  0.00  0.00    +0.000 C 
ATOM      5  C   UNL     1       3.835   3.868  17.825  0.00  0.00    +0.000 C 
ATOM      6  C   UNL     1       2.829   4.777  17.100  0.00  0.00    +0.000 C 
ENDROOT
BRANCH   3   7
ATOM      7  S   UNL     1       7.337   5.310  16.418  0.00  0.00    +0.000 S 
ATOM      8  O   UNL     1       7.814   6.677  16.432  0.00  0.00    +0.000 OA
ATOM      9  O   UNL     1       8.074   4.254  17.081  0.00  0.00    +0.000 OA
BRANCH   7  10
ATOM     10  C   UNL     1       7.111   4.856  14.716  0.00  0.00    +0.000 A 
ATOM     11  C   UNL     1       7.856   5.521  13.739  0.00  0.00    +0.000 A 
ATOM     12  C   UNL     1       7.704   5.161  12.400  0.00  0.00    +0.000 A 
ATOM     13  C   UNL     1       6.820   4.141  12.046  0.00  0.00    +0.000 A 
ATOM     14  C   UNL     1       6.088   3.469  13.030  0.00  0.00    +0.000 A 
ATOM     15  C   UNL     1       6.233   3.823  14.371  0.00  0.00    +0.000 A 
ENDBRANCH   7  10
ENDBRANCH   3   7
BRANCH   1  17
ATOM     16  C   UNL     1       2.419   8.152  18.379  0.00  0.00    +0.000 C 
ATOM     17  C   UNL     1       3.415   7.005  18.303  0.00  0.00    +0.000 C 
ENDBRANCH   1  17
BRANCH   6  18
ATOM     18  C   UNL     1       1.439   4.767  17.767  0.00  0.00    +0.000 C 
BRANCH  18  19
ATOM     19  C   UNL     1       1.249   3.653  18.781  0.00  0.00    +0.000 C 
ATOM     20  O   UNL     1       0.967   2.520  18.379  0.00  0.00    +0.000 OA
ATOM     21  N   UNL     1       1.400   3.917  20.135  0.00  0.00    +0.000 N 
ATOM     22  C   UNL     1       1.703   5.210  20.748  0.00  0.00    +0.000 C 
BRANCH  21  23
ATOM     23  C   UNL     1       1.213   2.806  21.079  0.00  0.00    +0.000 C 
BRANCH  23  24
ATOM     24  C   UNL     1       2.433   2.465  21.939  0.00  0.00    +0.000 C 
BRANCH  24  25
ATOM     25  C   UNL     1       3.618   2.219  21.111  0.00  0.00    +0.000 C 
ATOM     26  N   UNL     1       4.556   2.042  20.453  0.00  0.00    +0.000 NA
ENDBRANCH  24  25
ENDBRANCH  23  24
ENDBRANCH  21  23
ENDBRANCH  18  19
ENDBRANCH   6  18
TORSDOF 8
ENDMDL
MODEL 7
REMARK VINA RESULT:      -6.6      1.228      1.604
REMARK  Name = 
REMARK  10 active torsions:
REMARK  status: ('A' for Active; 'I' for Inactive)
REMARK    1  A    between atoms: C_1  and  C_2
REMARK    2  A    between atoms: C_2  and  C_3
REMARK    3  A    between atoms: N_5  and  S_6
REMARK    4  A    between atoms: S_6  and  C_9
REMARK    5  A    between atoms: C_17  and  C_18
REMARK    6  A    between atoms: C_18  and  C_19
REMARK    7  A    between atoms: N_21  and  C_22
REMARK    8  A    between atoms: N_21  and  C_23
REMARK    9  A    between atoms: C_23  and  C_24
REMARK   10  A    between atoms: C_24  and  C_25
REMARK                            x       y       z     vdW  Elec       q    Type
REMARK                         _______ _______ _______ _____ _____    ______ ____
ROOT
ATOM      1  C   UNL     1       3.876   5.420  19.084  0.00  0.00    +0.000 C 
ATOM      2  C   UNL     1       5.355   5.357  18.653  0.00  0.00    +0.000 C 
ATOM      3  N   UNL     1       5.519   5.742  17.219  0.00  0.00    +0.000 NA
ATOM      4  C   UNL     1       5.027   7.128  16.964  0.00  0.00    +0.000 C 
ATOM      5  C   UNL     1       3.558   7.263  17.362  0.00  0.00    +0.000 C 
ATOM      6  C   UNL     1       3.322   6.854  18.825  0.00  0.00    +0.000 C 
ENDROOT
BRANCH   3   7
ATOM      7  S   UNL     1       7.139   5.538  16.641  0.00  0.00    +0.000 S 
ATOM      8  O   UNL     1       7.757   6.843  16.539  0.00  0.00    +0.000 OA
ATOM      9  O   UNL     1       7.746   4.481  17.425  0.00  0.00    +0.000 OA
BRANCH   7  10
ATOM     10  C   UNL     1       6.902   4.944  14.984  0.00  0.00    +0.000 A 
ATOM     11  C   UNL     1       5.838   4.075  14.728  0.00  0.00    +0.000 A 
ATOM     12  C   UNL     1       5.627   3.617  13.427  0.00  0.00    +0.000 A 
ATOM     13  C   UNL     1       6.470   4.032  12.394  0.00  0.00    +0.000 A 
ATOM     14  C   UNL     1       7.523   4.913  12.654  0.00  0.00    +0.000 A 
ATOM     15  C   UNL     1       7.742   5.375  13.951  0.00  0.00    +0.000 A 
ENDBRANCH   7  10
ENDBRANCH   3   7
BRANCH   1  17
ATOM     16  C   UNL     1       3.528   2.889  18.683  0.00  0.00    +0.000 C 
ATOM     17  C   UNL     1       3.014   4.302  18.446  0.00  0.00    +0.000 C 
ENDBRANCH   1  17
BRANCH   6  18
ATOM     18  C   UNL     1       1.843   6.984  19.242  0.00  0.00    +0.000 C 
BRANCH  18  19
ATOM     19  C   UNL     1       1.565   8.150  20.174  0.00  0.00    +0.000 C 
ATOM     20  O   UNL     1       1.689   7.985  21.392  0.00  0.00    +0.000 OA
ATOM     21  N   UNL     1       1.187   9.379  19.651  0.00  0.00    +0.000 N 
ATOM     22  C   UNL     1       0.976   9.703  18.241  0.00  0.00    +0.000 C 
BRANCH  21  23
ATOM     23  C   UNL     1       0.935  10.480  20.592  0.00  0.00    +0.000 C 
BRANCH  23  24
ATOM     24  C   UNL     1       0.832  11.870  19.958  0.00  0.00    +0.000 C 
BRANCH  24  25
ATOM     25  C   UNL     1       1.822  12.791  20.526  0.00  0.00    +0.000 C 
ATOM     26  N   UNL     1       2.617  13.506  20.977  0.00  0.00    +0.000 NA
ENDBRANCH  24  25
ENDBRANCH  23  24
ENDBRANCH  21  23
ENDBRANCH  18  19
ENDBRANCH   6  18
TORSDOF 8
ENDMDL
MODEL 8
REMARK VINA RESULT:      -6.6      2.954      3.867
REMARK  Name = 
REMARK  10 active torsions:
REMARK  status: ('A' for Active; 'I' for Inactive)
REMARK    1  A    between atoms: C_1  and  C_2
REMARK    2  A    between atoms: C_2  and  C_3
REMARK    3  A    between atoms: N_5  and  S_6
REMARK    4  A    between atoms: S_6  and  C_9
REMARK    5  A    between atoms: C_17  and  C_18
REMARK    6  A    between atoms: C_18  and  C_19
REMARK    7  A    between atoms: N_21  and  C_22
REMARK    8  A    between atoms: N_21  and  C_23
REMARK    9  A    between atoms: C_23  and  C_24
REMARK   10  A    between atoms: C_24  and  C_25
REMARK                            x       y       z     vdW  Elec       q    Type
REMARK                         _______ _______ _______ _____ _____    ______ ____
ROOT
ATOM      1  C   UNL     1       2.118   5.587  20.606  0.00  0.00    +0.000 C 
ATOM      2  C   UNL     1       3.360   5.023  19.887  0.00  0.00    +0.000 C 
ATOM      3  N   UNL     1       3.308   5.297  18.420  0.00  0.00    +0.000 NA
ATOM      4  C   UNL     1       3.242   6.762  18.137  0.00  0.00    +0.000 C 
ATOM      5  C   UNL     1       2.024   7.389  18.815  0.00  0.00    +0.000 C 
ATOM      6  C   UNL     1       2.008   7.117  20.328  0.00  0.00    +0.000 C 
ENDROOT
BRANCH   3   7
ATOM      7  S   UNL     1       4.601   4.550  17.542  0.00  0.00    +0.000 S 
ATOM      8  O   UNL     1       4.868   3.256  18.133  0.00  0.00    +0.000 OA
ATOM      9  O   UNL     1       4.295   4.680  16.132  0.00  0.00    +0.000 OA
BRANCH   7  10
ATOM     10  C   UNL     1       5.993   5.589  17.914  0.00  0.00    +0.000 A 
ATOM     11  C   UNL     1       6.811   5.253  18.996  0.00  0.00    +0.000 A 
ATOM     12  C   UNL     1       7.919   6.048  19.288  0.00  0.00    +0.000 A 
ATOM     13  C   UNL     1       8.208   7.162  18.499  0.00  0.00    +0.000 A 
ATOM     14  C   UNL     1       7.394   7.485  17.409  0.00  0.00    +0.000 A 
ATOM     15  C   UNL     1       6.284   6.696  17.110  0.00  0.00    +0.000 A 
ENDBRANCH   7  10
ENDBRANCH   3   7
BRANCH   1  17
ATOM     16  C   UNL     1       0.980   3.292  20.248  0.00  0.00    +0.000 C 
ATOM     17  C   UNL     1       0.822   4.806  20.272  0.00  0.00    +0.000 C 
ENDBRANCH   1  17
BRANCH   6  18
ATOM     18  C   UNL     1       0.785   7.743  21.027  0.00  0.00    +0.000 C 
BRANCH  18  19
ATOM     19  C   UNL     1       0.998   9.179  21.475  0.00  0.00    +0.000 C 
ATOM     20  O   UNL     1       1.603   9.392  22.531  0.00  0.00    +0.000 OA
ATOM     21  N   UNL     1       0.523  10.224  20.697  0.00  0.00    +0.000 N 
ATOM     22  C   UNL     1      -0.230  10.115  19.447  0.00  0.00    +0.000 C 
BRANCH  21  23
ATOM     23  C   UNL     1       0.758  11.597  21.168  0.00  0.00    +0.000 C 
BRANCH  23  24
ATOM     24  C   UNL     1       1.236  12.583  20.098  0.00  0.00    +0.000 C 
BRANCH  24  25
ATOM     25  C   UNL     1       2.359  13.393  20.582  0.00  0.00    +0.000 C 
ATOM     26  N   UNL     1       3.257  14.020  20.962  0.00  0.00    +0.000 NA
ENDBRANCH  24  25
ENDBRANCH  23  24
ENDBRANCH  21  23
ENDBRANCH  18  19
ENDBRANCH   6  18
TORSDOF 8
ENDMDL
MODEL 9
REMARK VINA RESULT:      -6.6      2.951      3.816
REMARK  Name = 
REMARK  10 active torsions:
REMARK  status: ('A' for Active; 'I' for Inactive)
REMARK    1  A    between atoms: C_1  and  C_2
REMARK    2  A    between atoms: C_2  and  C_3
REMARK    3  A    between atoms: N_5  and  S_6
REMARK    4  A    between atoms: S_6  and  C_9
REMARK    5  A    between atoms: C_17  and  C_18
REMARK    6  A    between atoms: C_18  and  C_19
REMARK    7  A    between atoms: N_21  and  C_22
REMARK    8  A    between atoms: N_21  and  C_23
REMARK    9  A    between atoms: C_23  and  C_24
REMARK   10  A    between atoms: C_24  and  C_25
REMARK                            x       y       z     vdW  Elec       q    Type
REMARK                         _______ _______ _______ _____ _____    ______ ____
ROOT
ATOM      1  C   UNL     1       2.282   5.698  20.589  0.00  0.00    +0.000 C 
ATOM      2  C   UNL     1       3.512   5.161  19.830  0.00  0.00    +0.000 C 
ATOM      3  N   UNL     1       3.389   5.396  18.360  0.00  0.00    +0.000 NA
ATOM      4  C   UNL     1       3.258   6.849  18.047  0.00  0.00    +0.000 C 
ATOM      5  C   UNL     1       2.048   7.451  18.761  0.00  0.00    +0.000 C 
ATOM      6  C   UNL     1       2.106   7.217  20.279  0.00  0.00    +0.000 C 
ENDROOT
BRANCH   3   7
ATOM      7  S   UNL     1       4.670   4.672  17.446  0.00  0.00    +0.000 S 
ATOM      8  O   UNL     1       4.913   3.345  17.969  0.00  0.00    +0.000 OA
ATOM      9  O   UNL     1       4.369   4.882  16.044  0.00  0.00    +0.000 OA
BRANCH   7  10
ATOM     10  C   UNL     1       6.080   5.665  17.873  0.00  0.00    +0.000 A 
ATOM     11  C   UNL     1       6.355   6.803  17.111  0.00  0.00    +0.000 A 
ATOM     12  C   UNL     1       7.447   7.604  17.448  0.00  0.00    +0.000 A 
ATOM     13  C   UNL     1       8.248   7.270  18.541  0.00  0.00    +0.000 A 
ATOM     14  C   UNL     1       7.958   6.138  19.308  0.00  0.00    +0.000 A 
ATOM     15  C   UNL     1       6.869   5.332  18.979  0.00  0.00    +0.000 A 
ENDBRANCH   7  10
ENDBRANCH   3   7
BRANCH   1  17
ATOM     16  C   UNL     1       1.143   3.377  20.616  0.00  0.00    +0.000 C 
ATOM     17  C   UNL     1       1.002   4.865  20.329  0.00  0.00    +0.000 C 
ENDBRANCH   1  17
BRANCH   6  18
ATOM     18  C   UNL     1       0.892   7.817  21.015  0.00  0.00    +0.000 C 
BRANCH  18  19
ATOM     19  C   UNL     1       1.061   9.278  21.394  0.00  0.00    +0.000 C 
ATOM     20  O   UNL     1       1.758   9.565  22.373  0.00  0.00    +0.000 OA
ATOM     21  N   UNL     1       0.442  10.264  20.640  0.00  0.00    +0.000 N 
ATOM     22  C   UNL     1      -0.429  10.065  19.481  0.00  0.00    +0.000 C 
BRANCH  21  23
ATOM     23  C   UNL     1       0.639  11.665  21.041  0.00  0.00    +0.000 C 
BRANCH  23  24
ATOM     24  C   UNL     1       1.564  12.482  20.134  0.00  0.00    +0.000 C 
BRANCH  24  25
ATOM     25  C   UNL     1       0.835  13.562  19.463  0.00  0.00    +0.000 C 
ATOM     26  N   UNL     1       0.247  14.406  18.926  0.00  0.00    +0.000 NA
ENDBRANCH  24  25
ENDBRANCH  23  24
ENDBRANCH  21  23
ENDBRANCH  18  19
ENDBRANCH   6  18
TORSDOF 8
ENDMDL
