MODEL 1
REMARK VINA RESULT:      -4.9      0.000      0.000
REMARK  Name = 
REMARK  11 active torsions:
REMARK  status: ('A' for Active; 'I' for Inactive)
REMARK    1  A    between atoms: C_1  and  C_2
REMARK    2  A    between atoms: C_2  and  C_4
REMARK    3  A    between atoms: C_4  and  C_5
REMARK    4  A    between atoms: C_5  and  C_6
REMARK    5  A    between atoms: C_6  and  C_7
REMARK    6  A    between atoms: C_7  and  C_8
REMARK    7  A    between atoms: C_8  and  N_9
REMARK    8  A    between atoms: N_9  and  C_10
REMARK    9  A    between atoms: C_10  and  C_11
REMARK   10  A    between atoms: C_11  and  C_12
REMARK   11  A    between atoms: C_12  and  N_13
REMARK                            x       y       z     vdW  Elec       q    Type
REMARK                         _______ _______ _______ _____ _____    ______ ____
ROOT
ATOM      1  C   UNL     1       4.537   3.917  18.920  0.00  0.00    +0.000 C 
ENDROOT
BRANCH   1   2
ATOM      2  N   UNL     1       5.961   3.788  18.593  0.00  0.00    +0.000 NA
ATOM      3  H   UNL     1       6.219   2.772  18.614  0.00  0.00    +0.000 HD
BRANCH   2   4
ATOM      4  C   UNL     1       6.252   4.321  17.261  0.00  0.00    +0.000 C 
BRANCH   4   5
ATOM      5  C   UNL     1       7.567   5.104  17.301  0.00  0.00    +0.000 C 
BRANCH   5   6
ATOM      6  C   UNL     1       7.562   6.138  18.428  0.00  0.00    +0.000 C 
BRANCH   6   7
ATOM      7  N   UNL     1       8.054   5.538  19.662  0.00  0.00    +0.000 NA
ATOM      8  H   UNL     1       8.010   4.495  19.579  0.00  0.00    +0.000 HD
ATOM      9  H   UNL     1       7.421   5.822  20.444  0.00  0.00    +0.000 HD
ENDBRANCH   6   7
ENDBRANCH   5   6
ENDBRANCH   4   5
ENDBRANCH   2   4
ENDBRANCH   1   2
BRANCH   1  10
ATOM     10  C   UNL     1       3.772   4.256  17.643  0.00  0.00    +0.000 C 
BRANCH  10  11
ATOM     11  C   UNL     1       2.637   3.260  17.357  0.00  0.00    +0.000 C 
BRANCH  11  12
ATOM     12  C   UNL     1       1.281   3.752  17.902  0.00  0.00    +0.000 C 
BRANCH  12  13
ATOM     13  C   UNL     1       0.771   2.894  19.071  0.00  0.00    +0.000 C 
BRANCH  13  15
ATOM     14  C   UNL     1       1.582   2.567  21.517  0.00  0.00    +0.000 C 
ATOM     15  C   UNL     1       1.162   3.470  20.401  0.00  0.00    +0.000 C 
ATOM     16  O   UNL     1       1.104   4.677  20.584  0.00  0.00    +0.000 OA
ENDBRANCH  13  15
ENDBRANCH  12  13
ENDBRANCH  11  12
ENDBRANCH  10  11
ENDBRANCH   1  10
TORSDOF 10
ENDMDL
MODEL 2
REMARK VINA RESULT:      -4.8      1.410      1.624
REMARK  Name = 
REMARK  11 active torsions:
REMARK  status: ('A' for Active; 'I' for Inactive)
REMARK    1  A    between atoms: C_1  and  C_2
REMARK    2  A    between atoms: C_2  and  C_4
REMARK    3  A    between atoms: C_4  and  C_5
REMARK    4  A    between atoms: C_5  and  C_6
REMARK    5  A    between atoms: C_6  and  C_7
REMARK    6  A    between atoms: C_7  and  C_8
REMARK    7  A    between atoms: C_8  and  N_9
REMARK    8  A    between atoms: N_9  and  C_10
REMARK    9  A    between atoms: C_10  and  C_11
REMARK   10  A    between atoms: C_11  and  C_12
REMARK   11  A    between atoms: C_12  and  N_13
REMARK                            x       y       z     vdW  Elec       q    Type
REMARK                         _______ _______ _______ _____ _____    ______ ____
ROOT
ATOM      1  C   UNL     1       4.208   3.273  17.957  0.00  0.00    +0.000 C 
ENDROOT
BRANCH   1   2
ATOM      2  N   UNL     1       5.290   3.587  18.895  0.00  0.00    +0.000 NA
ATOM      3  H   UNL     1       6.005   2.822  18.851  0.00  0.00    +0.000 HD
BRANCH   2   4
ATOM      4  C   UNL     1       5.937   4.856  18.556  0.00  0.00    +0.000 C 
BRANCH   4   5
ATOM      5  C   UNL     1       7.257   4.578  17.831  0.00  0.00    +0.000 C 
BRANCH   5   6
ATOM      6  C   UNL     1       7.082   4.653  16.314  0.00  0.00    +0.000 C 
BRANCH   6   7
ATOM      7  N   UNL     1       7.296   6.018  15.850  0.00  0.00    +0.000 NA
ATOM      8  H   UNL     1       7.472   6.007  14.819  0.00  0.00    +0.000 HD
ATOM      9  H   UNL     1       8.152   6.396  16.316  0.00  0.00    +0.000 HD
ENDBRANCH   6   7
ENDBRANCH   5   6
ENDBRANCH   4   5
ENDBRANCH   2   4
ENDBRANCH   1   2
BRANCH   1  10
ATOM     10  C   UNL     1       3.394   4.541  17.709  0.00  0.00    +0.000 C 
BRANCH  10  11
ATOM     11  C   UNL     1       1.885   4.262  17.625  0.00  0.00    +0.000 C 
BRANCH  11  12
ATOM     12  C   UNL     1       1.456   3.099  18.540  0.00  0.00    +0.000 C 
BRANCH  12  13
ATOM     13  C   UNL     1       0.843   3.586  19.863  0.00  0.00    +0.000 C 
BRANCH  13  15
ATOM     14  C   UNL     1       2.468   2.668  21.671  0.00  0.00    +0.000 C 
ATOM     15  C   UNL     1       1.891   3.821  20.913  0.00  0.00    +0.000 C 
ATOM     16  O   UNL     1       2.248   4.960  21.173  0.00  0.00    +0.000 OA
ENDBRANCH  13  15
ENDBRANCH  12  13
ENDBRANCH  11  12
ENDBRANCH  10  11
ENDBRANCH   1  10
TORSDOF 10
ENDMDL
MODEL 3
REMARK VINA RESULT:      -4.7      1.550      1.774
REMARK  Name = 
REMARK  11 active torsions:
REMARK  status: ('A' for Active; 'I' for Inactive)
REMARK    1  A    between atoms: C_1  and  C_2
REMARK    2  A    between atoms: C_2  and  C_4
REMARK    3  A    between atoms: C_4  and  C_5
REMARK    4  A    between atoms: C_5  and  C_6
REMARK    5  A    between atoms: C_6  and  C_7
REMARK    6  A    between atoms: C_7  and  C_8
REMARK    7  A    between atoms: C_8  and  N_9
REMARK    8  A    between atoms: N_9  and  C_10
REMARK    9  A    between atoms: C_10  and  C_11
REMARK   10  A    between atoms: C_11  and  C_12
REMARK   11  A    between atoms: C_12  and  N_13
REMARK                            x       y       z     vdW  Elec       q    Type
REMARK                         _______ _______ _______ _____ _____    ______ ____
ROOT
ATOM      1  C   UNL     1       4.037   4.350  17.857  0.00  0.00    +0.000 C 
ENDROOT
BRANCH   1   2
ATOM      2  N   UNL     1       5.081   4.672  16.879  0.00  0.00    +0.000 NA
ATOM      3  H   UNL     1       4.722   4.450  15.920  0.00  0.00    +0.000 HD
BRANCH   2   4
ATOM      4  C   UNL     1       5.441   6.089  16.931  0.00  0.00    +0.000 C 
BRANCH   4   5
ATOM      5  C   UNL     1       6.956   6.225  17.108  0.00  0.00    +0.000 C 
BRANCH   5   6
ATOM      6  C   UNL     1       7.471   5.297  18.208  0.00  0.00    +0.000 C 
BRANCH   6   7
ATOM      7  N   UNL     1       8.102   4.122  17.619  0.00  0.00    +0.000 NA
ATOM      8  H   UNL     1       7.494   3.287  17.784  0.00  0.00    +0.000 HD
ATOM      9  H   UNL     1       9.012   3.956  18.105  0.00  0.00    +0.000 HD
ENDBRANCH   6   7
ENDBRANCH   5   6
ENDBRANCH   4   5
ENDBRANCH   2   4
ENDBRANCH   1   2
BRANCH   1  10
ATOM     10  C   UNL     1       3.763   2.849  17.801  0.00  0.00    +0.000 C 
BRANCH  10  11
ATOM     11  C   UNL     1       2.261   2.525  17.852  0.00  0.00    +0.000 C 
BRANCH  11  12
ATOM     12  C   UNL     1       1.830   1.981  19.228  0.00  0.00    +0.000 C 
BRANCH  12  13
ATOM     13  C   UNL     1       0.905   2.951  19.981  0.00  0.00    +0.000 C 
BRANCH  13  15
ATOM     14  C   UNL     1       1.991   5.174  20.777  0.00  0.00    +0.000 C 
ATOM     15  C   UNL     1       1.648   3.738  21.022  0.00  0.00    +0.000 C 
ATOM     16  O   UNL     1       2.005   3.196  22.057  0.00  0.00    +0.000 OA
ENDBRANCH  13  15
ENDBRANCH  12  13
ENDBRANCH  11  12
ENDBRANCH  10  11
ENDBRANCH   1  10
TORSDOF 10
ENDMDL
MODEL 4
REMARK VINA RESULT:      -4.7      1.019      1.235
REMARK  Name = 
REMARK  11 active torsions:
REMARK  status: ('A' for Active; 'I' for Inactive)
REMARK    1  A    between atoms: C_1  and  C_2
REMARK    2  A    between atoms: C_2  and  C_4
REMARK    3  A    between atoms: C_4  and  C_5
REMARK    4  A    between atoms: C_5  and  C_6
REMARK    5  A    between atoms: C_6  and  C_7
REMARK    6  A    between atoms: C_7  and  C_8
REMARK    7  A    between atoms: C_8  and  N_9
REMARK    8  A    between atoms: N_9  and  C_10
REMARK    9  A    between atoms: C_10  and  C_11
REMARK   10  A    between atoms: C_11  and  C_12
REMARK   11  A    between atoms: C_12  and  N_13
REMARK                            x       y       z     vdW  Elec       q    Type
REMARK                         _______ _______ _______ _____ _____    ______ ____
ROOT
ATOM      1  C   UNL     1       4.914   4.274  16.380  0.00  0.00    +0.000 C 
ENDROOT
BRANCH   1   2
ATOM      2  N   UNL     1       6.208   4.766  16.864  0.00  0.00    +0.000 NA
ATOM      3  H   UNL     1       6.964   4.383  16.247  0.00  0.00    +0.000 HD
BRANCH   2   4
ATOM      4  C   UNL     1       6.269   6.228  16.831  0.00  0.00    +0.000 C 
BRANCH   4   5
ATOM      5  C   UNL     1       7.346   6.716  17.804  0.00  0.00    +0.000 C 
BRANCH   5   6
ATOM      6  C   UNL     1       7.804   5.592  18.734  0.00  0.00    +0.000 C 
BRANCH   6   7
ATOM      7  N   UNL     1       6.791   5.337  19.750  0.00  0.00    +0.000 NA
ATOM      8  H   UNL     1       5.939   4.937  19.294  0.00  0.00    +0.000 HD
ATOM      9  H   UNL     1       6.522   6.248  20.186  0.00  0.00    +0.000 HD
ENDBRANCH   6   7
ENDBRANCH   5   6
ENDBRANCH   4   5
ENDBRANCH   2   4
ENDBRANCH   1   2
BRANCH   1  10
ATOM     10  C   UNL     1       3.963   4.154  17.569  0.00  0.00    +0.000 C 
BRANCH  10  11
ATOM     11  C   UNL     1       2.682   3.382  17.219  0.00  0.00    +0.000 C 
BRANCH  11  12
ATOM     12  C   UNL     1       1.461   3.891  18.011  0.00  0.00    +0.000 C 
BRANCH  12  13
ATOM     13  C   UNL     1       1.037   2.922  19.126  0.00  0.00    +0.000 C 
BRANCH  13  15
ATOM     14  C   UNL     1       1.520   2.635  21.663  0.00  0.00    +0.000 C 
ATOM     15  C   UNL     1       1.233   3.519  20.490  0.00  0.00    +0.000 C 
ATOM     16  O   UNL     1       1.123   4.725  20.650  0.00  0.00    +0.000 OA
ENDBRANCH  13  15
ENDBRANCH  12  13
ENDBRANCH  11  12
ENDBRANCH  10  11
ENDBRANCH   1  10
TORSDOF 10
ENDMDL
MODEL 5
REMARK VINA RESULT:      -4.7      1.197      1.311
REMARK  Name = 
REMARK  11 active torsions:
REMARK  status: ('A' for Active; 'I' for Inactive)
REMARK    1  A    between atoms: C_1  and  C_2
REMARK    2  A    between atoms: C_2  and  C_4
REMARK    3  A    between atoms: C_4  and  C_5
REMARK    4  A    between atoms: C_5  and  C_6
REMARK    5  A    between atoms: C_6  and  C_7
REMARK    6  A    between atoms: C_7  and  C_8
REMARK    7  A    between atoms: C_8  and  N_9
REMARK    8  A    between atoms: N_9  and  C_10
REMARK    9  A    between atoms: C_10  and  C_11
REMARK   10  A    between atoms: C_11  and  C_12
REMARK   11  A    between atoms: C_12  and  N_13
REMARK                            x       y       z     vdW  Elec       q    Type
REMARK                         _______ _______ _______ _____ _____    ______ ____
ROOT
ATOM      1  C   UNL     1       3.954   3.369  17.935  0.00  0.00    +0.000 C 
ENDROOT
BRANCH   1   2
ATOM      2  N   UNL     1       5.191   3.415  17.150  0.00  0.00    +0.000 NA
ATOM      3  H   UNL     1       5.263   2.535  16.584  0.00  0.00    +0.000 HD
BRANCH   2   4
ATOM      4  C   UNL     1       5.204   4.561  16.241  0.00  0.00    +0.000 C 
BRANCH   4   5
ATOM      5  C   UNL     1       6.476   5.382  16.471  0.00  0.00    +0.000 C 
BRANCH   5   6
ATOM      6  C   UNL     1       7.541   4.561  17.199  0.00  0.00    +0.000 C 
BRANCH   6   7
ATOM      7  N   UNL     1       7.499   4.839  18.628  0.00  0.00    +0.000 NA
ATOM      8  H   UNL     1       7.357   5.865  18.775  0.00  0.00    +0.000 HD
ATOM      9  H   UNL     1       8.424   4.583  19.043  0.00  0.00    +0.000 HD
ENDBRANCH   6   7
ENDBRANCH   5   6
ENDBRANCH   4   5
ENDBRANCH   2   4
ENDBRANCH   1   2
BRANCH   1  10
ATOM     10  C   UNL     1       3.112   4.595  17.590  0.00  0.00    +0.000 C 
BRANCH  10  11
ATOM     11  C   UNL     1       1.604   4.322  17.703  0.00  0.00    +0.000 C 
BRANCH  11  12
ATOM     12  C   UNL     1       1.300   3.088  18.575  0.00  0.00    +0.000 C 
BRANCH  12  13
ATOM     13  C   UNL     1       0.723   3.466  19.949  0.00  0.00    +0.000 C 
BRANCH  13  15
ATOM     14  C   UNL     1       2.457   2.662  21.710  0.00  0.00    +0.000 C 
ATOM     15  C   UNL     1       1.804   3.771  20.946  0.00  0.00    +0.000 C 
ATOM     16  O   UNL     1       2.127   4.930  21.159  0.00  0.00    +0.000 OA
ENDBRANCH  13  15
ENDBRANCH  12  13
ENDBRANCH  11  12
ENDBRANCH  10  11
ENDBRANCH   1  10
TORSDOF 10
ENDMDL
MODEL 6
REMARK VINA RESULT:      -4.7      3.240      5.762
REMARK  Name = 
REMARK  11 active torsions:
REMARK  status: ('A' for Active; 'I' for Inactive)
REMARK    1  A    between atoms: C_1  and  C_2
REMARK    2  A    between atoms: C_2  and  C_4
REMARK    3  A    between atoms: C_4  and  C_5
REMARK    4  A    between atoms: C_5  and  C_6
REMARK    5  A    between atoms: C_6  and  C_7
REMARK    6  A    between atoms: C_7  and  C_8
REMARK    7  A    between atoms: C_8  and  N_9
REMARK    8  A    between atoms: N_9  and  C_10
REMARK    9  A    between atoms: C_10  and  C_11
REMARK   10  A    between atoms: C_11  and  C_12
REMARK   11  A    between atoms: C_12  and  N_13
REMARK                            x       y       z     vdW  Elec       q    Type
REMARK                         _______ _______ _______ _____ _____    ______ ____
ROOT
ATOM      1  C   UNL     1       2.615   2.207  17.667  0.00  0.00    +0.000 C 
ENDROOT
BRANCH   1   2
ATOM      2  N   UNL     1       2.533   2.294  19.128  0.00  0.00    +0.000 NA
ATOM      3  H   UNL     1       3.103   3.113  19.449  0.00  0.00    +0.000 HD
BRANCH   2   4
ATOM      4  C   UNL     1       1.151   2.479  19.574  0.00  0.00    +0.000 C 
BRANCH   4   5
ATOM      5  C   UNL     1       1.019   3.831  20.280  0.00  0.00    +0.000 C 
BRANCH   5   6
ATOM      6  C   UNL     1       2.173   4.063  21.255  0.00  0.00    +0.000 C 
BRANCH   6   7
ATOM      7  N   UNL     1       2.347   2.897  22.113  0.00  0.00    +0.000 NA
ATOM      8  H   UNL     1       3.168   3.054  22.743  0.00  0.00    +0.000 HD
ATOM      9  H   UNL     1       2.562   2.071  21.509  0.00  0.00    +0.000 HD
ENDBRANCH   6   7
ENDBRANCH   5   6
ENDBRANCH   4   5
ENDBRANCH   2   4
ENDBRANCH   1   2
BRANCH   1  10
ATOM     10  C   UNL     1       2.837   3.610  17.107  0.00  0.00    +0.000 C 
BRANCH  10  11
ATOM     11  C   UNL     1       4.248   4.143  17.401  0.00  0.00    +0.000 C 
BRANCH  11  12
ATOM     12  C   UNL     1       4.318   5.681  17.322  0.00  0.00    +0.000 C 
BRANCH  12  13
ATOM     13  C   UNL     1       5.210   6.171  16.171  0.00  0.00    +0.000 C 
BRANCH  13  15
ATOM     14  C   UNL     1       7.215   6.304  17.819  0.00  0.00    +0.000 C 
ATOM     15  C   UNL     1       6.668   5.970  16.466  0.00  0.00    +0.000 C 
ATOM     16  O   UNL     1       7.417   5.564  15.590  0.00  0.00    +0.000 OA
ENDBRANCH  13  15
ENDBRANCH  12  13
ENDBRANCH  11  12
ENDBRANCH  10  11
ENDBRANCH   1  10
TORSDOF 10
ENDMDL
MODEL 7
REMARK VINA RESULT:      -4.7      1.648      1.869
REMARK  Name = 
REMARK  11 active torsions:
REMARK  status: ('A' for Active; 'I' for Inactive)
REMARK    1  A    between atoms: C_1  and  C_2
REMARK    2  A    between atoms: C_2  and  C_4
REMARK    3  A    between atoms: C_4  and  C_5
REMARK    4  A    between atoms: C_5  and  C_6
REMARK    5  A    between atoms: C_6  and  C_7
REMARK    6  A    between atoms: C_7  and  C_8
REMARK    7  A    between atoms: C_8  and  N_9
REMARK    8  A    between atoms: N_9  and  C_10
REMARK    9  A    between atoms: C_10  and  C_11
REMARK   10  A    between atoms: C_11  and  C_12
REMARK   11  A    between atoms: C_12  and  N_13
REMARK                            x       y       z     vdW  Elec       q    Type
REMARK                         _______ _______ _______ _____ _____    ______ ____
ROOT
ATOM      1  C   UNL     1       4.456   4.202  17.434  0.00  0.00    +0.000 C 
ENDROOT
BRANCH   1   2
ATOM      2  N   UNL     1       5.498   3.514  16.666  0.00  0.00    +0.000 NA
ATOM      3  H   UNL     1       5.085   3.183  15.761  0.00  0.00    +0.000 HD
BRANCH   2   4
ATOM      4  C   UNL     1       6.622   4.405  16.374  0.00  0.00    +0.000 C 
BRANCH   4   5
ATOM      5  C   UNL     1       7.423   4.654  17.655  0.00  0.00    +0.000 C 
BRANCH   5   6
ATOM      6  C   UNL     1       7.513   6.147  17.971  0.00  0.00    +0.000 C 
BRANCH   6   7
ATOM      7  N   UNL     1       7.563   6.920  16.736  0.00  0.00    +0.000 NA
ATOM      8  H   UNL     1       8.448   7.477  16.716  0.00  0.00    +0.000 HD
ATOM      9  H   UNL     1       6.762   7.592  16.734  0.00  0.00    +0.000 HD
ENDBRANCH   6   7
ENDBRANCH   5   6
ENDBRANCH   4   5
ENDBRANCH   2   4
ENDBRANCH   1   2
BRANCH   1  10
ATOM     10  C   UNL     1       3.122   3.507  17.178  0.00  0.00    +0.000 C 
BRANCH  10  11
ATOM     11  C   UNL     1       3.055   2.111  17.817  0.00  0.00    +0.000 C 
BRANCH  11  12
ATOM     12  C   UNL     1       3.179   2.168  19.352  0.00  0.00    +0.000 C 
BRANCH  12  13
ATOM     13  C   UNL     1       1.831   2.432  20.042  0.00  0.00    +0.000 C 
BRANCH  13  15
ATOM     14  C   UNL     1       1.824   4.948  20.694  0.00  0.00    +0.000 C 
ATOM     15  C   UNL     1       1.937   3.508  21.085  0.00  0.00    +0.000 C 
ATOM     16  O   UNL     1       2.152   3.209  22.250  0.00  0.00    +0.000 OA
ENDBRANCH  13  15
ENDBRANCH  12  13
ENDBRANCH  11  12
ENDBRANCH  10  11
ENDBRANCH   1  10
TORSDOF 10
ENDMDL
MODEL 8
REMARK VINA RESULT:      -4.7      1.233      1.511
REMARK  Name = 
REMARK  11 active torsions:
REMARK  status: ('A' for Active; 'I' for Inactive)
REMARK    1  A    between atoms: C_1  and  C_2
REMARK    2  A    between atoms: C_2  and  C_4
REMARK    3  A    between atoms: C_4  and  C_5
REMARK    4  A    between atoms: C_5  and  C_6
REMARK    5  A    between atoms: C_6  and  C_7
REMARK    6  A    between atoms: C_7  and  C_8
REMARK    7  A    between atoms: C_8  and  N_9
REMARK    8  A    between atoms: N_9  and  C_10
REMARK    9  A    between atoms: C_10  and  C_11
REMARK   10  A    between atoms: C_11  and  C_12
REMARK   11  A    between atoms: C_12  and  N_13
REMARK                            x       y       z     vdW  Elec       q    Type
REMARK                         _______ _______ _______ _____ _____    ______ ____
ROOT
ATOM      1  C   UNL     1       5.526   3.901  16.495  0.00  0.00    +0.000 C 
ENDROOT
BRANCH   1   2
ATOM      2  N   UNL     1       6.703   4.325  17.260  0.00  0.00    +0.000 NA
ATOM      3  H   UNL     1       7.486   3.655  17.068  0.00  0.00    +0.000 HD
BRANCH   2   4
ATOM      4  C   UNL     1       7.130   5.671  16.877  0.00  0.00    +0.000 C 
BRANCH   4   5
ATOM      5  C   UNL     1       7.537   6.453  18.130  0.00  0.00    +0.000 C 
BRANCH   5   6
ATOM      6  C   UNL     1       7.164   5.693  19.403  0.00  0.00    +0.000 C 
BRANCH   6   7
ATOM      7  N   UNL     1       8.368   5.288  20.117  0.00  0.00    +0.000 NA
ATOM      8  H   UNL     1       8.988   4.750  19.467  0.00  0.00    +0.000 HD
ATOM      9  H   UNL     1       8.092   4.649  20.897  0.00  0.00    +0.000 HD
ENDBRANCH   6   7
ENDBRANCH   5   6
ENDBRANCH   4   5
ENDBRANCH   2   4
ENDBRANCH   1   2
BRANCH   1  10
ATOM     10  C   UNL     1       4.297   4.612  17.057  0.00  0.00    +0.000 C 
BRANCH  10  11
ATOM     11  C   UNL     1       3.064   3.697  17.113  0.00  0.00    +0.000 C 
BRANCH  11  12
ATOM     12  C   UNL     1       1.843   4.404  17.734  0.00  0.00    +0.000 C 
BRANCH  12  13
ATOM     13  C   UNL     1       1.885   4.410  19.271  0.00  0.00    +0.000 C 
BRANCH  13  15
ATOM     14  C   UNL     1       1.386   2.863  21.298  0.00  0.00    +0.000 C 
ATOM     15  C   UNL     1       1.200   3.208  19.854  0.00  0.00    +0.000 C 
ATOM     16  O   UNL     1       0.516   2.489  19.140  0.00  0.00    +0.000 OA
ENDBRANCH  13  15
ENDBRANCH  12  13
ENDBRANCH  11  12
ENDBRANCH  10  11
ENDBRANCH   1  10
TORSDOF 10
ENDMDL
MODEL 9
REMARK VINA RESULT:      -4.6      1.519      1.836
REMARK  Name = 
REMARK  11 active torsions:
REMARK  status: ('A' for Active; 'I' for Inactive)
REMARK    1  A    between atoms: C_1  and  C_2
REMARK    2  A    between atoms: C_2  and  C_4
REMARK    3  A    between atoms: C_4  and  C_5
REMARK    4  A    between atoms: C_5  and  C_6
REMARK    5  A    between atoms: C_6  and  C_7
REMARK    6  A    between atoms: C_7  and  C_8
REMARK    7  A    between atoms: C_8  and  N_9
REMARK    8  A    between atoms: N_9  and  C_10
REMARK    9  A    between atoms: C_10  and  C_11
REMARK   10  A    between atoms: C_11  and  C_12
REMARK   11  A    between atoms: C_12  and  N_13
REMARK                            x       y       z     vdW  Elec       q    Type
REMARK                         _______ _______ _______ _____ _____    ______ ____
ROOT
ATOM      1  C   UNL     1       4.455   3.632  17.115  0.00  0.00    +0.000 C 
ENDROOT
BRANCH   1   2
ATOM      2  N   UNL     1       4.631   5.086  17.046  0.00  0.00    +0.000 NA
ATOM      3  H   UNL     1       3.835   5.495  16.501  0.00  0.00    +0.000 HD
BRANCH   2   4
ATOM      4  C   UNL     1       4.643   5.685  18.382  0.00  0.00    +0.000 C 
BRANCH   4   5
ATOM      5  C   UNL     1       5.714   5.002  19.237  0.00  0.00    +0.000 C 
BRANCH   5   6
ATOM      6  C   UNL     1       7.085   5.643  19.025  0.00  0.00    +0.000 C 
BRANCH   6   7
ATOM      7  N   UNL     1       7.902   5.490  20.222  0.00  0.00    +0.000 NA
ATOM      8  H   UNL     1       7.278   5.443  21.061  0.00  0.00    +0.000 HD
ATOM      9  H   UNL     1       8.507   6.337  20.321  0.00  0.00    +0.000 HD
ENDBRANCH   6   7
ENDBRANCH   5   6
ENDBRANCH   4   5
ENDBRANCH   2   4
ENDBRANCH   1   2
BRANCH   1  10
ATOM     10  C   UNL     1       2.997   3.333  17.454  0.00  0.00    +0.000 C 
BRANCH  10  11
ATOM     11  C   UNL     1       2.858   2.339  18.617  0.00  0.00    +0.000 C 
BRANCH  11  12
ATOM     12  C   UNL     1       1.384   2.009  18.927  0.00  0.00    +0.000 C 
BRANCH  12  13
ATOM     13  C   UNL     1       0.706   3.089  19.784  0.00  0.00    +0.000 C 
BRANCH  13  15
ATOM     14  C   UNL     1       2.254   4.644  21.177  0.00  0.00    +0.000 C 
ATOM     15  C   UNL     1       1.477   3.372  21.041  0.00  0.00    +0.000 C 
ATOM     16  O   UNL     1       1.498   2.547  21.942  0.00  0.00    +0.000 OA
ENDBRANCH  13  15
ENDBRANCH  12  13
ENDBRANCH  11  12
ENDBRANCH  10  11
ENDBRANCH   1  10
TORSDOF 10
ENDMDL
