MODEL 1
REMARK VINA RESULT:      -9.2      0.000      0.000
REMARK  Name = 
REMARK  7 active torsions:
REMARK  status: ('A' for Active; 'I' for Inactive)
REMARK    1  A    between atoms: S_2  and  N_4
REMARK    2  A    between atoms: S_2  and  C_25
REMARK    3  A    between atoms: N_4  and  C_5
REMARK    4  A    between atoms: C_8  and  C_9
REMARK    5  A    between atoms: C_9  and  C_10
REMARK    6  A    between atoms: C_10  and  N_11
REMARK    7  A    between atoms: C_14  and  N_15
REMARK                            x       y       z     vdW  Elec       q    Type
REMARK                         _______ _______ _______ _____ _____    ______ ____
ROOT
ATOM      1  C   UNL     1       5.982   4.993  17.465  0.00  0.00    +0.000 A 
ATOM      2  C   UNL     1       6.868   4.811  18.529  0.00  0.00    +0.000 A 
ATOM      3  C   UNL     1       7.729   5.849  18.885  0.00  0.00    +0.000 A 
ATOM      4  C   UNL     1       7.718   7.062  18.175  0.00  0.00    +0.000 A 
ATOM      5  C   UNL     1       6.821   7.225  17.115  0.00  0.00    +0.000 A 
ATOM      6  C   UNL     1       5.962   6.191  16.759  0.00  0.00    +0.000 A 
ENDROOT
BRANCH   1   7
ATOM      7  N   UNL     1       5.059   3.985  17.120  0.00  0.00    +0.000 N 
ATOM      8  H   UNL     1       5.235   3.383  16.321  0.00  0.00    +0.000 HD
BRANCH   7  10
ATOM      9  O   UNL     1       3.221   2.381  17.668  0.00  0.00    +0.000 OA
ATOM     10  S   UNL     1       4.117   3.304  18.329  0.00  0.00    +0.000 S 
ATOM     11  O   UNL     1       4.961   2.865  19.425  0.00  0.00    +0.000 OA
BRANCH  10  12
ATOM     12  C   UNL     1       3.151   4.690  18.880  0.00  0.00    +0.000 A 
ATOM     13  C   UNL     1       2.714   4.719  20.203  0.00  0.00    +0.000 A 
ATOM     14  C   UNL     1       2.108   5.872  20.698  0.00  0.00    +0.000 A 
ATOM     15  C   UNL     1       1.941   6.999  19.878  0.00  0.00    +0.000 A 
ATOM     16  C   UNL     1       1.459   8.206  20.406  0.00  0.00    +0.000 A 
ATOM     17  C   UNL     1       1.298   9.326  19.591  0.00  0.00    +0.000 A 
ATOM     18  C   UNL     1       1.560   9.235  18.228  0.00  0.00    +0.000 A 
ATOM     19  C   UNL     1       2.050   8.044  17.687  0.00  0.00    +0.000 A 
ATOM     20  C   UNL     1       2.296   6.932  18.510  0.00  0.00    +0.000 A 
ATOM     21  C   UNL     1       2.917   5.771  18.022  0.00  0.00    +0.000 A 
ENDBRANCH  10  12
ENDBRANCH   7  10
ENDBRANCH   1   7
BRANCH   4  22
ATOM     22  C   UNL     1       8.609   8.210  18.585  0.00  0.00    +0.000 C 
BRANCH  22  23
ATOM     23  C   UNL     1       8.212   9.542  17.930  0.00  0.00    +0.000 C 
BRANCH  23  24
ATOM     24  N   UNL     1       9.186  10.638  18.156  0.00  0.00    +0.000 NA
ATOM     25  C   UNL     1       8.614  11.933  17.763  0.00  0.00    +0.000 C 
ATOM     26  C   UNL     1       9.435  13.137  18.202  0.00  0.00    +0.000 C 
ATOM     27  C   UNL     1       9.759  13.155  19.705  0.00  0.00    +0.000 C 
ATOM     28  C   UNL     1      10.418  11.806  20.041  0.00  0.00    +0.000 C 
ATOM     29  C   UNL     1       9.637  10.582  19.556  0.00  0.00    +0.000 C 
BRANCH  27  30
ATOM     30  N   UNL     1       8.702  13.617  20.648  0.00  0.00    +0.000 NA
ATOM     31  C   UNL     1       9.230  13.821  22.006  0.00  0.00    +0.000 C 
ATOM     32  C   UNL     1       8.152  14.204  23.020  0.00  0.00    +0.000 C 
ATOM     33  C   UNL     1       7.410  15.448  22.563  0.00  0.00    +0.000 C 
ATOM     34  C   UNL     1       6.793  15.177  21.204  0.00  0.00    +0.000 C 
ATOM     35  C   UNL     1       7.846  14.714  20.194  0.00  0.00    +0.000 C 
ENDBRANCH  27  30
ENDBRANCH  23  24
ENDBRANCH  22  23
ENDBRANCH   4  22
TORSDOF 7
ENDMDL
MODEL 2
REMARK VINA RESULT:      -9.1      4.426      8.037
REMARK  Name = 
REMARK  7 active torsions:
REMARK  status: ('A' for Active; 'I' for Inactive)
REMARK    1  A    between atoms: S_2  and  N_4
REMARK    2  A    between atoms: S_2  and  C_25
REMARK    3  A    between atoms: N_4  and  C_5
REMARK    4  A    between atoms: C_8  and  C_9
REMARK    5  A    between atoms: C_9  and  C_10
REMARK    6  A    between atoms: C_10  and  N_11
REMARK    7  A    between atoms: C_14  and  N_15
REMARK                            x       y       z     vdW  Elec       q    Type
REMARK                         _______ _______ _______ _____ _____    ______ ____
ROOT
ATOM      1  C   UNL     1       1.981   4.705  19.222  0.00  0.00    +0.000 A 
ATOM      2  C   UNL     1       1.602   4.994  20.534  0.00  0.00    +0.000 A 
ATOM      3  C   UNL     1       1.505   6.325  20.939  0.00  0.00    +0.000 A 
ATOM      4  C   UNL     1       1.799   7.368  20.043  0.00  0.00    +0.000 A 
ATOM      5  C   UNL     1       2.174   7.057  18.732  0.00  0.00    +0.000 A 
ATOM      6  C   UNL     1       2.271   5.730  18.328  0.00  0.00    +0.000 A 
ENDROOT
BRANCH   1   7
ATOM      7  N   UNL     1       2.029   3.371  18.766  0.00  0.00    +0.000 N 
ATOM      8  H   UNL     1       1.424   3.069  18.009  0.00  0.00    +0.000 HD
BRANCH   7  10
ATOM      9  O   UNL     1       3.744   2.441  20.330  0.00  0.00    +0.000 OA
ATOM     10  S   UNL     1       3.465   2.519  18.913  0.00  0.00    +0.000 S 
ATOM     11  O   UNL     1       3.412   1.318  18.099  0.00  0.00    +0.000 OA
BRANCH  10  12
ATOM     12  C   UNL     1       4.644   3.637  18.193  0.00  0.00    +0.000 A 
ATOM     13  C   UNL     1       4.530   3.949  16.839  0.00  0.00    +0.000 A 
ATOM     14  C   UNL     1       5.333   4.953  16.300  0.00  0.00    +0.000 A 
ATOM     15  C   UNL     1       6.245   5.649  17.108  0.00  0.00    +0.000 A 
ATOM     16  C   UNL     1       6.955   6.750  16.605  0.00  0.00    +0.000 A 
ATOM     17  C   UNL     1       7.857   7.444  17.411  0.00  0.00    +0.000 A 
ATOM     18  C   UNL     1       8.105   7.008  18.709  0.00  0.00    +0.000 A 
ATOM     19  C   UNL     1       7.399   5.920  19.229  0.00  0.00    +0.000 A 
ATOM     20  C   UNL     1       6.427   5.263  18.457  0.00  0.00    +0.000 A 
ATOM     21  C   UNL     1       5.606   4.259  18.996  0.00  0.00    +0.000 A 
ENDBRANCH  10  12
ENDBRANCH   7  10
ENDBRANCH   1   7
BRANCH   4  22
ATOM     22  C   UNL     1       1.647   8.812  20.456  0.00  0.00    +0.000 C 
BRANCH  22  23
ATOM     23  C   UNL     1       0.914   8.981  21.795  0.00  0.00    +0.000 C 
BRANCH  23  24
ATOM     24  N   UNL     1       0.557  10.385  22.113  0.00  0.00    +0.000 NA
ATOM     25  C   UNL     1       0.431  11.182  20.884  0.00  0.00    +0.000 C 
ATOM     26  C   UNL     1      -0.186  12.557  21.094  0.00  0.00    +0.000 C 
ATOM     27  C   UNL     1      -1.537  12.530  21.827  0.00  0.00    +0.000 C 
ATOM     28  C   UNL     1      -1.324  11.746  23.133  0.00  0.00    +0.000 C 
ATOM     29  C   UNL     1      -0.652  10.383  22.952  0.00  0.00    +0.000 C 
BRANCH  27  30
ATOM     30  N   UNL     1      -2.756  12.176  21.045  0.00  0.00    +0.000 NA
ATOM     31  C   UNL     1      -3.957  12.839  21.575  0.00  0.00    +0.000 C 
ATOM     32  C   UNL     1      -5.240  12.425  20.854  0.00  0.00    +0.000 C 
ATOM     33  C   UNL     1      -5.122  12.686  19.363  0.00  0.00    +0.000 C 
ATOM     34  C   UNL     1      -3.932  11.913  18.824  0.00  0.00    +0.000 C 
ATOM     35  C   UNL     1      -2.651  12.256  19.588  0.00  0.00    +0.000 C 
ENDBRANCH  27  30
ENDBRANCH  23  24
ENDBRANCH  22  23
ENDBRANCH   4  22
TORSDOF 7
ENDMDL
MODEL 3
REMARK VINA RESULT:      -9.1      4.522      8.448
REMARK  Name = 
REMARK  7 active torsions:
REMARK  status: ('A' for Active; 'I' for Inactive)
REMARK    1  A    between atoms: S_2  and  N_4
REMARK    2  A    between atoms: S_2  and  C_25
REMARK    3  A    between atoms: N_4  and  C_5
REMARK    4  A    between atoms: C_8  and  C_9
REMARK    5  A    between atoms: C_9  and  C_10
REMARK    6  A    between atoms: C_10  and  N_11
REMARK    7  A    between atoms: C_14  and  N_15
REMARK                            x       y       z     vdW  Elec       q    Type
REMARK                         _______ _______ _______ _____ _____    ______ ____
ROOT
ATOM      1  C   UNL     1       1.961   4.707  19.196  0.00  0.00    +0.000 A 
ATOM      2  C   UNL     1       1.553   4.884  20.520  0.00  0.00    +0.000 A 
ATOM      3  C   UNL     1       1.463   6.175  21.040  0.00  0.00    +0.000 A 
ATOM      4  C   UNL     1       1.791   7.289  20.247  0.00  0.00    +0.000 A 
ATOM      5  C   UNL     1       2.194   7.090  18.923  0.00  0.00    +0.000 A 
ATOM      6  C   UNL     1       2.285   5.803  18.404  0.00  0.00    +0.000 A 
ENDROOT
BRANCH   1   7
ATOM      7  N   UNL     1       2.003   3.419  18.625  0.00  0.00    +0.000 N 
ATOM      8  H   UNL     1       1.399   3.188  17.841  0.00  0.00    +0.000 HD
BRANCH   7  10
ATOM      9  O   UNL     1       3.724   2.372  20.106  0.00  0.00    +0.000 OA
ATOM     10  S   UNL     1       3.434   2.548  18.700  0.00  0.00    +0.000 S 
ATOM     11  O   UNL     1       3.365   1.406  17.807  0.00  0.00    +0.000 OA
BRANCH  10  12
ATOM     12  C   UNL     1       4.615   3.705  18.048  0.00  0.00    +0.000 A 
ATOM     13  C   UNL     1       4.488   4.115  16.722  0.00  0.00    +0.000 A 
ATOM     14  C   UNL     1       5.295   5.148  16.247  0.00  0.00    +0.000 A 
ATOM     15  C   UNL     1       6.223   5.776  17.091  0.00  0.00    +0.000 A 
ATOM     16  C   UNL     1       6.938   6.903  16.660  0.00  0.00    +0.000 A 
ATOM     17  C   UNL     1       7.857   7.529  17.502  0.00  0.00    +0.000 A 
ATOM     18  C   UNL     1       8.115   6.999  18.763  0.00  0.00    +0.000 A 
ATOM     19  C   UNL     1       7.405   5.882  19.211  0.00  0.00    +0.000 A 
ATOM     20  C   UNL     1       6.417   5.291  18.406  0.00  0.00    +0.000 A 
ATOM     21  C   UNL     1       5.592   4.259  18.882  0.00  0.00    +0.000 A 
ENDBRANCH  10  12
ENDBRANCH   7  10
ENDBRANCH   1   7
BRANCH   4  22
ATOM     22  C   UNL     1       1.648   8.692  20.783  0.00  0.00    +0.000 C 
BRANCH  22  23
ATOM     23  C   UNL     1       0.185   9.152  20.879  0.00  0.00    +0.000 C 
BRANCH  23  24
ATOM     24  N   UNL     1      -0.065  10.490  20.288  0.00  0.00    +0.000 NA
ATOM     25  C   UNL     1      -0.613  10.364  18.929  0.00  0.00    +0.000 C 
ATOM     26  C   UNL     1      -1.145  11.667  18.349  0.00  0.00    +0.000 C 
ATOM     27  C   UNL     1      -2.167  12.380  19.250  0.00  0.00    +0.000 C 
ATOM     28  C   UNL     1      -1.511  12.544  20.632  0.00  0.00    +0.000 C 
ATOM     29  C   UNL     1      -0.918  11.258  21.209  0.00  0.00    +0.000 C 
BRANCH  27  30
ATOM     30  N   UNL     1      -3.573  11.884  19.251  0.00  0.00    +0.000 NA
ATOM     31  C   UNL     1      -4.446  12.717  20.091  0.00  0.00    +0.000 C 
ATOM     32  C   UNL     1      -5.875  12.182  20.189  0.00  0.00    +0.000 C 
ATOM     33  C   UNL     1      -6.483  12.030  18.805  0.00  0.00    +0.000 C 
ATOM     34  C   UNL     1      -5.614  11.089  17.991  0.00  0.00    +0.000 C 
ATOM     35  C   UNL     1      -4.161  11.566  17.949  0.00  0.00    +0.000 C 
ENDBRANCH  27  30
ENDBRANCH  23  24
ENDBRANCH  22  23
ENDBRANCH   4  22
TORSDOF 7
ENDMDL
MODEL 4
REMARK VINA RESULT:      -9.0      1.609      1.854
REMARK  Name = 
REMARK  7 active torsions:
REMARK  status: ('A' for Active; 'I' for Inactive)
REMARK    1  A    between atoms: S_2  and  N_4
REMARK    2  A    between atoms: S_2  and  C_25
REMARK    3  A    between atoms: N_4  and  C_5
REMARK    4  A    between atoms: C_8  and  C_9
REMARK    5  A    between atoms: C_9  and  C_10
REMARK    6  A    between atoms: C_10  and  N_11
REMARK    7  A    between atoms: C_14  and  N_15
REMARK                            x       y       z     vdW  Elec       q    Type
REMARK                         _______ _______ _______ _____ _____    ______ ____
ROOT
ATOM      1  C   UNL     1       6.420   4.840  18.301  0.00  0.00    +0.000 A 
ATOM      2  C   UNL     1       7.108   5.497  19.323  0.00  0.00    +0.000 A 
ATOM      3  C   UNL     1       7.746   6.707  19.049  0.00  0.00    +0.000 A 
ATOM      4  C   UNL     1       7.710   7.256  17.755  0.00  0.00    +0.000 A 
ATOM      5  C   UNL     1       7.013   6.584  16.746  0.00  0.00    +0.000 A 
ATOM      6  C   UNL     1       6.378   5.377  17.019  0.00  0.00    +0.000 A 
ENDROOT
BRANCH   1   7
ATOM      7  N   UNL     1       5.715   3.647  18.562  0.00  0.00    +0.000 N 
ATOM      8  H   UNL     1       5.848   3.158  19.442  0.00  0.00    +0.000 HD
BRANCH   7  10
ATOM      9  O   UNL     1       4.393   3.755  16.443  0.00  0.00    +0.000 OA
ATOM     10  S   UNL     1       4.220   3.417  17.838  0.00  0.00    +0.000 S 
ATOM     11  O   UNL     1       3.675   2.130  18.229  0.00  0.00    +0.000 OA
BRANCH  10  12
ATOM     12  C   UNL     1       3.239   4.697  18.585  0.00  0.00    +0.000 A 
ATOM     13  C   UNL     1       2.806   4.528  19.898  0.00  0.00    +0.000 A 
ATOM     14  C   UNL     1       2.187   5.591  20.555  0.00  0.00    +0.000 A 
ATOM     15  C   UNL     1       2.004   6.822  19.907  0.00  0.00    +0.000 A 
ATOM     16  C   UNL     1       1.509   7.934  20.605  0.00  0.00    +0.000 A 
ATOM     17  C   UNL     1       1.332   9.158  19.960  0.00  0.00    +0.000 A 
ATOM     18  C   UNL     1       1.591   9.268  18.597  0.00  0.00    +0.000 A 
ATOM     19  C   UNL     1       2.095   8.173  17.890  0.00  0.00    +0.000 A 
ATOM     20  C   UNL     1       2.356   6.957  18.543  0.00  0.00    +0.000 A 
ATOM     21  C   UNL     1       2.990   5.887  17.892  0.00  0.00    +0.000 A 
ENDBRANCH  10  12
ENDBRANCH   7  10
ENDBRANCH   1   7
BRANCH   4  22
ATOM     22  C   UNL     1       8.353   8.589  17.460  0.00  0.00    +0.000 C 
BRANCH  22  23
ATOM     23  C   UNL     1       8.279   9.567  18.643  0.00  0.00    +0.000 C 
BRANCH  23  24
ATOM     24  N   UNL     1       9.575  10.206  18.977  0.00  0.00    +0.000 NA
ATOM     25  C   UNL     1      10.052  11.034  17.860  0.00  0.00    +0.000 C 
ATOM     26  C   UNL     1      11.231  11.931  18.208  0.00  0.00    +0.000 C 
ATOM     27  C   UNL     1      10.997  12.820  19.440  0.00  0.00    +0.000 C 
ATOM     28  C   UNL     1      10.570  11.891  20.590  0.00  0.00    +0.000 C 
ATOM     29  C   UNL     1       9.423  10.940  20.244  0.00  0.00    +0.000 C 
BRANCH  27  30
ATOM     30  N   UNL     1      10.189  14.061  19.270  0.00  0.00    +0.000 NA
ATOM     31  C   UNL     1      11.036  15.261  19.209  0.00  0.00    +0.000 C 
ATOM     32  C   UNL     1      10.234  16.560  19.129  0.00  0.00    +0.000 C 
ATOM     33  C   UNL     1       9.292  16.532  17.938  0.00  0.00    +0.000 C 
ATOM     34  C   UNL     1       8.365  15.339  18.076  0.00  0.00    +0.000 C 
ATOM     35  C   UNL     1       9.152  14.036  18.238  0.00  0.00    +0.000 C 
ENDBRANCH  27  30
ENDBRANCH  23  24
ENDBRANCH  22  23
ENDBRANCH   4  22
TORSDOF 7
ENDMDL
MODEL 5
REMARK VINA RESULT:      -9.0      1.558      2.080
REMARK  Name = 
REMARK  7 active torsions:
REMARK  status: ('A' for Active; 'I' for Inactive)
REMARK    1  A    between atoms: S_2  and  N_4
REMARK    2  A    between atoms: S_2  and  C_25
REMARK    3  A    between atoms: N_4  and  C_5
REMARK    4  A    between atoms: C_8  and  C_9
REMARK    5  A    between atoms: C_9  and  C_10
REMARK    6  A    between atoms: C_10  and  N_11
REMARK    7  A    between atoms: C_14  and  N_15
REMARK                            x       y       z     vdW  Elec       q    Type
REMARK                         _______ _______ _______ _____ _____    ______ ____
ROOT
ATOM      1  C   UNL     1       6.577   5.284  18.186  0.00  0.00    +0.000 A 
ATOM      2  C   UNL     1       6.240   6.129  17.127  0.00  0.00    +0.000 A 
ATOM      3  C   UNL     1       6.878   7.364  17.010  0.00  0.00    +0.000 A 
ATOM      4  C   UNL     1       7.841   7.763  17.953  0.00  0.00    +0.000 A 
ATOM      5  C   UNL     1       8.167   6.901  19.004  0.00  0.00    +0.000 A 
ATOM      6  C   UNL     1       7.531   5.670  19.122  0.00  0.00    +0.000 A 
ENDROOT
BRANCH   1   7
ATOM      7  N   UNL     1       5.994   4.005  18.297  0.00  0.00    +0.000 N 
ATOM      8  H   UNL     1       6.199   3.419  19.101  0.00  0.00    +0.000 HD
BRANCH   7  10
ATOM      9  O   UNL     1       4.641   4.149  16.200  0.00  0.00    +0.000 OA
ATOM     10  S   UNL     1       4.505   3.731  17.577  0.00  0.00    +0.000 S 
ATOM     11  O   UNL     1       4.035   2.397  17.906  0.00  0.00    +0.000 OA
BRANCH  10  12
ATOM     12  C   UNL     1       3.465   4.915  18.399  0.00  0.00    +0.000 A 
ATOM     13  C   UNL     1       3.127   4.697  19.733  0.00  0.00    +0.000 A 
ATOM     14  C   UNL     1       2.461   5.697  20.440  0.00  0.00    +0.000 A 
ATOM     15  C   UNL     1       2.136   6.914  19.823  0.00  0.00    +0.000 A 
ATOM     16  C   UNL     1       1.591   7.973  20.565  0.00  0.00    +0.000 A 
ATOM     17  C   UNL     1       1.274   9.184  19.950  0.00  0.00    +0.000 A 
ATOM     18  C   UNL     1       1.441   9.329  18.576  0.00  0.00    +0.000 A 
ATOM     19  C   UNL     1       1.992   8.288  17.824  0.00  0.00    +0.000 A 
ATOM     20  C   UNL     1       2.394   7.092  18.443  0.00  0.00    +0.000 A 
ATOM     21  C   UNL     1       3.076   6.086  17.740  0.00  0.00    +0.000 A 
ENDBRANCH  10  12
ENDBRANCH   7  10
ENDBRANCH   1   7
BRANCH   4  22
ATOM     22  C   UNL     1       8.574   9.075  17.806  0.00  0.00    +0.000 C 
BRANCH  22  23
ATOM     23  C   UNL     1       8.791   9.794  19.146  0.00  0.00    +0.000 C 
BRANCH  23  24
ATOM     24  N   UNL     1       9.982  10.679  19.167  0.00  0.00    +0.000 NA
ATOM     25  C   UNL     1      10.262  11.210  17.825  0.00  0.00    +0.000 C 
ATOM     26  C   UNL     1      11.295  12.326  17.799  0.00  0.00    +0.000 C 
ATOM     27  C   UNL     1      10.982  13.489  18.755  0.00  0.00    +0.000 C 
ATOM     28  C   UNL     1      10.770  12.880  20.151  0.00  0.00    +0.000 C 
ATOM     29  C   UNL     1       9.777  11.716  20.191  0.00  0.00    +0.000 C 
BRANCH  27  30
ATOM     30  N   UNL     1       9.976  14.502  18.326  0.00  0.00    +0.000 NA
ATOM     31  C   UNL     1       8.638  14.204  18.860  0.00  0.00    +0.000 C 
ATOM     32  C   UNL     1       7.563  15.170  18.363  0.00  0.00    +0.000 C 
ATOM     33  C   UNL     1       7.942  16.604  18.693  0.00  0.00    +0.000 C 
ATOM     34  C   UNL     1       9.280  16.915  18.049  0.00  0.00    +0.000 C 
ATOM     35  C   UNL     1      10.352  15.908  18.472  0.00  0.00    +0.000 C 
ENDBRANCH  27  30
ENDBRANCH  23  24
ENDBRANCH  22  23
ENDBRANCH   4  22
TORSDOF 7
ENDMDL
MODEL 6
REMARK VINA RESULT:      -9.0      5.708      9.012
REMARK  Name = 
REMARK  7 active torsions:
REMARK  status: ('A' for Active; 'I' for Inactive)
REMARK    1  A    between atoms: S_2  and  N_4
REMARK    2  A    between atoms: S_2  and  C_25
REMARK    3  A    between atoms: N_4  and  C_5
REMARK    4  A    between atoms: C_8  and  C_9
REMARK    5  A    between atoms: C_9  and  C_10
REMARK    6  A    between atoms: C_10  and  N_11
REMARK    7  A    between atoms: C_14  and  N_15
REMARK                            x       y       z     vdW  Elec       q    Type
REMARK                         _______ _______ _______ _____ _____    ______ ____
ROOT
ATOM      1  C   UNL     1       1.553   9.251  18.854  0.00  0.00    +0.000 A 
ATOM      2  C   UNL     1       0.998   9.134  20.130  0.00  0.00    +0.000 A 
ATOM      3  C   UNL     1       1.130   7.932  20.824  0.00  0.00    +0.000 A 
ATOM      4  C   UNL     1       1.802   6.842  20.245  0.00  0.00    +0.000 A 
ATOM      5  C   UNL     1       2.354   6.980  18.967  0.00  0.00    +0.000 A 
ATOM      6  C   UNL     1       2.222   8.178  18.274  0.00  0.00    +0.000 A 
ENDROOT
BRANCH   1   7
ATOM      7  N   UNL     1       1.488  10.472  18.152  0.00  0.00    +0.000 N 
ATOM      8  H   UNL     1       1.222  10.483  17.171  0.00  0.00    +0.000 HD
BRANCH   7  10
ATOM      9  O   UNL     1       1.667  11.681  20.332  0.00  0.00    +0.000 OA
ATOM     10  S   UNL     1       1.137  11.874  19.001  0.00  0.00    +0.000 S 
ATOM     11  O   UNL     1       1.510  13.035  18.214  0.00  0.00    +0.000 OA
BRANCH  10  12
ATOM     12  C   UNL     1      -0.636  11.813  19.113  0.00  0.00    +0.000 A 
ATOM     13  C   UNL     1      -1.248  12.248  20.286  0.00  0.00    +0.000 A 
ATOM     14  C   UNL     1      -2.636  12.371  20.328  0.00  0.00    +0.000 A 
ATOM     15  C   UNL     1      -3.414  12.066  19.200  0.00  0.00    +0.000 A 
ATOM     16  C   UNL     1      -4.794  12.319  19.191  0.00  0.00    +0.000 A 
ATOM     17  C   UNL     1      -5.565  12.020  18.068  0.00  0.00    +0.000 A 
ATOM     18  C   UNL     1      -4.976  11.410  16.964  0.00  0.00    +0.000 A 
ATOM     19  C   UNL     1      -3.601  11.160  16.953  0.00  0.00    +0.000 A 
ATOM     20  C   UNL     1      -2.797  11.532  18.045  0.00  0.00    +0.000 A 
ATOM     21  C   UNL     1      -1.398  11.423  18.006  0.00  0.00    +0.000 A 
ENDBRANCH  10  12
ENDBRANCH   7  10
ENDBRANCH   1   7
BRANCH   4  22
ATOM     22  C   UNL     1       1.996   5.554  21.008  0.00  0.00    +0.000 C 
BRANCH  22  23
ATOM     23  C   UNL     1       1.097   4.415  20.502  0.00  0.00    +0.000 C 
BRANCH  23  24
ATOM     24  N   UNL     1       1.817   3.388  19.709  0.00  0.00    +0.000 NA
ATOM     25  C   UNL     1       1.598   3.592  18.270  0.00  0.00    +0.000 C 
ATOM     26  C   UNL     1       2.503   2.755  17.377  0.00  0.00    +0.000 C 
ATOM     27  C   UNL     1       4.000   2.903  17.693  0.00  0.00    +0.000 C 
ATOM     28  C   UNL     1       4.175   2.609  19.193  0.00  0.00    +0.000 C 
ATOM     29  C   UNL     1       3.234   3.397  20.107  0.00  0.00    +0.000 C 
BRANCH  27  30
ATOM     30  N   UNL     1       4.714   4.104  17.177  0.00  0.00    +0.000 NA
ATOM     31  C   UNL     1       5.621   4.676  18.183  0.00  0.00    +0.000 C 
ATOM     32  C   UNL     1       6.300   5.965  17.719  0.00  0.00    +0.000 C 
ATOM     33  C   UNL     1       7.052   5.733  16.420  0.00  0.00    +0.000 C 
ATOM     34  C   UNL     1       6.074   5.236  15.372  0.00  0.00    +0.000 C 
ATOM     35  C   UNL     1       5.326   3.990  15.852  0.00  0.00    +0.000 C 
ENDBRANCH  27  30
ENDBRANCH  23  24
ENDBRANCH  22  23
ENDBRANCH   4  22
TORSDOF 7
ENDMDL
MODEL 7
REMARK VINA RESULT:      -9.0      0.933      1.287
REMARK  Name = 
REMARK  7 active torsions:
REMARK  status: ('A' for Active; 'I' for Inactive)
REMARK    1  A    between atoms: S_2  and  N_4
REMARK    2  A    between atoms: S_2  and  C_25
REMARK    3  A    between atoms: N_4  and  C_5
REMARK    4  A    between atoms: C_8  and  C_9
REMARK    5  A    between atoms: C_9  and  C_10
REMARK    6  A    between atoms: C_10  and  N_11
REMARK    7  A    between atoms: C_14  and  N_15
REMARK                            x       y       z     vdW  Elec       q    Type
REMARK                         _______ _______ _______ _____ _____    ______ ____
ROOT
ATOM      1  C   UNL     1       6.366   5.160  18.249  0.00  0.00    +0.000 A 
ATOM      2  C   UNL     1       5.906   5.983  17.220  0.00  0.00    +0.000 A 
ATOM      3  C   UNL     1       6.524   7.215  17.002  0.00  0.00    +0.000 A 
ATOM      4  C   UNL     1       7.591   7.632  17.816  0.00  0.00    +0.000 A 
ATOM      5  C   UNL     1       8.040   6.791  18.839  0.00  0.00    +0.000 A 
ATOM      6  C   UNL     1       7.424   5.564  19.058  0.00  0.00    +0.000 A 
ENDROOT
BRANCH   1   7
ATOM      7  N   UNL     1       5.802   3.885  18.455  0.00  0.00    +0.000 N 
ATOM      8  H   UNL     1       6.055   3.341  19.275  0.00  0.00    +0.000 HD
BRANCH   7  10
ATOM      9  O   UNL     1       4.348   3.877  16.421  0.00  0.00    +0.000 OA
ATOM     10  S   UNL     1       4.278   3.565  17.831  0.00  0.00    +0.000 S 
ATOM     11  O   UNL     1       3.823   2.263  18.283  0.00  0.00    +0.000 OA
BRANCH  10  12
ATOM     12  C   UNL     1       3.283   4.814  18.611  0.00  0.00    +0.000 A 
ATOM     13  C   UNL     1       2.934   4.653  19.950  0.00  0.00    +0.000 A 
ATOM     14  C   UNL     1       2.305   5.700  20.622  0.00  0.00    +0.000 A 
ATOM     15  C   UNL     1       2.027   6.907  19.964  0.00  0.00    +0.000 A 
ATOM     16  C   UNL     1       1.521   8.009  20.669  0.00  0.00    +0.000 A 
ATOM     17  C   UNL     1       1.249   9.210  20.013  0.00  0.00    +0.000 A 
ATOM     18  C   UNL     1       1.423   9.303  18.635  0.00  0.00    +0.000 A 
ATOM     19  C   UNL     1       1.936   8.218  17.920  0.00  0.00    +0.000 A 
ATOM     20  C   UNL     1       2.292   7.029  18.579  0.00  0.00    +0.000 A 
ATOM     21  C   UNL     1       2.938   5.976  17.912  0.00  0.00    +0.000 A 
ENDBRANCH  10  12
ENDBRANCH   7  10
ENDBRANCH   1   7
BRANCH   4  22
ATOM     22  C   UNL     1       8.300   8.939  17.556  0.00  0.00    +0.000 C 
BRANCH  22  23
ATOM     23  C   UNL     1       8.778   9.629  18.843  0.00  0.00    +0.000 C 
BRANCH  23  24
ATOM     24  N   UNL     1       9.755  10.722  18.613  0.00  0.00    +0.000 NA
ATOM     25  C   UNL     1       9.112  11.865  17.948  0.00  0.00    +0.000 C 
ATOM     26  C   UNL     1       9.965  13.124  17.910  0.00  0.00    +0.000 C 
ATOM     27  C   UNL     1      10.491  13.563  19.287  0.00  0.00    +0.000 C 
ATOM     28  C   UNL     1      11.212  12.350  19.900  0.00  0.00    +0.000 C 
ATOM     29  C   UNL     1      10.394  11.057  19.896  0.00  0.00    +0.000 C 
BRANCH  27  30
ATOM     30  N   UNL     1       9.565  14.297  20.194  0.00  0.00    +0.000 NA
ATOM     31  C   UNL     1      10.111  14.416  21.555  0.00  0.00    +0.000 C 
ATOM     32  C   UNL     1       9.145  15.082  22.535  0.00  0.00    +0.000 C 
ATOM     33  C   UNL     1       8.729  16.451  22.026  0.00  0.00    +0.000 C 
ATOM     34  C   UNL     1       8.082  16.289  20.663  0.00  0.00    +0.000 C 
ATOM     35  C   UNL     1       9.004  15.552  19.690  0.00  0.00    +0.000 C 
ENDBRANCH  27  30
ENDBRANCH  23  24
ENDBRANCH  22  23
ENDBRANCH   4  22
TORSDOF 7
ENDMDL
MODEL 8
REMARK VINA RESULT:      -8.9      4.846      8.299
REMARK  Name = 
REMARK  7 active torsions:
REMARK  status: ('A' for Active; 'I' for Inactive)
REMARK    1  A    between atoms: S_2  and  N_4
REMARK    2  A    between atoms: S_2  and  C_25
REMARK    3  A    between atoms: N_4  and  C_5
REMARK    4  A    between atoms: C_8  and  C_9
REMARK    5  A    between atoms: C_9  and  C_10
REMARK    6  A    between atoms: C_10  and  N_11
REMARK    7  A    between atoms: C_14  and  N_15
REMARK                            x       y       z     vdW  Elec       q    Type
REMARK                         _______ _______ _______ _____ _____    ______ ____
ROOT
ATOM      1  C   UNL     1       2.613   5.602  19.082  0.00  0.00    +0.000 A 
ATOM      2  C   UNL     1       2.598   6.930  18.654  0.00  0.00    +0.000 A 
ATOM      3  C   UNL     1       1.918   7.884  19.410  0.00  0.00    +0.000 A 
ATOM      4  C   UNL     1       1.241   7.514  20.586  0.00  0.00    +0.000 A 
ATOM      5  C   UNL     1       1.271   6.179  21.000  0.00  0.00    +0.000 A 
ATOM      6  C   UNL     1       1.948   5.227  20.245  0.00  0.00    +0.000 A 
ENDROOT
BRANCH   1   7
ATOM      7  N   UNL     1       3.342   4.626  18.371  0.00  0.00    +0.000 N 
ATOM      8  H   UNL     1       3.028   4.323  17.454  0.00  0.00    +0.000 HD
BRANCH   7  10
ATOM      9  O   UNL     1       5.358   5.637  19.450  0.00  0.00    +0.000 OA
ATOM     10  S   UNL     1       4.992   4.498  18.637  0.00  0.00    +0.000 S 
ATOM     11  O   UNL     1       5.322   3.149  19.059  0.00  0.00    +0.000 OA
BRANCH  10  12
ATOM     12  C   UNL     1       5.658   4.761  17.011  0.00  0.00    +0.000 A 
ATOM     13  C   UNL     1       6.808   5.536  16.876  0.00  0.00    +0.000 A 
ATOM     14  C   UNL     1       7.441   5.608  15.636  0.00  0.00    +0.000 A 
ATOM     15  C   UNL     1       6.933   4.906  14.532  0.00  0.00    +0.000 A 
ATOM     16  C   UNL     1       7.639   4.864  13.320  0.00  0.00    +0.000 A 
ATOM     17  C   UNL     1       7.134   4.162  12.226  0.00  0.00    +0.000 A 
ATOM     18  C   UNL     1       5.890   3.545  12.312  0.00  0.00    +0.000 A 
ATOM     19  C   UNL     1       5.178   3.569  13.514  0.00  0.00    +0.000 A 
ATOM     20  C   UNL     1       5.712   4.201  14.650  0.00  0.00    +0.000 A 
ATOM     21  C   UNL     1       5.087   4.123  15.905  0.00  0.00    +0.000 A 
ENDBRANCH  10  12
ENDBRANCH   7  10
ENDBRANCH   1   7
BRANCH   4  22
ATOM     22  C   UNL     1       0.546   8.547  21.439  0.00  0.00    +0.000 C 
BRANCH  22  23
ATOM     23  C   UNL     1       1.457   9.722  21.822  0.00  0.00    +0.000 C 
BRANCH  23  24
ATOM     24  N   UNL     1       0.837  11.055  21.621  0.00  0.00    +0.000 NA
ATOM     25  C   UNL     1       1.206  11.609  20.311  0.00  0.00    +0.000 C 
ATOM     26  C   UNL     1       0.411  12.843  19.910  0.00  0.00    +0.000 C 
ATOM     27  C   UNL     1      -1.114  12.651  19.974  0.00  0.00    +0.000 C 
ATOM     28  C   UNL     1      -1.444  12.139  21.386  0.00  0.00    +0.000 C 
ATOM     29  C   UNL     1      -0.614  10.933  21.833  0.00  0.00    +0.000 C 
BRANCH  27  30
ATOM     30  N   UNL     1      -1.782  11.937  18.849  0.00  0.00    +0.000 NA
ATOM     31  C   UNL     1      -1.093  10.681  18.512  0.00  0.00    +0.000 C 
ATOM     32  C   UNL     1      -1.697   9.970  17.302  0.00  0.00    +0.000 C 
ATOM     33  C   UNL     1      -3.176   9.704  17.523  0.00  0.00    +0.000 C 
ATOM     34  C   UNL     1      -3.878  11.026  17.772  0.00  0.00    +0.000 C 
ATOM     35  C   UNL     1      -3.235  11.791  18.932  0.00  0.00    +0.000 C 
ENDBRANCH  27  30
ENDBRANCH  23  24
ENDBRANCH  22  23
ENDBRANCH   4  22
TORSDOF 7
ENDMDL
MODEL 9
REMARK VINA RESULT:      -8.9      5.151      8.902
REMARK  Name = 
REMARK  7 active torsions:
REMARK  status: ('A' for Active; 'I' for Inactive)
REMARK    1  A    between atoms: S_2  and  N_4
REMARK    2  A    between atoms: S_2  and  C_25
REMARK    3  A    between atoms: N_4  and  C_5
REMARK    4  A    between atoms: C_8  and  C_9
REMARK    5  A    between atoms: C_9  and  C_10
REMARK    6  A    between atoms: C_10  and  N_11
REMARK    7  A    between atoms: C_14  and  N_15
REMARK                            x       y       z     vdW  Elec       q    Type
REMARK                         _______ _______ _______ _____ _____    ______ ____
ROOT
ATOM      1  C   UNL     1       2.746   5.988  18.942  0.00  0.00    +0.000 A 
ATOM      2  C   UNL     1       2.160   6.214  20.189  0.00  0.00    +0.000 A 
ATOM      3  C   UNL     1       1.599   7.461  20.465  0.00  0.00    +0.000 A 
ATOM      4  C   UNL     1       1.631   8.486  19.505  0.00  0.00    +0.000 A 
ATOM      5  C   UNL     1       2.219   8.239  18.260  0.00  0.00    +0.000 A 
ATOM      6  C   UNL     1       2.780   6.997  17.985  0.00  0.00    +0.000 A 
ENDROOT
BRANCH   1   7
ATOM      7  N   UNL     1       3.267   4.721  18.612  0.00  0.00    +0.000 N 
ATOM      8  H   UNL     1       2.832   4.163  17.884  0.00  0.00    +0.000 HD
BRANCH   7  10
ATOM      9  O   UNL     1       5.376   5.490  19.712  0.00  0.00    +0.000 OA
ATOM     10  S   UNL     1       4.903   4.435  18.844  0.00  0.00    +0.000 S 
ATOM     11  O   UNL     1       5.118   3.041  19.184  0.00  0.00    +0.000 OA
BRANCH  10  12
ATOM     12  C   UNL     1       5.571   4.731  17.224  0.00  0.00    +0.000 A 
ATOM     13  C   UNL     1       6.704   5.533  17.103  0.00  0.00    +0.000 A 
ATOM     14  C   UNL     1       7.341   5.633  15.867  0.00  0.00    +0.000 A 
ATOM     15  C   UNL     1       6.854   4.932  14.754  0.00  0.00    +0.000 A 
ATOM     16  C   UNL     1       7.566   4.919  13.545  0.00  0.00    +0.000 A 
ATOM     17  C   UNL     1       7.083   4.218  12.441  0.00  0.00    +0.000 A 
ATOM     18  C   UNL     1       5.852   3.572  12.513  0.00  0.00    +0.000 A 
ATOM     19  C   UNL     1       5.134   3.567  13.712  0.00  0.00    +0.000 A 
ATOM     20  C   UNL     1       5.648   4.199  14.857  0.00  0.00    +0.000 A 
ATOM     21  C   UNL     1       5.019   4.092  16.108  0.00  0.00    +0.000 A 
ENDBRANCH  10  12
ENDBRANCH   7  10
ENDBRANCH   1   7
BRANCH   4  22
ATOM     22  C   UNL     1       0.981   9.822  19.773  0.00  0.00    +0.000 C 
BRANCH  22  23
ATOM     23  C   UNL     1       0.164   9.842  21.074  0.00  0.00    +0.000 C 
BRANCH  23  24
ATOM     24  N   UNL     1      -0.210  11.203  21.529  0.00  0.00    +0.000 NA
ATOM     25  C   UNL     1      -0.798  11.978  20.427  0.00  0.00    +0.000 C 
ATOM     26  C   UNL     1      -1.449  13.284  20.860  0.00  0.00    +0.000 C 
ATOM     27  C   UNL     1      -2.488  13.120  21.982  0.00  0.00    +0.000 C 
ATOM     28  C   UNL     1      -1.795  12.367  23.131  0.00  0.00    +0.000 C 
ATOM     29  C   UNL     1      -1.084  11.081  22.707  0.00  0.00    +0.000 C 
BRANCH  27  30
ATOM     30  N   UNL     1      -3.850  12.639  21.616  0.00  0.00    +0.000 NA
ATOM     31  C   UNL     1      -4.881  13.183  22.513  0.00  0.00    +0.000 C 
ATOM     32  C   UNL     1      -6.279  12.636  22.223  0.00  0.00    +0.000 C 
ATOM     33  C   UNL     1      -6.665  12.896  20.777  0.00  0.00    +0.000 C 
ATOM     34  C   UNL     1      -5.636  12.242  19.873  0.00  0.00    +0.000 C 
ATOM     35  C   UNL     1      -4.219  12.718  20.202  0.00  0.00    +0.000 C 
ENDBRANCH  27  30
ENDBRANCH  23  24
ENDBRANCH  22  23
ENDBRANCH   4  22
TORSDOF 7
ENDMDL
