MODEL 1
REMARK VINA RESULT:      -7.9      0.000      0.000
REMARK  Name = 
REMARK  7 active torsions:
REMARK  status: ('A' for Active; 'I' for Inactive)
REMARK    1  A    between atoms: C_1  and  C_2
REMARK    2  A    between atoms: N_7  and  C_8
REMARK    3  A    between atoms: C_10  and  O_11
REMARK    4  A    between atoms: O_11  and  C_12
REMARK    5  A    between atoms: C_12  and  C_13
REMARK    6  A    between atoms: C_13  and  C_14
REMARK    7  A    between atoms: C_20  and  C_21
REMARK                            x       y       z     vdW  Elec       q    Type
REMARK                         _______ _______ _______ _____ _____    ______ ____
ROOT
ATOM      1  C   UNL     1       4.311   5.213  18.663  0.00  0.00    +0.000 A 
ATOM      2  C   UNL     1       3.428   6.115  19.243  0.00  0.00    +0.000 A 
ATOM      3  C   UNL     1       2.523   5.522  20.169  0.00  0.00    +0.000 A 
ATOM      4  C   UNL     1       2.746   4.170  20.330  0.00  0.00    +0.000 A 
ATOM      5  S   UNL     1       3.982   3.634  19.284  0.00  0.00    +0.000 S 
ENDROOT
BRANCH   1  12
ATOM      6  C   UNL     1       5.351   6.365  15.422  0.00  0.00    +0.000 C 
ATOM      7  C   UNL     1       5.147   5.123  16.299  0.00  0.00    +0.000 C 
ATOM      8  C   UNL     1       6.169   4.024  15.939  0.00  0.00    +0.000 C 
ATOM      9  O   UNL     1       7.513   4.427  16.252  0.00  0.00    +0.000 OA
ATOM     10  C   UNL     1       7.634   4.675  17.661  0.00  0.00    +0.000 C 
ATOM     11  C   UNL     1       6.673   5.777  18.147  0.00  0.00    +0.000 C 
ATOM     12  N   UNL     1       5.283   5.491  17.731  0.00  0.00    +0.000 N 
ENDBRANCH   1  12
BRANCH   4  13
ATOM     13  C   UNL     1       2.071   3.213  21.195  0.00  0.00    +0.000 C 
ATOM     14  N   UNL     1       0.742   3.004  20.934  0.00  0.00    +0.000 N 
ATOM     15  O   UNL     1       2.590   2.593  22.117  0.00  0.00    +0.000 OA
ATOM     16  H   UNL     1       0.261   3.524  20.208  0.00  0.00    +0.000 HD
ATOM     17  H   UNL     1       0.222   2.368  21.521  0.00  0.00    +0.000 HD
ENDBRANCH   4  13
BRANCH   3  18
ATOM     18  O   UNL     1       1.547   6.124  20.893  0.00  0.00    +0.000 OA
BRANCH  18  19
ATOM     19  C   UNL     1       1.259   7.471  20.522  0.00  0.00    +0.000 C 
BRANCH  19  20
ATOM     20  C   UNL     1       1.460   8.371  21.750  0.00  0.00    +0.000 C 
BRANCH  20  21
ATOM     21  C   UNL     1       0.458   9.501  21.853  0.00  0.00    +0.000 A 
ATOM     22  C   UNL     1       0.243  10.379  20.783  0.00  0.00    +0.000 A 
ATOM     23  C   UNL     1      -0.634  11.458  20.916  0.00  0.00    +0.000 A 
ATOM     24  C   UNL     1      -1.322  11.656  22.111  0.00  0.00    +0.000 A 
ATOM     25  C   UNL     1      -1.152  10.764  23.166  0.00  0.00    +0.000 A 
ATOM     26  C   UNL     1      -0.269   9.690  23.038  0.00  0.00    +0.000 A 
ENDBRANCH  20  21
ENDBRANCH  19  20
ENDBRANCH  18  19
ENDBRANCH   3  18
TORSDOF 6
ENDMDL
MODEL 2
REMARK VINA RESULT:      -7.8      1.398      1.840
REMARK  Name = 
REMARK  7 active torsions:
REMARK  status: ('A' for Active; 'I' for Inactive)
REMARK    1  A    between atoms: C_1  and  C_2
REMARK    2  A    between atoms: N_7  and  C_8
REMARK    3  A    between atoms: C_10  and  O_11
REMARK    4  A    between atoms: O_11  and  C_12
REMARK    5  A    between atoms: C_12  and  C_13
REMARK    6  A    between atoms: C_13  and  C_14
REMARK    7  A    between atoms: C_20  and  C_21
REMARK                            x       y       z     vdW  Elec       q    Type
REMARK                         _______ _______ _______ _____ _____    ______ ____
ROOT
ATOM      1  C   UNL     1       3.756   5.077  17.536  0.00  0.00    +0.000 A 
ATOM      2  C   UNL     1       3.299   5.903  18.554  0.00  0.00    +0.000 A 
ATOM      3  C   UNL     1       2.250   5.335  19.332  0.00  0.00    +0.000 A 
ATOM      4  C   UNL     1       1.937   4.050  18.935  0.00  0.00    +0.000 A 
ATOM      5  S   UNL     1       2.854   3.602  17.568  0.00  0.00    +0.000 S 
ENDROOT
BRANCH   1  12
ATOM      6  C   UNL     1       5.611   4.334  14.549  0.00  0.00    +0.000 C 
ATOM      7  C   UNL     1       5.656   4.318  16.082  0.00  0.00    +0.000 C 
ATOM      8  C   UNL     1       7.092   4.562  16.591  0.00  0.00    +0.000 C 
ATOM      9  O   UNL     1       7.553   5.884  16.266  0.00  0.00    +0.000 OA
ATOM     10  C   UNL     1       6.709   6.864  16.888  0.00  0.00    +0.000 C 
ATOM     11  C   UNL     1       5.240   6.741  16.444  0.00  0.00    +0.000 C 
ATOM     12  N   UNL     1       4.744   5.359  16.622  0.00  0.00    +0.000 N 
ENDBRANCH   1  12
BRANCH   4  13
ATOM     13  C   UNL     1       0.961   3.121  19.482  0.00  0.00    +0.000 C 
ATOM     14  N   UNL     1       0.835   3.119  20.846  0.00  0.00    +0.000 N 
ATOM     15  O   UNL     1       0.256   2.358  18.829  0.00  0.00    +0.000 OA
ATOM     16  H   UNL     1       1.424   3.704  21.429  0.00  0.00    +0.000 HD
ATOM     17  H   UNL     1       0.188   2.474  21.277  0.00  0.00    +0.000 HD
ENDBRANCH   4  13
BRANCH   3  18
ATOM     18  O   UNL     1       1.593   5.882  20.385  0.00  0.00    +0.000 OA
BRANCH  18  19
ATOM     19  C   UNL     1       1.725   7.296  20.515  0.00  0.00    +0.000 C 
BRANCH  19  20
ATOM     20  C   UNL     1       0.829   7.768  21.670  0.00  0.00    +0.000 C 
BRANCH  20  21
ATOM     21  C   UNL     1       0.237   9.144  21.463  0.00  0.00    +0.000 A 
ATOM     22  C   UNL     1      -0.186   9.924  22.548  0.00  0.00    +0.000 A 
ATOM     23  C   UNL     1      -0.794  11.163  22.337  0.00  0.00    +0.000 A 
ATOM     24  C   UNL     1      -0.965  11.646  21.042  0.00  0.00    +0.000 A 
ATOM     25  C   UNL     1      -0.509  10.902  19.957  0.00  0.00    +0.000 A 
ATOM     26  C   UNL     1       0.092   9.659  20.165  0.00  0.00    +0.000 A 
ENDBRANCH  20  21
ENDBRANCH  19  20
ENDBRANCH  18  19
ENDBRANCH   3  18
TORSDOF 6
ENDMDL
MODEL 3
REMARK VINA RESULT:      -7.7      0.498      1.113
REMARK  Name = 
REMARK  7 active torsions:
REMARK  status: ('A' for Active; 'I' for Inactive)
REMARK    1  A    between atoms: C_1  and  C_2
REMARK    2  A    between atoms: N_7  and  C_8
REMARK    3  A    between atoms: C_10  and  O_11
REMARK    4  A    between atoms: O_11  and  C_12
REMARK    5  A    between atoms: C_12  and  C_13
REMARK    6  A    between atoms: C_13  and  C_14
REMARK    7  A    between atoms: C_20  and  C_21
REMARK                            x       y       z     vdW  Elec       q    Type
REMARK                         _______ _______ _______ _____ _____    ______ ____
ROOT
ATOM      1  C   UNL     1       4.258   5.309  18.672  0.00  0.00    +0.000 A 
ATOM      2  C   UNL     1       3.344   6.210  19.202  0.00  0.00    +0.000 A 
ATOM      3  C   UNL     1       2.429   5.628  20.124  0.00  0.00    +0.000 A 
ATOM      4  C   UNL     1       2.675   4.286  20.335  0.00  0.00    +0.000 A 
ATOM      5  S   UNL     1       3.946   3.744  19.336  0.00  0.00    +0.000 S 
ENDROOT
BRANCH   1  12
ATOM      6  C   UNL     1       5.353   6.409  15.430  0.00  0.00    +0.000 C 
ATOM      7  C   UNL     1       5.142   5.182  16.326  0.00  0.00    +0.000 C 
ATOM      8  C   UNL     1       6.179   4.085  16.007  0.00  0.00    +0.000 C 
ATOM      9  O   UNL     1       7.513   4.504  16.339  0.00  0.00    +0.000 OA
ATOM     10  C   UNL     1       7.604   4.780  17.745  0.00  0.00    +0.000 C 
ATOM     11  C   UNL     1       6.626   5.882  18.191  0.00  0.00    +0.000 C 
ATOM     12  N   UNL     1       5.246   5.578  17.754  0.00  0.00    +0.000 N 
ENDBRANCH   1  12
BRANCH   4  13
ATOM     13  C   UNL     1       2.000   3.344  21.214  0.00  0.00    +0.000 C 
ATOM     14  N   UNL     1       0.718   3.010  20.863  0.00  0.00    +0.000 N 
ATOM     15  O   UNL     1       2.481   2.836  22.222  0.00  0.00    +0.000 OA
ATOM     16  H   UNL     1       0.266   3.435  20.061  0.00  0.00    +0.000 HD
ATOM     17  H   UNL     1       0.198   2.378  21.454  0.00  0.00    +0.000 HD
ENDBRANCH   4  13
BRANCH   3  18
ATOM     18  O   UNL     1       1.423   6.232  20.806  0.00  0.00    +0.000 OA
BRANCH  18  19
ATOM     19  C   UNL     1       1.447   7.658  20.785  0.00  0.00    +0.000 C 
BRANCH  19  20
ATOM     20  C   UNL     1       0.343   8.180  21.716  0.00  0.00    +0.000 C 
BRANCH  20  21
ATOM     21  C   UNL     1      -0.073   9.607  21.434  0.00  0.00    +0.000 A 
ATOM     22  C   UNL     1      -0.402  10.486  22.474  0.00  0.00    +0.000 A 
ATOM     23  C   UNL     1      -0.850  11.779  22.195  0.00  0.00    +0.000 A 
ATOM     24  C   UNL     1      -0.951  12.214  20.876  0.00  0.00    +0.000 A 
ATOM     25  C   UNL     1      -0.584  11.366  19.835  0.00  0.00    +0.000 A 
ATOM     26  C   UNL     1      -0.144  10.070  20.111  0.00  0.00    +0.000 A 
ENDBRANCH  20  21
ENDBRANCH  19  20
ENDBRANCH  18  19
ENDBRANCH   3  18
TORSDOF 6
ENDMDL
MODEL 4
REMARK VINA RESULT:      -7.7      4.003      9.243
REMARK  Name = 
REMARK  7 active torsions:
REMARK  status: ('A' for Active; 'I' for Inactive)
REMARK    1  A    between atoms: C_1  and  C_2
REMARK    2  A    between atoms: N_7  and  C_8
REMARK    3  A    between atoms: C_10  and  O_11
REMARK    4  A    between atoms: O_11  and  C_12
REMARK    5  A    between atoms: C_12  and  C_13
REMARK    6  A    between atoms: C_13  and  C_14
REMARK    7  A    between atoms: C_20  and  C_21
REMARK                            x       y       z     vdW  Elec       q    Type
REMARK                         _______ _______ _______ _____ _____    ______ ____
ROOT
ATOM      1  C   UNL     1       3.945   4.121  18.386  0.00  0.00    +0.000 A 
ATOM      2  C   UNL     1       4.159   4.175  17.015  0.00  0.00    +0.000 A 
ATOM      3  C   UNL     1       5.194   5.073  16.628  0.00  0.00    +0.000 A 
ATOM      4  C   UNL     1       5.803   5.673  17.711  0.00  0.00    +0.000 A 
ATOM      5  S   UNL     1       5.041   5.207  19.164  0.00  0.00    +0.000 S 
ENDROOT
BRANCH   1  12
ATOM      6  C   UNL     1       0.820   2.350  18.513  0.00  0.00    +0.000 C 
ATOM      7  C   UNL     1       1.552   3.623  18.957  0.00  0.00    +0.000 C 
ATOM      8  C   UNL     1       1.020   4.114  20.320  0.00  0.00    +0.000 C 
ATOM      9  O   UNL     1       1.320   3.183  21.373  0.00  0.00    +0.000 OA
ATOM     10  C   UNL     1       2.742   3.030  21.501  0.00  0.00    +0.000 C 
ATOM     11  C   UNL     1       3.396   2.520  20.203  0.00  0.00    +0.000 C 
ATOM     12  N   UNL     1       3.011   3.359  19.048  0.00  0.00    +0.000 N 
ENDBRANCH   1  12
BRANCH   4  13
ATOM     13  C   UNL     1       6.910   6.617  17.750  0.00  0.00    +0.000 C 
ATOM     14  N   UNL     1       7.884   6.359  18.677  0.00  0.00    +0.000 N 
ATOM     15  O   UNL     1       7.034   7.603  17.030  0.00  0.00    +0.000 OA
ATOM     16  H   UNL     1       7.804   5.579  19.321  0.00  0.00    +0.000 HD
ATOM     17  H   UNL     1       8.662   6.998  18.761  0.00  0.00    +0.000 HD
ENDBRANCH   4  13
BRANCH   3  18
ATOM     18  O   UNL     1       5.640   5.353  15.378  0.00  0.00    +0.000 OA
BRANCH  18  19
ATOM     19  C   UNL     1       6.652   4.478  14.884  0.00  0.00    +0.000 C 
BRANCH  19  20
ATOM     20  C   UNL     1       6.887   4.788  13.398  0.00  0.00    +0.000 C 
BRANCH  20  21
ATOM     21  C   UNL     1       6.525   3.651  12.470  0.00  0.00    +0.000 A 
ATOM     22  C   UNL     1       5.188   3.344  12.184  0.00  0.00    +0.000 A 
ATOM     23  C   UNL     1       4.867   2.249  11.380  0.00  0.00    +0.000 A 
ATOM     24  C   UNL     1       5.879   1.462  10.834  0.00  0.00    +0.000 A 
ATOM     25  C   UNL     1       7.212   1.782  11.074  0.00  0.00    +0.000 A 
ATOM     26  C   UNL     1       7.535   2.872  11.884  0.00  0.00    +0.000 A 
ENDBRANCH  20  21
ENDBRANCH  19  20
ENDBRANCH  18  19
ENDBRANCH   3  18
TORSDOF 6
ENDMDL
MODEL 5
REMARK VINA RESULT:      -7.7      0.870      1.166
REMARK  Name = 
REMARK  7 active torsions:
REMARK  status: ('A' for Active; 'I' for Inactive)
REMARK    1  A    between atoms: C_1  and  C_2
REMARK    2  A    between atoms: N_7  and  C_8
REMARK    3  A    between atoms: C_10  and  O_11
REMARK    4  A    between atoms: O_11  and  C_12
REMARK    5  A    between atoms: C_12  and  C_13
REMARK    6  A    between atoms: C_13  and  C_14
REMARK    7  A    between atoms: C_20  and  C_21
REMARK                            x       y       z     vdW  Elec       q    Type
REMARK                         _______ _______ _______ _____ _____    ______ ____
ROOT
ATOM      1  C   UNL     1       3.950   5.292  18.311  0.00  0.00    +0.000 A 
ATOM      2  C   UNL     1       3.168   6.261  18.926  0.00  0.00    +0.000 A 
ATOM      3  C   UNL     1       2.336   5.756  19.966  0.00  0.00    +0.000 A 
ATOM      4  C   UNL     1       2.517   4.404  20.176  0.00  0.00    +0.000 A 
ATOM      5  S   UNL     1       3.619   3.762  19.043  0.00  0.00    +0.000 S 
ENDROOT
BRANCH   1  12
ATOM      6  C   UNL     1       5.571   4.195  15.297  0.00  0.00    +0.000 C 
ATOM      7  C   UNL     1       5.753   4.411  16.805  0.00  0.00    +0.000 C 
ATOM      8  C   UNL     1       7.213   4.791  17.131  0.00  0.00    +0.000 C 
ATOM      9  O   UNL     1       7.565   6.069  16.575  0.00  0.00    +0.000 OA
ATOM     10  C   UNL     1       6.724   7.092  17.129  0.00  0.00    +0.000 C 
ATOM     11  C   UNL     1       5.231   6.839  16.851  0.00  0.00    +0.000 C 
ATOM     12  N   UNL     1       4.835   5.478  17.275  0.00  0.00    +0.000 N 
ENDBRANCH   1  12
BRANCH   4  13
ATOM     13  C   UNL     1       1.893   3.523  21.152  0.00  0.00    +0.000 C 
ATOM     14  N   UNL     1       0.697   2.969  20.779  0.00  0.00    +0.000 N 
ATOM     15  O   UNL     1       2.348   3.244  22.256  0.00  0.00    +0.000 OA
ATOM     16  H   UNL     1       0.264   3.202  19.892  0.00  0.00    +0.000 HD
ATOM     17  H   UNL     1       0.211   2.370  21.431  0.00  0.00    +0.000 HD
ENDBRANCH   4  13
BRANCH   3  18
ATOM     18  O   UNL     1       1.464   6.438  20.750  0.00  0.00    +0.000 OA
BRANCH  18  19
ATOM     19  C   UNL     1       1.809   7.798  21.002  0.00  0.00    +0.000 C 
BRANCH  19  20
ATOM     20  C   UNL     1       0.809   8.703  20.265  0.00  0.00    +0.000 C 
BRANCH  20  21
ATOM     21  C   UNL     1       0.132   9.721  21.156  0.00  0.00    +0.000 A 
ATOM     22  C   UNL     1       0.016  11.062  20.767  0.00  0.00    +0.000 A 
ATOM     23  C   UNL     1      -0.550  12.004  21.629  0.00  0.00    +0.000 A 
ATOM     24  C   UNL     1      -1.026  11.611  22.878  0.00  0.00    +0.000 A 
ATOM     25  C   UNL     1      -0.957  10.274  23.258  0.00  0.00    +0.000 A 
ATOM     26  C   UNL     1      -0.384   9.332  22.402  0.00  0.00    +0.000 A 
ENDBRANCH  20  21
ENDBRANCH  19  20
ENDBRANCH  18  19
ENDBRANCH   3  18
TORSDOF 6
ENDMDL
MODEL 6
REMARK VINA RESULT:      -7.7      1.388      1.612
REMARK  Name = 
REMARK  7 active torsions:
REMARK  status: ('A' for Active; 'I' for Inactive)
REMARK    1  A    between atoms: C_1  and  C_2
REMARK    2  A    between atoms: N_7  and  C_8
REMARK    3  A    between atoms: C_10  and  O_11
REMARK    4  A    between atoms: O_11  and  C_12
REMARK    5  A    between atoms: C_12  and  C_13
REMARK    6  A    between atoms: C_13  and  C_14
REMARK    7  A    between atoms: C_20  and  C_21
REMARK                            x       y       z     vdW  Elec       q    Type
REMARK                         _______ _______ _______ _____ _____    ______ ____
ROOT
ATOM      1  C   UNL     1       3.752   5.079  17.583  0.00  0.00    +0.000 A 
ATOM      2  C   UNL     1       3.305   5.880  18.626  0.00  0.00    +0.000 A 
ATOM      3  C   UNL     1       2.252   5.298  19.389  0.00  0.00    +0.000 A 
ATOM      4  C   UNL     1       1.927   4.029  18.956  0.00  0.00    +0.000 A 
ATOM      5  S   UNL     1       2.837   3.613  17.575  0.00  0.00    +0.000 S 
ENDROOT
BRANCH   1  12
ATOM      6  C   UNL     1       5.621   4.383  14.594  0.00  0.00    +0.000 C 
ATOM      7  C   UNL     1       5.661   4.350  16.127  0.00  0.00    +0.000 C 
ATOM      8  C   UNL     1       7.095   4.596  16.643  0.00  0.00    +0.000 C 
ATOM      9  O   UNL     1       7.548   5.925  16.335  0.00  0.00    +0.000 OA
ATOM     10  C   UNL     1       6.696   6.892  16.967  0.00  0.00    +0.000 C 
ATOM     11  C   UNL     1       5.229   6.765  16.516  0.00  0.00    +0.000 C 
ATOM     12  N   UNL     1       4.742   5.378  16.677  0.00  0.00    +0.000 N 
ENDBRANCH   1  12
BRANCH   4  13
ATOM     13  C   UNL     1       0.942   3.093  19.478  0.00  0.00    +0.000 C 
ATOM     14  N   UNL     1       0.783   3.089  20.839  0.00  0.00    +0.000 N 
ATOM     15  O   UNL     1       0.259   2.327  18.807  0.00  0.00    +0.000 OA
ATOM     16  H   UNL     1       1.354   3.677  21.437  0.00  0.00    +0.000 HD
ATOM     17  H   UNL     1       0.129   2.440  21.253  0.00  0.00    +0.000 HD
ENDBRANCH   4  13
BRANCH   3  18
ATOM     18  O   UNL     1       1.603   5.821  20.460  0.00  0.00    +0.000 OA
BRANCH  18  19
ATOM     19  C   UNL     1       2.001   7.140  20.827  0.00  0.00    +0.000 C 
BRANCH  19  20
ATOM     20  C   UNL     1       1.127   8.147  20.063  0.00  0.00    +0.000 C 
BRANCH  20  21
ATOM     21  C   UNL     1       0.440   9.160  20.951  0.00  0.00    +0.000 A 
ATOM     22  C   UNL     1       0.184  10.462  20.503  0.00  0.00    +0.000 A 
ATOM     23  C   UNL     1      -0.389  11.406  21.358  0.00  0.00    +0.000 A 
ATOM     24  C   UNL     1      -0.734  11.052  22.660  0.00  0.00    +0.000 A 
ATOM     25  C   UNL     1      -0.526   9.749  23.103  0.00  0.00    +0.000 A 
ATOM     26  C   UNL     1       0.055   8.806  22.253  0.00  0.00    +0.000 A 
ENDBRANCH  20  21
ENDBRANCH  19  20
ENDBRANCH  18  19
ENDBRANCH   3  18
TORSDOF 6
ENDMDL
MODEL 7
REMARK VINA RESULT:      -7.7      1.731      2.388
REMARK  Name = 
REMARK  7 active torsions:
REMARK  status: ('A' for Active; 'I' for Inactive)
REMARK    1  A    between atoms: C_1  and  C_2
REMARK    2  A    between atoms: N_7  and  C_8
REMARK    3  A    between atoms: C_10  and  O_11
REMARK    4  A    between atoms: O_11  and  C_12
REMARK    5  A    between atoms: C_12  and  C_13
REMARK    6  A    between atoms: C_13  and  C_14
REMARK    7  A    between atoms: C_20  and  C_21
REMARK                            x       y       z     vdW  Elec       q    Type
REMARK                         _______ _______ _______ _____ _____    ______ ____
ROOT
ATOM      1  C   UNL     1       3.758   4.917  17.442  0.00  0.00    +0.000 A 
ATOM      2  C   UNL     1       3.270   5.712  18.471  0.00  0.00    +0.000 A 
ATOM      3  C   UNL     1       2.206   5.116  19.206  0.00  0.00    +0.000 A 
ATOM      4  C   UNL     1       1.910   3.842  18.765  0.00  0.00    +0.000 A 
ATOM      5  S   UNL     1       2.863   3.438  17.410  0.00  0.00    +0.000 S 
ENDROOT
BRANCH   1  12
ATOM      6  C   UNL     1       5.806   4.179  14.582  0.00  0.00    +0.000 C 
ATOM      7  C   UNL     1       5.776   4.236  16.115  0.00  0.00    +0.000 C 
ATOM      8  C   UNL     1       7.165   4.607  16.676  0.00  0.00    +0.000 C 
ATOM      9  O   UNL     1       7.545   5.943  16.309  0.00  0.00    +0.000 OA
ATOM     10  C   UNL     1       6.604   6.885  16.844  0.00  0.00    +0.000 C 
ATOM     11  C   UNL     1       5.171   6.635  16.339  0.00  0.00    +0.000 C 
ATOM     12  N   UNL     1       4.767   5.230  16.562  0.00  0.00    +0.000 N 
ENDBRANCH   1  12
BRANCH   4  13
ATOM     13  C   UNL     1       0.926   2.892  19.261  0.00  0.00    +0.000 C 
ATOM     14  N   UNL     1       0.703   2.912  20.612  0.00  0.00    +0.000 N 
ATOM     15  O   UNL     1       0.293   2.096  18.575  0.00  0.00    +0.000 OA
ATOM     16  H   UNL     1       1.231   3.525  21.223  0.00  0.00    +0.000 HD
ATOM     17  H   UNL     1       0.047   2.255  21.010  0.00  0.00    +0.000 HD
ENDBRANCH   4  13
BRANCH   3  18
ATOM     18  O   UNL     1       1.520   5.630  20.257  0.00  0.00    +0.000 OA
BRANCH  18  19
ATOM     19  C   UNL     1       2.083   6.807  20.832  0.00  0.00    +0.000 C 
BRANCH  19  20
ATOM     20  C   UNL     1       0.946   7.789  21.153  0.00  0.00    +0.000 C 
BRANCH  20  21
ATOM     21  C   UNL     1       0.972   9.050  20.318  0.00  0.00    +0.000 A 
ATOM     22  C   UNL     1       0.425  10.248  20.797  0.00  0.00    +0.000 A 
ATOM     23  C   UNL     1       0.395  11.387  19.989  0.00  0.00    +0.000 A 
ATOM     24  C   UNL     1       0.932  11.347  18.704  0.00  0.00    +0.000 A 
ATOM     25  C   UNL     1       1.519  10.176  18.234  0.00  0.00    +0.000 A 
ATOM     26  C   UNL     1       1.542   9.033  19.036  0.00  0.00    +0.000 A 
ENDBRANCH  20  21
ENDBRANCH  19  20
ENDBRANCH  18  19
ENDBRANCH   3  18
TORSDOF 6
ENDMDL
MODEL 8
REMARK VINA RESULT:      -7.7      3.766      9.244
REMARK  Name = 
REMARK  7 active torsions:
REMARK  status: ('A' for Active; 'I' for Inactive)
REMARK    1  A    between atoms: C_1  and  C_2
REMARK    2  A    between atoms: N_7  and  C_8
REMARK    3  A    between atoms: C_10  and  O_11
REMARK    4  A    between atoms: O_11  and  C_12
REMARK    5  A    between atoms: C_12  and  C_13
REMARK    6  A    between atoms: C_13  and  C_14
REMARK    7  A    between atoms: C_20  and  C_21
REMARK                            x       y       z     vdW  Elec       q    Type
REMARK                         _______ _______ _______ _____ _____    ______ ____
ROOT
ATOM      1  C   UNL     1       4.069   4.913  18.066  0.00  0.00    +0.000 A 
ATOM      2  C   UNL     1       4.460   4.921  16.733  0.00  0.00    +0.000 A 
ATOM      3  C   UNL     1       5.670   5.632  16.492  0.00  0.00    +0.000 A 
ATOM      4  C   UNL     1       6.229   6.129  17.651  0.00  0.00    +0.000 A 
ATOM      5  S   UNL     1       5.224   5.807  18.991  0.00  0.00    +0.000 S 
ENDROOT
BRANCH   1  12
ATOM      6  C   UNL     1       1.371   4.797  20.436  0.00  0.00    +0.000 C 
ATOM      7  C   UNL     1       2.725   4.186  20.057  0.00  0.00    +0.000 C 
ATOM      8  C   UNL     1       2.788   2.699  20.463  0.00  0.00    +0.000 C 
ATOM      9  O   UNL     1       1.852   1.905  19.716  0.00  0.00    +0.000 OA
ATOM     10  C   UNL     1       2.158   1.976  18.315  0.00  0.00    +0.000 C 
ATOM     11  C   UNL     1       2.108   3.418  17.777  0.00  0.00    +0.000 C 
ATOM     12  N   UNL     1       2.946   4.321  18.595  0.00  0.00    +0.000 N 
ENDBRANCH   1  12
BRANCH   4  13
ATOM     13  C   UNL     1       7.464   6.876  17.841  0.00  0.00    +0.000 C 
ATOM     14  N   UNL     1       8.213   6.525  18.933  0.00  0.00    +0.000 N 
ATOM     15  O   UNL     1       7.875   7.774  17.114  0.00  0.00    +0.000 OA
ATOM     16  H   UNL     1       7.893   5.817  19.584  0.00  0.00    +0.000 HD
ATOM     17  H   UNL     1       9.067   7.030  19.123  0.00  0.00    +0.000 HD
ENDBRANCH   4  13
BRANCH   3  18
ATOM     18  O   UNL     1       6.310   5.824  15.311  0.00  0.00    +0.000 OA
BRANCH  18  19
ATOM     19  C   UNL     1       6.942   4.668  14.767  0.00  0.00    +0.000 C 
BRANCH  19  20
ATOM     20  C   UNL     1       7.120   4.872  13.255  0.00  0.00    +0.000 C 
BRANCH  20  21
ATOM     21  C   UNL     1       6.648   3.702  12.419  0.00  0.00    +0.000 A 
ATOM     22  C   UNL     1       5.283   3.455  12.223  0.00  0.00    +0.000 A 
ATOM     23  C   UNL     1       4.862   2.333  11.506  0.00  0.00    +0.000 A 
ATOM     24  C   UNL     1       5.799   1.460  10.960  0.00  0.00    +0.000 A 
ATOM     25  C   UNL     1       7.159   1.719  11.109  0.00  0.00    +0.000 A 
ATOM     26  C   UNL     1       7.583   2.835  11.832  0.00  0.00    +0.000 A 
ENDBRANCH  20  21
ENDBRANCH  19  20
ENDBRANCH  18  19
ENDBRANCH   3  18
TORSDOF 6
ENDMDL
MODEL 9
REMARK VINA RESULT:      -7.6      0.823      1.582
REMARK  Name = 
REMARK  7 active torsions:
REMARK  status: ('A' for Active; 'I' for Inactive)
REMARK    1  A    between atoms: C_1  and  C_2
REMARK    2  A    between atoms: N_7  and  C_8
REMARK    3  A    between atoms: C_10  and  O_11
REMARK    4  A    between atoms: O_11  and  C_12
REMARK    5  A    between atoms: C_12  and  C_13
REMARK    6  A    between atoms: C_13  and  C_14
REMARK    7  A    between atoms: C_20  and  C_21
REMARK                            x       y       z     vdW  Elec       q    Type
REMARK                         _______ _______ _______ _____ _____    ______ ____
ROOT
ATOM      1  C   UNL     1       4.436   5.163  18.637  0.00  0.00    +0.000 A 
ATOM      2  C   UNL     1       3.523   6.086  19.128  0.00  0.00    +0.000 A 
ATOM      3  C   UNL     1       2.574   5.532  20.035  0.00  0.00    +0.000 A 
ATOM      4  C   UNL     1       2.793   4.191  20.272  0.00  0.00    +0.000 A 
ATOM      5  S   UNL     1       4.082   3.613  19.315  0.00  0.00    +0.000 S 
ENDROOT
BRANCH   1  12
ATOM      6  C   UNL     1       7.067   7.220  17.311  0.00  0.00    +0.000 C 
ATOM      7  C   UNL     1       5.639   6.715  17.074  0.00  0.00    +0.000 C 
ATOM      8  C   UNL     1       5.348   6.582  15.564  0.00  0.00    +0.000 C 
ATOM      9  O   UNL     1       6.159   5.564  14.955  0.00  0.00    +0.000 OA
ATOM     10  C   UNL     1       5.879   4.291  15.556  0.00  0.00    +0.000 C 
ATOM     11  C   UNL     1       6.151   4.284  17.071  0.00  0.00    +0.000 C 
ATOM     12  N   UNL     1       5.453   5.402  17.742  0.00  0.00    +0.000 N 
ENDBRANCH   1  12
BRANCH   4  13
ATOM     13  C   UNL     1       2.079   3.273  21.147  0.00  0.00    +0.000 C 
ATOM     14  N   UNL     1       0.759   3.066  20.848  0.00  0.00    +0.000 N 
ATOM     15  O   UNL     1       2.561   2.682  22.108  0.00  0.00    +0.000 OA
ATOM     16  H   UNL     1       0.308   3.563  20.087  0.00  0.00    +0.000 HD
ATOM     17  H   UNL     1       0.213   2.456  21.439  0.00  0.00    +0.000 HD
ENDBRANCH   4  13
BRANCH   3  18
ATOM     18  O   UNL     1       1.561   6.163  20.680  0.00  0.00    +0.000 OA
BRANCH  18  19
ATOM     19  C   UNL     1       1.534   7.580  20.529  0.00  0.00    +0.000 C 
BRANCH  19  20
ATOM     20  C   UNL     1       0.937   8.198  21.802  0.00  0.00    +0.000 C 
BRANCH  20  21
ATOM     21  C   UNL     1       0.177   9.484  21.562  0.00  0.00    +0.000 A 
ATOM     22  C   UNL     1      -0.314  10.247  22.629  0.00  0.00    +0.000 A 
ATOM     23  C   UNL     1      -1.072  11.395  22.391  0.00  0.00    +0.000 A 
ATOM     24  C   UNL     1      -1.328  11.805  21.084  0.00  0.00    +0.000 A 
ATOM     25  C   UNL     1      -0.808  11.081  20.015  0.00  0.00    +0.000 A 
ATOM     26  C   UNL     1      -0.056   9.928  20.251  0.00  0.00    +0.000 A 
ENDBRANCH  20  21
ENDBRANCH  19  20
ENDBRANCH  18  19
ENDBRANCH   3  18
TORSDOF 6
ENDMDL
