MODEL 1
REMARK VINA RESULT:      -8.4      0.000      0.000
REMARK  Name = 
REMARK  12 active torsions:
REMARK  status: ('A' for Active; 'I' for Inactive)
REMARK    1  A    between atoms: C_1  and  C_2
REMARK    2  A    between atoms: C_2  and  C_3
REMARK    3  A    between atoms: C_3  and  C_4
REMARK    4  A    between atoms: C_4  and  C_5
REMARK    5  A    between atoms: C_5  and  N_6
REMARK    6  A    between atoms: N_9  and  S_10
REMARK    7  A    between atoms: S_10  and  C_13
REMARK    8  A    between atoms: C_15  and  N_16
REMARK    9  A    between atoms: C_21  and  N_22
REMARK   10  A    between atoms: N_22  and  C_23
REMARK   11  A    between atoms: C_25  and  C_26
REMARK   12  A    between atoms: C_28  and  C_29
REMARK                            x       y       z     vdW  Elec       q    Type
REMARK                         _______ _______ _______ _____ _____    ______ ____
ROOT
ATOM      1  C   UNL     1       6.830   5.958  17.066  0.00  0.00    +0.000 A 
ATOM      2  C   UNL     1       7.408   7.247  17.055  0.00  0.00    +0.000 A 
ATOM      3  C   UNL     1       8.056   7.740  18.207  0.00  0.00    +0.000 A 
ATOM      4  C   UNL     1       8.208   6.947  19.338  0.00  0.00    +0.000 A 
ATOM      5  C   UNL     1       7.668   5.674  19.330  0.00  0.00    +0.000 A 
ATOM      6  C   UNL     1       6.859   5.212  18.263  0.00  0.00    +0.000 A 
ENDROOT
BRANCH   1   7
ATOM      7  S   UNL     1       5.826   5.490  15.655  0.00  0.00    +0.000 S 
ATOM      8  O   UNL     1       5.082   6.669  15.272  0.00  0.00    +0.000 OA
ATOM      9  O   UNL     1       5.143   4.263  16.002  0.00  0.00    +0.000 OA
BRANCH   7  13
ATOM     10  N   UNL     1       5.422   3.918  13.033  0.00  0.00    +0.000 N 
ATOM     11  C   UNL     1       6.647   4.512  13.170  0.00  0.00    +0.000 C 
ATOM     12  O   UNL     1       7.548   4.488  12.358  0.00  0.00    +0.000 OA
ATOM     13  N   UNL     1       6.848   5.165  14.390  0.00  0.00    +0.000 N 
ATOM     14  H   UNL     1       4.685   4.309  13.604  0.00  0.00    +0.000 HD
ATOM     15  H   UNL     1       7.738   5.666  14.459  0.00  0.00    +0.000 HD
BRANCH  10  16
ATOM     16  C   UNL     1       4.969   3.225  11.834  0.00  0.00    +0.000 C 
BRANCH  16  17
ATOM     17  C   UNL     1       3.608   3.642  11.275  0.00  0.00    +0.000 C 
BRANCH  17  18
ATOM     18  C   UNL     1       3.209   3.071   9.913  0.00  0.00    +0.000 C 
BRANCH  18  20
ATOM     19  C   UNL     1       2.049   5.129   9.110  0.00  0.00    +0.000 C 
ATOM     20  C   UNL     1       3.103   4.079   8.770  0.00  0.00    +0.000 C 
ENDBRANCH  18  20
ENDBRANCH  17  18
ENDBRANCH  16  17
ENDBRANCH  10  16
ENDBRANCH   7  13
ENDBRANCH   1   7
BRANCH   3  21
ATOM     21  N   UNL     1       8.555   9.121  18.255  0.00  0.00    +0.000 N 
ATOM     22  O   UNL     1       8.170   9.897  17.373  0.00  0.00    +0.000 OA
ATOM     23  O   UNL     1       9.324   9.422  19.180  0.00  0.00    +0.000 OA
ENDBRANCH   3  21
BRANCH   6  24
ATOM     24  N   UNL     1       6.107   4.032  18.533  0.00  0.00    +0.000 N 
ATOM     25  H   UNL     1       6.076   3.405  17.714  0.00  0.00    +0.000 HD
BRANCH  24  26
ATOM     26  C   UNL     1       4.769   4.113  19.036  0.00  0.00    +0.000 A 
ATOM     27  C   UNL     1       4.169   5.349  19.341  0.00  0.00    +0.000 A 
ATOM     28  C   UNL     1       2.838   5.448  19.754  0.00  0.00    +0.000 A 
ATOM     29  C   UNL     1       2.289   6.811  20.075  0.00  0.00    +0.000 C 
ATOM     30  C   UNL     1       2.047   4.293  19.729  0.00  0.00    +0.000 A 
ATOM     31  C   UNL     1       2.614   3.059  19.359  0.00  0.00    +0.000 A 
ATOM     32  C   UNL     1       1.791   1.826  19.128  0.00  0.00    +0.000 C 
ATOM     33  C   UNL     1       3.987   2.969  19.089  0.00  0.00    +0.000 A 
ENDBRANCH  24  26
ENDBRANCH   6  24
TORSDOF 9
ENDMDL
MODEL 2
REMARK VINA RESULT:      -7.8      7.416     10.643
REMARK  Name = 
REMARK  12 active torsions:
REMARK  status: ('A' for Active; 'I' for Inactive)
REMARK    1  A    between atoms: C_1  and  C_2
REMARK    2  A    between atoms: C_2  and  C_3
REMARK    3  A    between atoms: C_3  and  C_4
REMARK    4  A    between atoms: C_4  and  C_5
REMARK    5  A    between atoms: C_5  and  N_6
REMARK    6  A    between atoms: N_9  and  S_10
REMARK    7  A    between atoms: S_10  and  C_13
REMARK    8  A    between atoms: C_15  and  N_16
REMARK    9  A    between atoms: C_21  and  N_22
REMARK   10  A    between atoms: N_22  and  C_23
REMARK   11  A    between atoms: C_25  and  C_26
REMARK   12  A    between atoms: C_28  and  C_29
REMARK                            x       y       z     vdW  Elec       q    Type
REMARK                         _______ _______ _______ _____ _____    ______ ____
ROOT
ATOM      1  C   UNL     1      -0.437  10.459  20.339  0.00  0.00    +0.000 A 
ATOM      2  C   UNL     1      -1.009  10.094  19.101  0.00  0.00    +0.000 A 
ATOM      3  C   UNL     1      -1.956  10.937  18.483  0.00  0.00    +0.000 A 
ATOM      4  C   UNL     1      -2.283  12.170  19.034  0.00  0.00    +0.000 A 
ATOM      5  C   UNL     1      -1.696  12.536  20.231  0.00  0.00    +0.000 A 
ATOM      6  C   UNL     1      -0.880  11.643  20.968  0.00  0.00    +0.000 A 
ENDROOT
BRANCH   1   7
ATOM      7  S   UNL     1       0.577   9.238  21.175  0.00  0.00    +0.000 S 
ATOM      8  O   UNL     1      -0.314   8.175  21.582  0.00  0.00    +0.000 OA
ATOM      9  O   UNL     1       1.384   9.942  22.148  0.00  0.00    +0.000 OA
BRANCH   7  13
ATOM     10  N   UNL     1       1.755   6.403  20.887  0.00  0.00    +0.000 N 
ATOM     11  C   UNL     1       2.079   7.269  19.880  0.00  0.00    +0.000 C 
ATOM     12  O   UNL     1       2.751   7.013  18.903  0.00  0.00    +0.000 OA
ATOM     13  N   UNL     1       1.599   8.572  20.050  0.00  0.00    +0.000 N 
ATOM     14  H   UNL     1       0.931   6.647  21.420  0.00  0.00    +0.000 HD
ATOM     15  H   UNL     1       1.784   9.198  19.262  0.00  0.00    +0.000 HD
BRANCH  10  16
ATOM     16  C   UNL     1       2.101   4.987  20.903  0.00  0.00    +0.000 C 
BRANCH  16  17
ATOM     17  C   UNL     1       1.033   4.016  20.399  0.00  0.00    +0.000 C 
BRANCH  17  18
ATOM     18  C   UNL     1       1.172   3.514  18.960  0.00  0.00    +0.000 C 
BRANCH  18  20
ATOM     19  C   UNL     1       2.844   2.115  17.745  0.00  0.00    +0.000 C 
ATOM     20  C   UNL     1       1.736   2.104  18.795  0.00  0.00    +0.000 C 
ENDBRANCH  18  20
ENDBRANCH  17  18
ENDBRANCH  16  17
ENDBRANCH  10  16
ENDBRANCH   7  13
ENDBRANCH   1   7
BRANCH   3  21
ATOM     21  N   UNL     1      -2.650  10.517  17.258  0.00  0.00    +0.000 N 
ATOM     22  O   UNL     1      -2.443  11.176  16.232  0.00  0.00    +0.000 OA
ATOM     23  O   UNL     1      -3.391   9.526  17.329  0.00  0.00    +0.000 OA
ENDBRANCH   3  21
BRANCH   6  24
ATOM     24  N   UNL     1      -0.620  12.023  22.316  0.00  0.00    +0.000 N 
ATOM     25  H   UNL     1      -0.386  11.208  22.903  0.00  0.00    +0.000 HD
BRANCH  24  26
ATOM     26  C   UNL     1      -1.569  12.799  23.056  0.00  0.00    +0.000 A 
ATOM     27  C   UNL     1      -2.808  12.266  23.456  0.00  0.00    +0.000 A 
ATOM     28  C   UNL     1      -3.707  12.984  24.249  0.00  0.00    +0.000 A 
ATOM     29  C   UNL     1      -5.014  12.337  24.612  0.00  0.00    +0.000 C 
ATOM     30  C   UNL     1      -3.296  14.218  24.767  0.00  0.00    +0.000 A 
ATOM     31  C   UNL     1      -2.030  14.736  24.433  0.00  0.00    +0.000 A 
ATOM     32  C   UNL     1      -1.451  15.951  25.097  0.00  0.00    +0.000 C 
ATOM     33  C   UNL     1      -1.210  14.056  23.521  0.00  0.00    +0.000 A 
ENDBRANCH  24  26
ENDBRANCH   6  24
TORSDOF 9
ENDMDL
MODEL 3
REMARK VINA RESULT:      -7.6      3.200      6.252
REMARK  Name = 
REMARK  12 active torsions:
REMARK  status: ('A' for Active; 'I' for Inactive)
REMARK    1  A    between atoms: C_1  and  C_2
REMARK    2  A    between atoms: C_2  and  C_3
REMARK    3  A    between atoms: C_3  and  C_4
REMARK    4  A    between atoms: C_4  and  C_5
REMARK    5  A    between atoms: C_5  and  N_6
REMARK    6  A    between atoms: N_9  and  S_10
REMARK    7  A    between atoms: S_10  and  C_13
REMARK    8  A    between atoms: C_15  and  N_16
REMARK    9  A    between atoms: C_21  and  N_22
REMARK   10  A    between atoms: N_22  and  C_23
REMARK   11  A    between atoms: C_25  and  C_26
REMARK   12  A    between atoms: C_28  and  C_29
REMARK                            x       y       z     vdW  Elec       q    Type
REMARK                         _______ _______ _______ _____ _____    ______ ____
ROOT
ATOM      1  C   UNL     1       2.692   5.887  18.578  0.00  0.00    +0.000 A 
ATOM      2  C   UNL     1       2.500   4.555  18.150  0.00  0.00    +0.000 A 
ATOM      3  C   UNL     1       1.707   3.674  18.915  0.00  0.00    +0.000 A 
ATOM      4  C   UNL     1       1.039   4.115  20.051  0.00  0.00    +0.000 A 
ATOM      5  C   UNL     1       1.206   5.429  20.447  0.00  0.00    +0.000 A 
ATOM      6  C   UNL     1       2.132   6.290  19.809  0.00  0.00    +0.000 A 
ENDROOT
BRANCH   1   7
ATOM      7  S   UNL     1       3.894   6.877  17.688  0.00  0.00    +0.000 S 
ATOM      8  O   UNL     1       3.678   8.247  18.094  0.00  0.00    +0.000 OA
ATOM      9  O   UNL     1       3.818   6.496  16.295  0.00  0.00    +0.000 OA
BRANCH   7  13
ATOM     10  N   UNL     1       6.137   5.140  16.480  0.00  0.00    +0.000 N 
ATOM     11  C   UNL     1       6.446   5.738  17.670  0.00  0.00    +0.000 C 
ATOM     12  O   UNL     1       7.505   5.661  18.257  0.00  0.00    +0.000 OA
ATOM     13  N   UNL     1       5.402   6.468  18.247  0.00  0.00    +0.000 N 
ATOM     14  H   UNL     1       5.382   5.568  15.963  0.00  0.00    +0.000 HD
ATOM     15  H   UNL     1       5.659   6.971  19.101  0.00  0.00    +0.000 HD
BRANCH  10  16
ATOM     16  C   UNL     1       7.077   4.372  15.673  0.00  0.00    +0.000 C 
BRANCH  16  17
ATOM     17  C   UNL     1       6.894   4.443  14.156  0.00  0.00    +0.000 C 
BRANCH  17  18
ATOM     18  C   UNL     1       5.658   3.757  13.571  0.00  0.00    +0.000 C 
BRANCH  18  20
ATOM     19  C   UNL     1       4.420   3.239  11.467  0.00  0.00    +0.000 C 
ATOM     20  C   UNL     1       5.791   3.248  12.137  0.00  0.00    +0.000 C 
ENDBRANCH  18  20
ENDBRANCH  17  18
ENDBRANCH  16  17
ENDBRANCH  10  16
ENDBRANCH   7  13
ENDBRANCH   1   7
BRANCH   3  21
ATOM     21  N   UNL     1       1.595   2.254  18.550  0.00  0.00    +0.000 N 
ATOM     22  O   UNL     1       0.474   1.737  18.613  0.00  0.00    +0.000 OA
ATOM     23  O   UNL     1       2.629   1.670  18.194  0.00  0.00    +0.000 OA
ENDBRANCH   3  21
BRANCH   6  24
ATOM     24  N   UNL     1       2.440   7.488  20.516  0.00  0.00    +0.000 N 
ATOM     25  H   UNL     1       2.757   7.292  21.478  0.00  0.00    +0.000 HD
BRANCH  24  26
ATOM     26  C   UNL     1       1.483   8.550  20.611  0.00  0.00    +0.000 A 
ATOM     27  C   UNL     1       0.883   9.107  19.467  0.00  0.00    +0.000 A 
ATOM     28  C   UNL     1      -0.112  10.086  19.549  0.00  0.00    +0.000 A 
ATOM     29  C   UNL     1      -0.683  10.634  18.272  0.00  0.00    +0.000 C 
ATOM     30  C   UNL     1      -0.614  10.417  20.813  0.00  0.00    +0.000 A 
ATOM     31  C   UNL     1      -0.072   9.817  21.966  0.00  0.00    +0.000 A 
ATOM     32  C   UNL     1      -0.682   9.980  23.327  0.00  0.00    +0.000 C 
ATOM     33  C   UNL     1       1.022   8.947  21.858  0.00  0.00    +0.000 A 
ENDBRANCH  24  26
ENDBRANCH   6  24
TORSDOF 9
ENDMDL
MODEL 4
REMARK VINA RESULT:      -7.6      3.222      5.853
REMARK  Name = 
REMARK  12 active torsions:
REMARK  status: ('A' for Active; 'I' for Inactive)
REMARK    1  A    between atoms: C_1  and  C_2
REMARK    2  A    between atoms: C_2  and  C_3
REMARK    3  A    between atoms: C_3  and  C_4
REMARK    4  A    between atoms: C_4  and  C_5
REMARK    5  A    between atoms: C_5  and  N_6
REMARK    6  A    between atoms: N_9  and  S_10
REMARK    7  A    between atoms: S_10  and  C_13
REMARK    8  A    between atoms: C_15  and  N_16
REMARK    9  A    between atoms: C_21  and  N_22
REMARK   10  A    between atoms: N_22  and  C_23
REMARK   11  A    between atoms: C_25  and  C_26
REMARK   12  A    between atoms: C_28  and  C_29
REMARK                            x       y       z     vdW  Elec       q    Type
REMARK                         _______ _______ _______ _____ _____    ______ ____
ROOT
ATOM      1  C   UNL     1       3.707   4.865  19.329  0.00  0.00    +0.000 A 
ATOM      2  C   UNL     1       3.568   3.734  20.163  0.00  0.00    +0.000 A 
ATOM      3  C   UNL     1       2.377   3.534  20.891  0.00  0.00    +0.000 A 
ATOM      4  C   UNL     1       1.295   4.393  20.743  0.00  0.00    +0.000 A 
ATOM      5  C   UNL     1       1.426   5.481  19.900  0.00  0.00    +0.000 A 
ATOM      6  C   UNL     1       2.661   5.813  19.293  0.00  0.00    +0.000 A 
ENDROOT
BRANCH   1   7
ATOM      7  S   UNL     1       5.324   5.178  18.620  0.00  0.00    +0.000 S 
ATOM      8  O   UNL     1       5.800   3.912  18.110  0.00  0.00    +0.000 OA
ATOM      9  O   UNL     1       6.088   5.917  19.601  0.00  0.00    +0.000 OA
BRANCH   7  13
ATOM     10  N   UNL     1       6.340   4.952  15.717  0.00  0.00    +0.000 N 
ATOM     11  C   UNL     1       5.519   6.018  15.961  0.00  0.00    +0.000 C 
ATOM     12  O   UNL     1       5.152   6.841  15.149  0.00  0.00    +0.000 OA
ATOM     13  N   UNL     1       5.117   6.154  17.294  0.00  0.00    +0.000 N 
ATOM     14  H   UNL     1       6.267   4.190  16.376  0.00  0.00    +0.000 HD
ATOM     15  H   UNL     1       4.447   6.911  17.459  0.00  0.00    +0.000 HD
BRANCH  10  16
ATOM     16  C   UNL     1       6.844   4.582  14.400  0.00  0.00    +0.000 C 
BRANCH  16  17
ATOM     17  C   UNL     1       5.810   4.089  13.386  0.00  0.00    +0.000 C 
BRANCH  17  18
ATOM     18  C   UNL     1       6.339   3.338  12.163  0.00  0.00    +0.000 C 
BRANCH  18  20
ATOM     19  C   UNL     1       4.034   3.164  11.222  0.00  0.00    +0.000 C 
ATOM     20  C   UNL     1       5.342   2.416  11.462  0.00  0.00    +0.000 C 
ENDBRANCH  18  20
ENDBRANCH  17  18
ENDBRANCH  16  17
ENDBRANCH  10  16
ENDBRANCH   7  13
ENDBRANCH   1   7
BRANCH   3  21
ATOM     21  N   UNL     1       2.262   2.430  21.855  0.00  0.00    +0.000 N 
ATOM     22  O   UNL     1       1.151   2.228  22.358  0.00  0.00    +0.000 OA
ATOM     23  O   UNL     1       3.283   1.769  22.094  0.00  0.00    +0.000 OA
ENDBRANCH   3  21
BRANCH   6  24
ATOM     24  N   UNL     1       2.735   7.120  18.731  0.00  0.00    +0.000 N 
ATOM     25  H   UNL     1       3.700   7.483  18.736  0.00  0.00    +0.000 HD
BRANCH  24  26
ATOM     26  C   UNL     1       1.900   8.177  19.218  0.00  0.00    +0.000 A 
ATOM     27  C   UNL     1       1.053   8.903  18.361  0.00  0.00    +0.000 A 
ATOM     28  C   UNL     1       0.172   9.879  18.836  0.00  0.00    +0.000 A 
ATOM     29  C   UNL     1      -0.681  10.616  17.842  0.00  0.00    +0.000 C 
ATOM     30  C   UNL     1       0.039  10.036  20.221  0.00  0.00    +0.000 A 
ATOM     31  C   UNL     1       0.829   9.267  21.096  0.00  0.00    +0.000 A 
ATOM     32  C   UNL     1       0.607   9.245  22.580  0.00  0.00    +0.000 C 
ATOM     33  C   UNL     1       1.805   8.400  20.585  0.00  0.00    +0.000 A 
ENDBRANCH  24  26
ENDBRANCH   6  24
TORSDOF 9
ENDMDL
MODEL 5
REMARK VINA RESULT:      -7.5      3.766      7.626
REMARK  Name = 
REMARK  12 active torsions:
REMARK  status: ('A' for Active; 'I' for Inactive)
REMARK    1  A    between atoms: C_1  and  C_2
REMARK    2  A    between atoms: C_2  and  C_3
REMARK    3  A    between atoms: C_3  and  C_4
REMARK    4  A    between atoms: C_4  and  C_5
REMARK    5  A    between atoms: C_5  and  N_6
REMARK    6  A    between atoms: N_9  and  S_10
REMARK    7  A    between atoms: S_10  and  C_13
REMARK    8  A    between atoms: C_15  and  N_16
REMARK    9  A    between atoms: C_21  and  N_22
REMARK   10  A    between atoms: N_22  and  C_23
REMARK   11  A    between atoms: C_25  and  C_26
REMARK   12  A    between atoms: C_28  and  C_29
REMARK                            x       y       z     vdW  Elec       q    Type
REMARK                         _______ _______ _______ _____ _____    ______ ____
ROOT
ATOM      1  C   UNL     1       4.097   5.057  17.260  0.00  0.00    +0.000 A 
ATOM      2  C   UNL     1       3.914   3.703  17.621  0.00  0.00    +0.000 A 
ATOM      3  C   UNL     1       2.726   3.297  18.262  0.00  0.00    +0.000 A 
ATOM      4  C   UNL     1       1.686   4.193  18.479  0.00  0.00    +0.000 A 
ATOM      5  C   UNL     1       1.859   5.510  18.094  0.00  0.00    +0.000 A 
ATOM      6  C   UNL     1       3.100   5.992  17.613  0.00  0.00    +0.000 A 
ENDROOT
BRANCH   1   7
ATOM      7  S   UNL     1       5.716   5.543  16.664  0.00  0.00    +0.000 S 
ATOM      8  O   UNL     1       5.700   6.985  16.562  0.00  0.00    +0.000 OA
ATOM      9  O   UNL     1       6.015   4.722  15.511  0.00  0.00    +0.000 OA
BRANCH   7  13
ATOM     10  N   UNL     1       7.766   7.289  18.169  0.00  0.00    +0.000 N 
ATOM     11  C   UNL     1       7.704   5.986  18.579  0.00  0.00    +0.000 C 
ATOM     12  O   UNL     1       8.352   5.485  19.473  0.00  0.00    +0.000 OA
ATOM     13  N   UNL     1       6.822   5.183  17.847  0.00  0.00    +0.000 N 
ATOM     14  H   UNL     1       6.948   7.629  17.682  0.00  0.00    +0.000 HD
ATOM     15  H   UNL     1       6.727   4.227  18.202  0.00  0.00    +0.000 HD
BRANCH  10  16
ATOM     16  C   UNL     1       8.574   8.319  18.810  0.00  0.00    +0.000 C 
BRANCH  16  17
ATOM     17  C   UNL     1       8.627   9.679  18.112  0.00  0.00    +0.000 C 
BRANCH  17  18
ATOM     18  C   UNL     1       9.461  10.773  18.782  0.00  0.00    +0.000 C 
BRANCH  18  20
ATOM     19  C   UNL     1      11.755  11.738  18.593  0.00  0.00    +0.000 C 
ATOM     20  C   UNL     1      10.427  11.529  17.871  0.00  0.00    +0.000 C 
ENDBRANCH  18  20
ENDBRANCH  17  18
ENDBRANCH  16  17
ENDBRANCH  10  16
ENDBRANCH   7  13
ENDBRANCH   1   7
BRANCH   3  21
ATOM     21  N   UNL     1       2.570   1.920  18.753  0.00  0.00    +0.000 N 
ATOM     22  O   UNL     1       1.602   1.682  19.484  0.00  0.00    +0.000 OA
ATOM     23  O   UNL     1       3.414   1.085  18.395  0.00  0.00    +0.000 OA
ENDBRANCH   3  21
BRANCH   6  24
ATOM     24  N   UNL     1       3.231   7.410  17.572  0.00  0.00    +0.000 N 
ATOM     25  H   UNL     1       4.198   7.709  17.769  0.00  0.00    +0.000 HD
BRANCH  24  26
ATOM     26  C   UNL     1       2.376   8.249  18.357  0.00  0.00    +0.000 A 
ATOM     27  C   UNL     1       1.960   7.876  19.648  0.00  0.00    +0.000 A 
ATOM     28  C   UNL     1       1.195   8.721  20.457  0.00  0.00    +0.000 A 
ATOM     29  C   UNL     1       0.783   8.229  21.816  0.00  0.00    +0.000 C 
ATOM     30  C   UNL     1       0.955  10.026  20.013  0.00  0.00    +0.000 A 
ATOM     31  C   UNL     1       1.425  10.439  18.752  0.00  0.00    +0.000 A 
ATOM     32  C   UNL     1       1.371  11.868  18.296  0.00  0.00    +0.000 C 
ATOM     33  C   UNL     1       2.065   9.523  17.906  0.00  0.00    +0.000 A 
ENDBRANCH  24  26
ENDBRANCH   6  24
TORSDOF 9
ENDMDL
MODEL 6
REMARK VINA RESULT:      -7.5      3.181      5.914
REMARK  Name = 
REMARK  12 active torsions:
REMARK  status: ('A' for Active; 'I' for Inactive)
REMARK    1  A    between atoms: C_1  and  C_2
REMARK    2  A    between atoms: C_2  and  C_3
REMARK    3  A    between atoms: C_3  and  C_4
REMARK    4  A    between atoms: C_4  and  C_5
REMARK    5  A    between atoms: C_5  and  N_6
REMARK    6  A    between atoms: N_9  and  S_10
REMARK    7  A    between atoms: S_10  and  C_13
REMARK    8  A    between atoms: C_15  and  N_16
REMARK    9  A    between atoms: C_21  and  N_22
REMARK   10  A    between atoms: N_22  and  C_23
REMARK   11  A    between atoms: C_25  and  C_26
REMARK   12  A    between atoms: C_28  and  C_29
REMARK                            x       y       z     vdW  Elec       q    Type
REMARK                         _______ _______ _______ _____ _____    ______ ____
ROOT
ATOM      1  C   UNL     1       3.095   5.149  18.846  0.00  0.00    +0.000 A 
ATOM      2  C   UNL     1       3.213   3.905  19.505  0.00  0.00    +0.000 A 
ATOM      3  C   UNL     1       2.624   3.717  20.772  0.00  0.00    +0.000 A 
ATOM      4  C   UNL     1       1.854   4.714  21.358  0.00  0.00    +0.000 A 
ATOM      5  C   UNL     1       1.715   5.918  20.693  0.00  0.00    +0.000 A 
ATOM      6  C   UNL     1       2.436   6.206  19.509  0.00  0.00    +0.000 A 
ENDROOT
BRANCH   1   7
ATOM      7  S   UNL     1       4.060   5.391  17.354  0.00  0.00    +0.000 S 
ATOM      8  O   UNL     1       4.079   6.815  17.104  0.00  0.00    +0.000 OA
ATOM      9  O   UNL     1       3.554   4.470  16.360  0.00  0.00    +0.000 OA
BRANCH   7  13
ATOM     10  N   UNL     1       6.481   4.837  15.526  0.00  0.00    +0.000 N 
ATOM     11  C   UNL     1       6.744   4.783  16.867  0.00  0.00    +0.000 C 
ATOM     12  O   UNL     1       7.823   4.564  17.376  0.00  0.00    +0.000 OA
ATOM     13  N   UNL     1       5.629   4.967  17.690  0.00  0.00    +0.000 N 
ATOM     14  H   UNL     1       5.656   5.360  15.267  0.00  0.00    +0.000 HD
ATOM     15  H   UNL     1       5.842   4.995  18.691  0.00  0.00    +0.000 HD
BRANCH  10  16
ATOM     16  C   UNL     1       7.491   4.724  14.480  0.00  0.00    +0.000 C 
BRANCH  16  17
ATOM     17  C   UNL     1       6.987   4.384  13.077  0.00  0.00    +0.000 C 
BRANCH  17  18
ATOM     18  C   UNL     1       5.626   3.694  12.974  0.00  0.00    +0.000 C 
BRANCH  18  20
ATOM     19  C   UNL     1       4.016   3.129  11.152  0.00  0.00    +0.000 C 
ATOM     20  C   UNL     1       5.401   2.841  11.726  0.00  0.00    +0.000 C 
ENDBRANCH  18  20
ENDBRANCH  17  18
ENDBRANCH  16  17
ENDBRANCH  10  16
ENDBRANCH   7  13
ENDBRANCH   1   7
BRANCH   3  21
ATOM     21  N   UNL     1       2.839   2.473  21.524  0.00  0.00    +0.000 N 
ATOM     22  O   UNL     1       3.965   1.965  21.473  0.00  0.00    +0.000 OA
ATOM     23  O   UNL     1       1.881   2.018  22.167  0.00  0.00    +0.000 OA
ENDBRANCH   3  21
BRANCH   6  24
ATOM     24  N   UNL     1       2.455   7.578  19.122  0.00  0.00    +0.000 N 
ATOM     25  H   UNL     1       3.388   7.996  19.249  0.00  0.00    +0.000 HD
BRANCH  24  26
ATOM     26  C   UNL     1       1.513   8.507  19.670  0.00  0.00    +0.000 A 
ATOM     27  C   UNL     1       1.229   8.545  21.048  0.00  0.00    +0.000 A 
ATOM     28  C   UNL     1       0.376   9.501  21.607  0.00  0.00    +0.000 A 
ATOM     29  C   UNL     1       0.119   9.452  23.087  0.00  0.00    +0.000 C 
ATOM     30  C   UNL     1      -0.098  10.529  20.783  0.00  0.00    +0.000 A 
ATOM     31  C   UNL     1       0.233  10.546  19.415  0.00  0.00    +0.000 A 
ATOM     32  C   UNL     1      -0.079  11.710  18.521  0.00  0.00    +0.000 C 
ATOM     33  C   UNL     1       0.973   9.494  18.858  0.00  0.00    +0.000 A 
ENDBRANCH  24  26
ENDBRANCH   6  24
TORSDOF 9
ENDMDL
MODEL 7
REMARK VINA RESULT:      -7.5      4.194      7.765
REMARK  Name = 
REMARK  12 active torsions:
REMARK  status: ('A' for Active; 'I' for Inactive)
REMARK    1  A    between atoms: C_1  and  C_2
REMARK    2  A    between atoms: C_2  and  C_3
REMARK    3  A    between atoms: C_3  and  C_4
REMARK    4  A    between atoms: C_4  and  C_5
REMARK    5  A    between atoms: C_5  and  N_6
REMARK    6  A    between atoms: N_9  and  S_10
REMARK    7  A    between atoms: S_10  and  C_13
REMARK    8  A    between atoms: C_15  and  N_16
REMARK    9  A    between atoms: C_21  and  N_22
REMARK   10  A    between atoms: N_22  and  C_23
REMARK   11  A    between atoms: C_25  and  C_26
REMARK   12  A    between atoms: C_28  and  C_29
REMARK                            x       y       z     vdW  Elec       q    Type
REMARK                         _______ _______ _______ _____ _____    ______ ____
ROOT
ATOM      1  C   UNL     1       2.957   5.441  18.510  0.00  0.00    +0.000 A 
ATOM      2  C   UNL     1       2.667   4.085  18.239  0.00  0.00    +0.000 A 
ATOM      3  C   UNL     1       1.762   3.379  19.059  0.00  0.00    +0.000 A 
ATOM      4  C   UNL     1       1.084   4.017  20.091  0.00  0.00    +0.000 A 
ATOM      5  C   UNL     1       1.350   5.352  20.330  0.00  0.00    +0.000 A 
ATOM      6  C   UNL     1       2.378   6.044  19.646  0.00  0.00    +0.000 A 
ENDROOT
BRANCH   1   7
ATOM      7  S   UNL     1       4.284   6.205  17.576  0.00  0.00    +0.000 S 
ATOM      8  O   UNL     1       4.091   7.634  17.682  0.00  0.00    +0.000 OA
ATOM      9  O   UNL     1       4.328   5.557  16.283  0.00  0.00    +0.000 OA
BRANCH   7  13
ATOM     10  N   UNL     1       7.043   7.579  17.489  0.00  0.00    +0.000 N 
ATOM     11  C   UNL     1       6.941   6.541  18.373  0.00  0.00    +0.000 C 
ATOM     12  O   UNL     1       7.814   6.146  19.117  0.00  0.00    +0.000 OA
ATOM     13  N   UNL     1       5.710   5.878  18.359  0.00  0.00    +0.000 N 
ATOM     14  H   UNL     1       6.167   8.001  17.213  0.00  0.00    +0.000 HD
ATOM     15  H   UNL     1       5.614   5.148  19.070  0.00  0.00    +0.000 HD
BRANCH  10  16
ATOM     16  C   UNL     1       8.210   8.444  17.361  0.00  0.00    +0.000 C 
BRANCH  16  17
ATOM     17  C   UNL     1       8.423   9.474  18.471  0.00  0.00    +0.000 C 
BRANCH  17  18
ATOM     18  C   UNL     1       9.524  10.514  18.254  0.00  0.00    +0.000 C 
BRANCH  18  20
ATOM     19  C   UNL     1      10.096  12.810  17.461  0.00  0.00    +0.000 C 
ATOM     20  C   UNL     1       9.069  11.972  18.217  0.00  0.00    +0.000 C 
ENDBRANCH  18  20
ENDBRANCH  17  18
ENDBRANCH  16  17
ENDBRANCH  10  16
ENDBRANCH   7  13
ENDBRANCH   1   7
BRANCH   3  21
ATOM     21  N   UNL     1       1.540   1.939  18.867  0.00  0.00    +0.000 N 
ATOM     22  O   UNL     1       2.538   1.211  18.820  0.00  0.00    +0.000 OA
ATOM     23  O   UNL     1       0.368   1.547  18.773  0.00  0.00    +0.000 OA
ENDBRANCH   3  21
BRANCH   6  24
ATOM     24  N   UNL     1       2.758   7.294  20.216  0.00  0.00    +0.000 N 
ATOM     25  H   UNL     1       3.233   7.170  21.123  0.00  0.00    +0.000 HD
BRANCH  24  26
ATOM     26  C   UNL     1       1.797   8.340  20.398  0.00  0.00    +0.000 A 
ATOM     27  C   UNL     1       1.166   8.960  19.305  0.00  0.00    +0.000 A 
ATOM     28  C   UNL     1       0.167   9.923  19.470  0.00  0.00    +0.000 A 
ATOM     29  C   UNL     1      -0.439  10.543  18.241  0.00  0.00    +0.000 C 
ATOM     30  C   UNL     1      -0.307  10.173  20.763  0.00  0.00    +0.000 A 
ATOM     31  C   UNL     1       0.267   9.509  21.864  0.00  0.00    +0.000 A 
ATOM     32  C   UNL     1      -0.312   9.584  23.246  0.00  0.00    +0.000 C 
ATOM     33  C   UNL     1       1.364   8.656  21.677  0.00  0.00    +0.000 A 
ENDBRANCH  24  26
ENDBRANCH   6  24
TORSDOF 9
ENDMDL
MODEL 8
REMARK VINA RESULT:      -7.5      2.868      5.148
REMARK  Name = 
REMARK  12 active torsions:
REMARK  status: ('A' for Active; 'I' for Inactive)
REMARK    1  A    between atoms: C_1  and  C_2
REMARK    2  A    between atoms: C_2  and  C_3
REMARK    3  A    between atoms: C_3  and  C_4
REMARK    4  A    between atoms: C_4  and  C_5
REMARK    5  A    between atoms: C_5  and  N_6
REMARK    6  A    between atoms: N_9  and  S_10
REMARK    7  A    between atoms: S_10  and  C_13
REMARK    8  A    between atoms: C_15  and  N_16
REMARK    9  A    between atoms: C_21  and  N_22
REMARK   10  A    between atoms: N_22  and  C_23
REMARK   11  A    between atoms: C_25  and  C_26
REMARK   12  A    between atoms: C_28  and  C_29
REMARK                            x       y       z     vdW  Elec       q    Type
REMARK                         _______ _______ _______ _____ _____    ______ ____
ROOT
ATOM      1  C   UNL     1       3.942   5.753  17.972  0.00  0.00    +0.000 A 
ATOM      2  C   UNL     1       4.349   4.622  18.713  0.00  0.00    +0.000 A 
ATOM      3  C   UNL     1       3.437   3.975  19.572  0.00  0.00    +0.000 A 
ATOM      4  C   UNL     1       2.110   4.382  19.647  0.00  0.00    +0.000 A 
ATOM      5  C   UNL     1       1.711   5.471  18.894  0.00  0.00    +0.000 A 
ATOM      6  C   UNL     1       2.636   6.253  18.160  0.00  0.00    +0.000 A 
ENDROOT
BRANCH   1   7
ATOM      7  S   UNL     1       5.210   6.661  17.085  0.00  0.00    +0.000 S 
ATOM      8  O   UNL     1       5.650   7.718  17.967  0.00  0.00    +0.000 OA
ATOM      9  O   UNL     1       4.684   6.962  15.771  0.00  0.00    +0.000 OA
BRANCH   7  13
ATOM     10  N   UNL     1       6.002   4.724  14.820  0.00  0.00    +0.000 N 
ATOM     11  C   UNL     1       6.910   4.827  15.837  0.00  0.00    +0.000 C 
ATOM     12  O   UNL     1       7.977   4.255  15.906  0.00  0.00    +0.000 OA
ATOM     13  N   UNL     1       6.515   5.654  16.894  0.00  0.00    +0.000 N 
ATOM     14  H   UNL     1       5.358   5.498  14.734  0.00  0.00    +0.000 HD
ATOM     15  H   UNL     1       7.226   5.783  17.619  0.00  0.00    +0.000 HD
BRANCH  10  16
ATOM     16  C   UNL     1       6.215   3.962  13.596  0.00  0.00    +0.000 C 
BRANCH  16  17
ATOM     17  C   UNL     1       4.974   3.350  12.946  0.00  0.00    +0.000 C 
BRANCH  17  18
ATOM     18  C   UNL     1       4.816   3.535  11.435  0.00  0.00    +0.000 C 
BRANCH  18  20
ATOM     19  C   UNL     1       3.070   4.107   9.746  0.00  0.00    +0.000 C 
ATOM     20  C   UNL     1       3.465   3.128  10.849  0.00  0.00    +0.000 C 
ENDBRANCH  18  20
ENDBRANCH  17  18
ENDBRANCH  16  17
ENDBRANCH  10  16
ENDBRANCH   7  13
ENDBRANCH   1   7
BRANCH   3  21
ATOM     21  N   UNL     1       3.874   2.873  20.441  0.00  0.00    +0.000 N 
ATOM     22  O   UNL     1       4.928   2.299  20.145  0.00  0.00    +0.000 OA
ATOM     23  O   UNL     1       3.164   2.596  21.419  0.00  0.00    +0.000 OA
ENDBRANCH   3  21
BRANCH   6  24
ATOM     24  N   UNL     1       2.150   7.515  17.712  0.00  0.00    +0.000 N 
ATOM     25  H   UNL     1       2.781   7.941  17.016  0.00  0.00    +0.000 HD
BRANCH  24  26
ATOM     26  C   UNL     1       1.818   8.548  18.647  0.00  0.00    +0.000 A 
ATOM     27  C   UNL     1       1.581   9.871  18.232  0.00  0.00    +0.000 A 
ATOM     28  C   UNL     1       1.175  10.870  19.122  0.00  0.00    +0.000 A 
ATOM     29  C   UNL     1       0.963  12.259  18.589  0.00  0.00    +0.000 C 
ATOM     30  C   UNL     1       0.868  10.501  20.437  0.00  0.00    +0.000 A 
ATOM     31  C   UNL     1       1.033   9.166  20.852  0.00  0.00    +0.000 A 
ATOM     32  C   UNL     1       0.547   8.665  22.180  0.00  0.00    +0.000 C 
ATOM     33  C   UNL     1       1.578   8.219  19.973  0.00  0.00    +0.000 A 
ENDBRANCH  24  26
ENDBRANCH   6  24
TORSDOF 9
ENDMDL
MODEL 9
REMARK VINA RESULT:      -7.5      6.660      9.333
REMARK  Name = 
REMARK  12 active torsions:
REMARK  status: ('A' for Active; 'I' for Inactive)
REMARK    1  A    between atoms: C_1  and  C_2
REMARK    2  A    between atoms: C_2  and  C_3
REMARK    3  A    between atoms: C_3  and  C_4
REMARK    4  A    between atoms: C_4  and  C_5
REMARK    5  A    between atoms: C_5  and  N_6
REMARK    6  A    between atoms: N_9  and  S_10
REMARK    7  A    between atoms: S_10  and  C_13
REMARK    8  A    between atoms: C_15  and  N_16
REMARK    9  A    between atoms: C_21  and  N_22
REMARK   10  A    between atoms: N_22  and  C_23
REMARK   11  A    between atoms: C_25  and  C_26
REMARK   12  A    between atoms: C_28  and  C_29
REMARK                            x       y       z     vdW  Elec       q    Type
REMARK                         _______ _______ _______ _____ _____    ______ ____
ROOT
ATOM      1  C   UNL     1       0.670  11.222  20.182  0.00  0.00    +0.000 A 
ATOM      2  C   UNL     1       1.411  12.236  20.829  0.00  0.00    +0.000 A 
ATOM      3  C   UNL     1       1.480  13.528  20.267  0.00  0.00    +0.000 A 
ATOM      4  C   UNL     1       0.764  13.849  19.120  0.00  0.00    +0.000 A 
ATOM      5  C   UNL     1       0.016  12.860  18.510  0.00  0.00    +0.000 A 
ATOM      6  C   UNL     1       0.064  11.512  18.941  0.00  0.00    +0.000 A 
ENDROOT
BRANCH   1   7
ATOM      7  S   UNL     1       0.816   9.554  20.824  0.00  0.00    +0.000 S 
ATOM      8  O   UNL     1      -0.503   8.968  20.748  0.00  0.00    +0.000 OA
ATOM      9  O   UNL     1       1.518   9.638  22.086  0.00  0.00    +0.000 OA
BRANCH   7  13
ATOM     10  N   UNL     1       1.770   6.621  20.851  0.00  0.00    +0.000 N 
ATOM     11  C   UNL     1       2.137   7.339  19.747  0.00  0.00    +0.000 C 
ATOM     12  O   UNL     1       2.767   6.921  18.798  0.00  0.00    +0.000 OA
ATOM     13  N   UNL     1       1.761   8.686  19.772  0.00  0.00    +0.000 N 
ATOM     14  H   UNL     1       0.978   6.987  21.362  0.00  0.00    +0.000 HD
ATOM     15  H   UNL     1       1.976   9.201  18.913  0.00  0.00    +0.000 HD
BRANCH  10  16
ATOM     16  C   UNL     1       2.008   5.194  21.026  0.00  0.00    +0.000 C 
BRANCH  16  17
ATOM     17  C   UNL     1       0.990   4.247  20.391  0.00  0.00    +0.000 C 
BRANCH  17  18
ATOM     18  C   UNL     1       1.313   2.752  20.424  0.00  0.00    +0.000 C 
BRANCH  18  20
ATOM     19  C   UNL     1       1.730   3.192  18.003  0.00  0.00    +0.000 C 
ATOM     20  C   UNL     1       1.663   2.113  19.081  0.00  0.00    +0.000 C 
ENDBRANCH  18  20
ENDBRANCH  17  18
ENDBRANCH  16  17
ENDBRANCH  10  16
ENDBRANCH   7  13
ENDBRANCH   1   7
BRANCH   3  21
ATOM     21  N   UNL     1       2.343  14.560  20.860  0.00  0.00    +0.000 N 
ATOM     22  O   UNL     1       1.795  15.447  21.523  0.00  0.00    +0.000 OA
ATOM     23  O   UNL     1       3.564  14.469  20.665  0.00  0.00    +0.000 OA
ENDBRANCH   3  21
BRANCH   6  24
ATOM     24  N   UNL     1      -0.483  10.560  18.034  0.00  0.00    +0.000 N 
ATOM     25  H   UNL     1       0.079  10.488  17.172  0.00  0.00    +0.000 HD
BRANCH  24  26
ATOM     26  C   UNL     1      -1.853  10.641  17.622  0.00  0.00    +0.000 A 
ATOM     27  C   UNL     1      -2.817  11.312  18.396  0.00  0.00    +0.000 A 
ATOM     28  C   UNL     1      -4.138  11.471  17.967  0.00  0.00    +0.000 A 
ATOM     29  C   UNL     1      -5.102  12.188  18.870  0.00  0.00    +0.000 C 
ATOM     30  C   UNL     1      -4.467  11.064  16.669  0.00  0.00    +0.000 A 
ATOM     31  C   UNL     1      -3.495  10.452  15.854  0.00  0.00    +0.000 A 
ATOM     32  C   UNL     1      -3.721  10.166  14.399  0.00  0.00    +0.000 C 
ATOM     33  C   UNL     1      -2.219  10.179  16.367  0.00  0.00    +0.000 A 
ENDBRANCH  24  26
ENDBRANCH   6  24
TORSDOF 9
ENDMDL
