MODEL 1
REMARK VINA RESULT:      -7.3      0.000      0.000
REMARK  Name = 
REMARK  5 active torsions:
REMARK  status: ('A' for Active; 'I' for Inactive)
REMARK    1  A    between atoms: C_1  and  C_2
REMARK    2  A    between atoms: C_2  and  N_3
REMARK    3  A    between atoms: N_3  and  C_4
REMARK    4  A    between atoms: C_5  and  N_6
REMARK    5  A    between atoms: C_7  and  C_9
REMARK                            x       y       z     vdW  Elec       q    Type
REMARK                         _______ _______ _______ _____ _____    ______ ____
ROOT
ATOM      1  C   UNL     1       2.186   5.270  19.460  0.00  0.00    +0.000 C 
ATOM      2  C   UNL     1       2.549   6.571  19.457  0.00  0.00    +0.000 C 
ATOM      3  C   UNL     1       3.258   7.126  18.263  0.00  0.00    +0.000 C 
ATOM      4  O   UNL     1       3.141   8.283  17.879  0.00  0.00    +0.000 OA
ATOM      5  C   UNL     1       4.009   6.181  17.424  0.00  0.00    +0.000 A 
ATOM      6  C   UNL     1       5.011   6.646  16.564  0.00  0.00    +0.000 A 
ATOM      7  C   UNL     1       5.637   5.765  15.682  0.00  0.00    +0.000 A 
ATOM      8  C   UNL     1       5.248   4.423  15.643  0.00  0.00    +0.000 A 
ATOM      9  C   UNL     1       4.261   3.958  16.512  0.00  0.00    +0.000 A 
ATOM     10  C   UNL     1       3.655   4.836  17.417  0.00  0.00    +0.000 A 
ATOM     11  C   UNL     1       2.649   4.345  18.359  0.00  0.00    +0.000 C 
ATOM     12  O   UNL     1       2.238   3.193  18.322  0.00  0.00    +0.000 OA
ENDROOT
BRANCH   2  13
ATOM     13  N   UNL     1       2.206   7.343  20.554  0.00  0.00    +0.000 N 
ATOM     14  C   UNL     1       1.364   8.438  20.618  0.00  0.00    +0.000 C 
ATOM     15  O   UNL     1       0.736   8.923  19.682  0.00  0.00    +0.000 OA
ATOM     16  H   UNL     1       2.825   7.210  21.355  0.00  0.00    +0.000 HD
BRANCH  14  17
ATOM     17  C   UNL     1       1.227   9.036  22.009  0.00  0.00    +0.000 C 
ATOM     18 CL   UNL     1      -0.468   9.013  22.548  0.00  0.00    +0.000 Cl
ENDBRANCH  14  17
ENDBRANCH   2  13
BRANCH   1  19
ATOM     19  N   UNL     1       1.409   4.663  20.473  0.00  0.00    +0.000 N 
ATOM     20  H   UNL     1       0.918   5.435  20.948  0.00  0.00    +0.000 HD
BRANCH  19  22
ATOM     21  C   UNL     1       1.495   2.545  21.695  0.00  0.00    +0.000 C 
ATOM     22  C   UNL     1       2.114   3.922  21.532  0.00  0.00    +0.000 C 
ENDBRANCH  19  22
ENDBRANCH   1  19
TORSDOF 4
ENDMDL
MODEL 2
REMARK VINA RESULT:      -6.9      4.089      6.496
REMARK  Name = 
REMARK  5 active torsions:
REMARK  status: ('A' for Active; 'I' for Inactive)
REMARK    1  A    between atoms: C_1  and  C_2
REMARK    2  A    between atoms: C_2  and  N_3
REMARK    3  A    between atoms: N_3  and  C_4
REMARK    4  A    between atoms: C_5  and  N_6
REMARK    5  A    between atoms: C_7  and  C_9
REMARK                            x       y       z     vdW  Elec       q    Type
REMARK                         _______ _______ _______ _____ _____    ______ ____
ROOT
ATOM      1  C   UNL     1       4.923   4.940  17.844  0.00  0.00    +0.000 C 
ATOM      2  C   UNL     1       4.412   4.075  16.940  0.00  0.00    +0.000 C 
ATOM      3  C   UNL     1       3.045   3.512  17.163  0.00  0.00    +0.000 C 
ATOM      4  O   UNL     1       2.272   3.221  16.258  0.00  0.00    +0.000 OA
ATOM      5  C   UNL     1       2.554   3.460  18.548  0.00  0.00    +0.000 A 
ATOM      6  C   UNL     1       1.505   2.598  18.890  0.00  0.00    +0.000 A 
ATOM      7  C   UNL     1       0.962   2.638  20.174  0.00  0.00    +0.000 A 
ATOM      8  C   UNL     1       1.450   3.553  21.111  0.00  0.00    +0.000 A 
ATOM      9  C   UNL     1       2.507   4.399  20.773  0.00  0.00    +0.000 A 
ATOM     10  C   UNL     1       3.071   4.338  19.494  0.00  0.00    +0.000 A 
ATOM     11  C   UNL     1       4.205   5.194  19.148  0.00  0.00    +0.000 C 
ATOM     12  O   UNL     1       4.629   6.047  19.916  0.00  0.00    +0.000 OA
ENDROOT
BRANCH   2  13
ATOM     13  N   UNL     1       5.173   3.782  15.820  0.00  0.00    +0.000 N 
ATOM     14  C   UNL     1       5.624   4.633  14.828  0.00  0.00    +0.000 C 
ATOM     15  O   UNL     1       5.438   5.844  14.775  0.00  0.00    +0.000 OA
ATOM     16  H   UNL     1       5.208   2.785  15.602  0.00  0.00    +0.000 HD
BRANCH  14  17
ATOM     17  C   UNL     1       6.439   3.946  13.745  0.00  0.00    +0.000 C 
ATOM     18 CL   UNL     1       5.409   3.474  12.374  0.00  0.00    +0.000 Cl
ENDBRANCH  14  17
ENDBRANCH   2  13
BRANCH   1  19
ATOM     19  N   UNL     1       6.147   5.627  17.683  0.00  0.00    +0.000 N 
ATOM     20  H   UNL     1       6.264   5.755  16.666  0.00  0.00    +0.000 HD
BRANCH  19  22
ATOM     21  C   UNL     1       8.016   5.787  19.253  0.00  0.00    +0.000 C 
ATOM     22  C   UNL     1       7.377   4.964  18.148  0.00  0.00    +0.000 C 
ENDBRANCH  19  22
ENDBRANCH   1  19
TORSDOF 4
ENDMDL
MODEL 3
REMARK VINA RESULT:      -6.8      3.594      5.741
REMARK  Name = 
REMARK  5 active torsions:
REMARK  status: ('A' for Active; 'I' for Inactive)
REMARK    1  A    between atoms: C_1  and  C_2
REMARK    2  A    between atoms: C_2  and  N_3
REMARK    3  A    between atoms: N_3  and  C_4
REMARK    4  A    between atoms: C_5  and  N_6
REMARK    5  A    between atoms: C_7  and  C_9
REMARK                            x       y       z     vdW  Elec       q    Type
REMARK                         _______ _______ _______ _____ _____    ______ ____
ROOT
ATOM      1  C   UNL     1       4.972   3.937  17.314  0.00  0.00    +0.000 C 
ATOM      2  C   UNL     1       4.935   5.126  17.953  0.00  0.00    +0.000 C 
ATOM      3  C   UNL     1       4.035   5.290  19.136  0.00  0.00    +0.000 C 
ATOM      4  O   UNL     1       4.288   6.016  20.089  0.00  0.00    +0.000 OA
ATOM      5  C   UNL     1       2.863   4.405  19.220  0.00  0.00    +0.000 A 
ATOM      6  C   UNL     1       1.777   4.752  20.032  0.00  0.00    +0.000 A 
ATOM      7  C   UNL     1       0.723   3.856  20.204  0.00  0.00    +0.000 A 
ATOM      8  C   UNL     1       0.761   2.604  19.583  0.00  0.00    +0.000 A 
ATOM      9  C   UNL     1       1.837   2.268  18.760  0.00  0.00    +0.000 A 
ATOM     10  C   UNL     1       2.880   3.179  18.564  0.00  0.00    +0.000 A 
ATOM     11  C   UNL     1       3.989   2.847  17.671  0.00  0.00    +0.000 C 
ATOM     12  O   UNL     1       4.092   1.744  17.151  0.00  0.00    +0.000 OA
ENDROOT
BRANCH   2  13
ATOM     13  N   UNL     1       5.773   6.133  17.501  0.00  0.00    +0.000 N 
ATOM     14  C   UNL     1       7.021   6.502  17.968  0.00  0.00    +0.000 C 
ATOM     15  O   UNL     1       7.635   5.970  18.887  0.00  0.00    +0.000 OA
ATOM     16  H   UNL     1       5.304   6.811  16.897  0.00  0.00    +0.000 HD
BRANCH  14  17
ATOM     17  C   UNL     1       7.646   7.665  17.216  0.00  0.00    +0.000 C 
ATOM     18 CL   UNL     1       8.436   8.798  18.337  0.00  0.00    +0.000 Cl
ENDBRANCH  14  17
ENDBRANCH   2  13
BRANCH   1  19
ATOM     19  N   UNL     1       5.867   3.626  16.265  0.00  0.00    +0.000 N 
ATOM     20  H   UNL     1       6.760   4.073  16.518  0.00  0.00    +0.000 HD
BRANCH  19  22
ATOM     21  C   UNL     1       6.768   4.757  14.292  0.00  0.00    +0.000 C 
ATOM     22  C   UNL     1       5.542   4.113  14.914  0.00  0.00    +0.000 C 
ENDBRANCH  19  22
ENDBRANCH   1  19
TORSDOF 4
ENDMDL
MODEL 4
REMARK VINA RESULT:      -6.6      3.714      5.717
REMARK  Name = 
REMARK  5 active torsions:
REMARK  status: ('A' for Active; 'I' for Inactive)
REMARK    1  A    between atoms: C_1  and  C_2
REMARK    2  A    between atoms: C_2  and  N_3
REMARK    3  A    between atoms: N_3  and  C_4
REMARK    4  A    between atoms: C_5  and  N_6
REMARK    5  A    between atoms: C_7  and  C_9
REMARK                            x       y       z     vdW  Elec       q    Type
REMARK                         _______ _______ _______ _____ _____    ______ ____
ROOT
ATOM      1  C   UNL     1       4.277   4.281  18.219  0.00  0.00    +0.000 C 
ATOM      2  C   UNL     1       4.484   5.035  17.117  0.00  0.00    +0.000 C 
ATOM      3  C   UNL     1       4.193   6.500  17.173  0.00  0.00    +0.000 C 
ATOM      4  O   UNL     1       4.815   7.343  16.538  0.00  0.00    +0.000 OA
ATOM      5  C   UNL     1       3.211   6.956  18.168  0.00  0.00    +0.000 A 
ATOM      6  C   UNL     1       2.584   8.199  18.018  0.00  0.00    +0.000 A 
ATOM      7  C   UNL     1       1.746   8.681  19.024  0.00  0.00    +0.000 A 
ATOM      8  C   UNL     1       1.550   7.933  20.188  0.00  0.00    +0.000 A 
ATOM      9  C   UNL     1       2.163   6.688  20.328  0.00  0.00    +0.000 A 
ATOM     10  C   UNL     1       2.980   6.191  19.306  0.00  0.00    +0.000 A 
ATOM     11  C   UNL     1       3.592   4.868  19.429  0.00  0.00    +0.000 C 
ATOM     12  O   UNL     1       3.493   4.204  20.452  0.00  0.00    +0.000 OA
ENDROOT
BRANCH   2  13
ATOM     13  N   UNL     1       5.000   4.413  15.992  0.00  0.00    +0.000 N 
ATOM     14  C   UNL     1       6.277   4.482  15.468  0.00  0.00    +0.000 C 
ATOM     15  O   UNL     1       7.218   5.114  15.938  0.00  0.00    +0.000 OA
ATOM     16  H   UNL     1       4.282   4.041  15.368  0.00  0.00    +0.000 HD
BRANCH  14  17
ATOM     17  C   UNL     1       6.478   3.655  14.209  0.00  0.00    +0.000 C 
ATOM     18 CL   UNL     1       5.108   3.856  13.091  0.00  0.00    +0.000 Cl
ENDBRANCH  14  17
ENDBRANCH   2  13
BRANCH   1  19
ATOM     19  N   UNL     1       4.627   2.915  18.325  0.00  0.00    +0.000 N 
ATOM     20  H   UNL     1       5.228   2.717  17.511  0.00  0.00    +0.000 HD
BRANCH  19  22
ATOM     21  C   UNL     1       2.374   2.473  17.479  0.00  0.00    +0.000 C 
ATOM     22  C   UNL     1       3.543   1.920  18.275  0.00  0.00    +0.000 C 
ENDBRANCH  19  22
ENDBRANCH   1  19
TORSDOF 4
ENDMDL
MODEL 5
REMARK VINA RESULT:      -6.6      3.486      5.541
REMARK  Name = 
REMARK  5 active torsions:
REMARK  status: ('A' for Active; 'I' for Inactive)
REMARK    1  A    between atoms: C_1  and  C_2
REMARK    2  A    between atoms: C_2  and  N_3
REMARK    3  A    between atoms: N_3  and  C_4
REMARK    4  A    between atoms: C_5  and  N_6
REMARK    5  A    between atoms: C_7  and  C_9
REMARK                            x       y       z     vdW  Elec       q    Type
REMARK                         _______ _______ _______ _____ _____    ______ ____
ROOT
ATOM      1  C   UNL     1       3.487   4.599  18.869  0.00  0.00    +0.000 C 
ATOM      2  C   UNL     1       3.861   5.259  17.752  0.00  0.00    +0.000 C 
ATOM      3  C   UNL     1       3.711   6.746  17.701  0.00  0.00    +0.000 C 
ATOM      4  O   UNL     1       4.466   7.485  17.080  0.00  0.00    +0.000 OA
ATOM      5  C   UNL     1       2.697   7.353  18.575  0.00  0.00    +0.000 A 
ATOM      6  C   UNL     1       2.209   8.637  18.300  0.00  0.00    +0.000 A 
ATOM      7  C   UNL     1       1.339   9.257  19.196  0.00  0.00    +0.000 A 
ATOM      8  C   UNL     1       0.971   8.606  20.377  0.00  0.00    +0.000 A 
ATOM      9  C   UNL     1       1.445   7.320  20.640  0.00  0.00    +0.000 A 
ATOM     10  C   UNL     1       2.294   6.686  19.726  0.00  0.00    +0.000 A 
ATOM     11  C   UNL     1       2.760   5.323  19.978  0.00  0.00    +0.000 C 
ATOM     12  O   UNL     1       2.509   4.737  21.022  0.00  0.00    +0.000 OA
ENDROOT
BRANCH   2  13
ATOM     13  N   UNL     1       4.408   4.522  16.715  0.00  0.00    +0.000 N 
ATOM     14  C   UNL     1       5.735   4.380  16.354  0.00  0.00    +0.000 C 
ATOM     15  O   UNL     1       6.697   4.886  16.923  0.00  0.00    +0.000 OA
ATOM     16  H   UNL     1       3.723   4.235  16.014  0.00  0.00    +0.000 HD
BRANCH  14  17
ATOM     17  C   UNL     1       5.958   3.483  15.148  0.00  0.00    +0.000 C 
ATOM     18 CL   UNL     1       6.706   4.386  13.810  0.00  0.00    +0.000 Cl
ENDBRANCH  14  17
ENDBRANCH   2  13
BRANCH   1  19
ATOM     19  N   UNL     1       3.690   3.216  19.082  0.00  0.00    +0.000 N 
ATOM     20  H   UNL     1       4.666   3.032  18.806  0.00  0.00    +0.000 HD
BRANCH  19  22
ATOM     21  C   UNL     1       1.501   2.131  18.952  0.00  0.00    +0.000 C 
ATOM     22  C   UNL     1       2.869   2.271  18.307  0.00  0.00    +0.000 C 
ENDBRANCH  19  22
ENDBRANCH   1  19
TORSDOF 4
ENDMDL
MODEL 6
REMARK VINA RESULT:      -6.5      3.838      5.816
REMARK  Name = 
REMARK  5 active torsions:
REMARK  status: ('A' for Active; 'I' for Inactive)
REMARK    1  A    between atoms: C_1  and  C_2
REMARK    2  A    between atoms: C_2  and  N_3
REMARK    3  A    between atoms: N_3  and  C_4
REMARK    4  A    between atoms: C_5  and  N_6
REMARK    5  A    between atoms: C_7  and  C_9
REMARK                            x       y       z     vdW  Elec       q    Type
REMARK                         _______ _______ _______ _____ _____    ______ ____
ROOT
ATOM      1  C   UNL     1       4.369   4.141  17.134  0.00  0.00    +0.000 C 
ATOM      2  C   UNL     1       5.076   4.405  18.254  0.00  0.00    +0.000 C 
ATOM      3  C   UNL     1       4.610   3.843  19.559  0.00  0.00    +0.000 C 
ATOM      4  O   UNL     1       5.363   3.515  20.467  0.00  0.00    +0.000 OA
ATOM      5  C   UNL     1       3.180   3.525  19.684  0.00  0.00    +0.000 A 
ATOM      6  C   UNL     1       2.596   3.400  20.951  0.00  0.00    +0.000 A 
ATOM      7  C   UNL     1       1.271   2.980  21.068  0.00  0.00    +0.000 A 
ATOM      8  C   UNL     1       0.534   2.665  19.923  0.00  0.00    +0.000 A 
ATOM      9  C   UNL     1       1.113   2.807  18.661  0.00  0.00    +0.000 A 
ATOM     10  C   UNL     1       2.433   3.257  18.543  0.00  0.00    +0.000 A 
ATOM     11  C   UNL     1       3.031   3.447  17.222  0.00  0.00    +0.000 C 
ATOM     12  O   UNL     1       2.443   3.131  16.195  0.00  0.00    +0.000 OA
ENDROOT
BRANCH   2  13
ATOM     13  N   UNL     1       6.234   5.156  18.129  0.00  0.00    +0.000 N 
ATOM     14  C   UNL     1       6.383   6.458  17.687  0.00  0.00    +0.000 C 
ATOM     15  O   UNL     1       5.479   7.209  17.334  0.00  0.00    +0.000 OA
ATOM     16  H   UNL     1       7.087   4.596  18.162  0.00  0.00    +0.000 HD
BRANCH  14  17
ATOM     17  C   UNL     1       7.819   6.952  17.687  0.00  0.00    +0.000 C 
ATOM     18 CL   UNL     1       7.881   8.730  17.727  0.00  0.00    +0.000 Cl
ENDBRANCH  14  17
ENDBRANCH   2  13
BRANCH   1  19
ATOM     19  N   UNL     1       4.773   4.514  15.832  0.00  0.00    +0.000 N 
ATOM     20  H   UNL     1       3.944   4.382  15.234  0.00  0.00    +0.000 HD
BRANCH  19  22
ATOM     21  C   UNL     1       6.682   4.651  14.307  0.00  0.00    +0.000 C 
ATOM     22  C   UNL     1       5.853   3.741  15.197  0.00  0.00    +0.000 C 
ENDBRANCH  19  22
ENDBRANCH   1  19
TORSDOF 4
ENDMDL
MODEL 7
REMARK VINA RESULT:      -6.4      3.943      5.915
REMARK  Name = 
REMARK  5 active torsions:
REMARK  status: ('A' for Active; 'I' for Inactive)
REMARK    1  A    between atoms: C_1  and  C_2
REMARK    2  A    between atoms: C_2  and  N_3
REMARK    3  A    between atoms: N_3  and  C_4
REMARK    4  A    between atoms: C_5  and  N_6
REMARK    5  A    between atoms: C_7  and  C_9
REMARK                            x       y       z     vdW  Elec       q    Type
REMARK                         _______ _______ _______ _____ _____    ______ ____
ROOT
ATOM      1  C   UNL     1       4.312   4.619  17.277  0.00  0.00    +0.000 C 
ATOM      2  C   UNL     1       4.926   4.888  18.450  0.00  0.00    +0.000 C 
ATOM      3  C   UNL     1       4.483   4.172  19.685  0.00  0.00    +0.000 C 
ATOM      4  O   UNL     1       5.233   3.878  20.608  0.00  0.00    +0.000 OA
ATOM      5  C   UNL     1       3.105   3.659  19.710  0.00  0.00    +0.000 A 
ATOM      6  C   UNL     1       2.488   3.362  20.931  0.00  0.00    +0.000 A 
ATOM      7  C   UNL     1       1.229   2.763  20.947  0.00  0.00    +0.000 A 
ATOM      8  C   UNL     1       0.593   2.441  19.744  0.00  0.00    +0.000 A 
ATOM      9  C   UNL     1       1.203   2.754  18.529  0.00  0.00    +0.000 A 
ATOM     10  C   UNL     1       2.453   3.382  18.514  0.00  0.00    +0.000 A 
ATOM     11  C   UNL     1       3.078   3.749  17.244  0.00  0.00    +0.000 C 
ATOM     12  O   UNL     1       2.585   3.438  16.168  0.00  0.00    +0.000 OA
ENDROOT
BRANCH   2  13
ATOM     13  N   UNL     1       5.975   5.793  18.440  0.00  0.00    +0.000 N 
ATOM     14  C   UNL     1       7.336   5.548  18.456  0.00  0.00    +0.000 C 
ATOM     15  O   UNL     1       7.872   4.444  18.462  0.00  0.00    +0.000 OA
ATOM     16  H   UNL     1       5.692   6.747  18.670  0.00  0.00    +0.000 HD
BRANCH  14  17
ATOM     17  C   UNL     1       8.193   6.803  18.439  0.00  0.00    +0.000 C 
ATOM     18 CL   UNL     1       7.455   8.064  17.423  0.00  0.00    +0.000 Cl
ENDBRANCH  14  17
ENDBRANCH   2  13
BRANCH   1  19
ATOM     19  N   UNL     1       4.719   5.140  16.028  0.00  0.00    +0.000 N 
ATOM     20  H   UNL     1       3.851   5.301  15.496  0.00  0.00    +0.000 HD
BRANCH  19  22
ATOM     21  C   UNL     1       6.866   5.014  14.861  0.00  0.00    +0.000 C 
ATOM     22  C   UNL     1       5.565   4.294  15.170  0.00  0.00    +0.000 C 
ENDBRANCH  19  22
ENDBRANCH   1  19
TORSDOF 4
ENDMDL
MODEL 8
REMARK VINA RESULT:      -6.4      3.634      6.457
REMARK  Name = 
REMARK  5 active torsions:
REMARK  status: ('A' for Active; 'I' for Inactive)
REMARK    1  A    between atoms: C_1  and  C_2
REMARK    2  A    between atoms: C_2  and  N_3
REMARK    3  A    between atoms: N_3  and  C_4
REMARK    4  A    between atoms: C_5  and  N_6
REMARK    5  A    between atoms: C_7  and  C_9
REMARK                            x       y       z     vdW  Elec       q    Type
REMARK                         _______ _______ _______ _____ _____    ______ ____
ROOT
ATOM      1  C   UNL     1       4.023   5.828  17.654  0.00  0.00    +0.000 C 
ATOM      2  C   UNL     1       4.010   4.691  16.926  0.00  0.00    +0.000 C 
ATOM      3  C   UNL     1       3.048   3.605  17.288  0.00  0.00    +0.000 C 
ATOM      4  O   UNL     1       2.539   2.846  16.472  0.00  0.00    +0.000 OA
ATOM      5  C   UNL     1       2.575   3.559  18.679  0.00  0.00    +0.000 A 
ATOM      6  C   UNL     1       2.028   2.379  19.197  0.00  0.00    +0.000 A 
ATOM      7  C   UNL     1       1.470   2.372  20.475  0.00  0.00    +0.000 A 
ATOM      8  C   UNL     1       1.438   3.549  21.230  0.00  0.00    +0.000 A 
ATOM      9  C   UNL     1       1.999   4.720  20.718  0.00  0.00    +0.000 A 
ATOM     10  C   UNL     1       2.586   4.718  19.447  0.00  0.00    +0.000 A 
ATOM     11  C   UNL     1       3.211   5.931  18.924  0.00  0.00    +0.000 C 
ATOM     12  O   UNL     1       3.158   6.997  19.524  0.00  0.00    +0.000 OA
ENDROOT
BRANCH   2  13
ATOM     13  N   UNL     1       4.870   4.604  15.843  0.00  0.00    +0.000 N 
ATOM     14  C   UNL     1       6.221   4.307  15.826  0.00  0.00    +0.000 C 
ATOM     15  O   UNL     1       6.914   4.040  16.802  0.00  0.00    +0.000 OA
ATOM     16  H   UNL     1       4.496   5.026  14.992  0.00  0.00    +0.000 HD
BRANCH  14  17
ATOM     17  C   UNL     1       6.838   4.303  14.438  0.00  0.00    +0.000 C 
ATOM     18 CL   UNL     1       5.686   3.685  13.231  0.00  0.00    +0.000 Cl
ENDBRANCH  14  17
ENDBRANCH   2  13
BRANCH   1  19
ATOM     19  N   UNL     1       4.799   6.967  17.338  0.00  0.00    +0.000 N 
ATOM     20  H   UNL     1       5.055   6.862  16.345  0.00  0.00    +0.000 HD
BRANCH  19  22
ATOM     21  C   UNL     1       7.160   7.553  17.085  0.00  0.00    +0.000 C 
ATOM     22  C   UNL     1       6.065   7.162  18.062  0.00  0.00    +0.000 C 
ENDBRANCH  19  22
ENDBRANCH   1  19
TORSDOF 4
ENDMDL
MODEL 9
REMARK VINA RESULT:      -6.3      2.422      4.307
REMARK  Name = 
REMARK  5 active torsions:
REMARK  status: ('A' for Active; 'I' for Inactive)
REMARK    1  A    between atoms: C_1  and  C_2
REMARK    2  A    between atoms: C_2  and  N_3
REMARK    3  A    between atoms: N_3  and  C_4
REMARK    4  A    between atoms: C_5  and  N_6
REMARK    5  A    between atoms: C_7  and  C_9
REMARK                            x       y       z     vdW  Elec       q    Type
REMARK                         _______ _______ _______ _____ _____    ______ ____
ROOT
ATOM      1  C   UNL     1       3.914   6.055  17.501  0.00  0.00    +0.000 C 
ATOM      2  C   UNL     1       3.085   6.726  18.331  0.00  0.00    +0.000 C 
ATOM      3  C   UNL     1       2.284   5.961  19.335  0.00  0.00    +0.000 C 
ATOM      4  O   UNL     1       1.974   6.399  20.436  0.00  0.00    +0.000 OA
ATOM      5  C   UNL     1       1.995   4.551  19.035  0.00  0.00    +0.000 A 
ATOM      6  C   UNL     1       0.939   3.897  19.681  0.00  0.00    +0.000 A 
ATOM      7  C   UNL     1       0.743   2.530  19.485  0.00  0.00    +0.000 A 
ATOM      8  C   UNL     1       1.613   1.810  18.662  0.00  0.00    +0.000 A 
ATOM      9  C   UNL     1       2.654   2.467  18.006  0.00  0.00    +0.000 A 
ATOM     10  C   UNL     1       2.832   3.845  18.179  0.00  0.00    +0.000 A 
ATOM     11  C   UNL     1       3.896   4.545  17.461  0.00  0.00    +0.000 C 
ATOM     12  O   UNL     1       4.715   3.948  16.775  0.00  0.00    +0.000 OA
ENDROOT
BRANCH   2  13
ATOM     13  N   UNL     1       3.050   8.107  18.235  0.00  0.00    +0.000 N 
ATOM     14  C   UNL     1       1.998   8.928  17.872  0.00  0.00    +0.000 C 
ATOM     15  O   UNL     1       0.864   8.563  17.579  0.00  0.00    +0.000 OA
ATOM     16  H   UNL     1       3.976   8.538  18.222  0.00  0.00    +0.000 HD
BRANCH  14  17
ATOM     17  C   UNL     1       2.335  10.410  17.882  0.00  0.00    +0.000 C 
ATOM     18 CL   UNL     1       1.269  11.298  18.995  0.00  0.00    +0.000 Cl
ENDBRANCH  14  17
ENDBRANCH   2  13
BRANCH   1  19
ATOM     19  N   UNL     1       4.806   6.674  16.597  0.00  0.00    +0.000 N 
ATOM     20  H   UNL     1       5.074   5.941  15.923  0.00  0.00    +0.000 HD
BRANCH  19  22
ATOM     21  C   UNL     1       7.179   6.190  16.944  0.00  0.00    +0.000 C 
ATOM     22  C   UNL     1       6.069   7.209  17.132  0.00  0.00    +0.000 C 
ENDBRANCH  19  22
ENDBRANCH   1  19
TORSDOF 4
ENDMDL
