MODEL 1
REMARK VINA RESULT:      -7.5      0.000      0.000
REMARK  Name = 
REMARK  4 active torsions:
REMARK  status: ('A' for Active; 'I' for Inactive)
REMARK    1  A    between atoms: O_1  and  C_2
REMARK    2  A    between atoms: C_6  and  C_7
REMARK    3  A    between atoms: C_13  and  O_14
REMARK    4  A    between atoms: C_18  and  O_19
REMARK                            x       y       z     vdW  Elec       q    Type
REMARK                         _______ _______ _______ _____ _____    ______ ____
ROOT
ATOM      1  C   UNL     1       5.540   4.207  16.314  0.00  0.00    +0.000 A 
ATOM      2  C   UNL     1       4.284   3.851  16.775  0.00  0.00    +0.000 A 
ATOM      3  C   UNL     1       3.486   4.803  17.428  0.00  0.00    +0.000 A 
ATOM      4 BR   UNL     1       1.820   4.124  18.072  0.00  0.00    +0.000 Br
ATOM      5  C   UNL     1       3.925   6.138  17.611  0.00  0.00    +0.000 A 
ATOM      6  C   UNL     1       5.227   6.457  17.186  0.00  0.00    +0.000 A 
ATOM      7  C   UNL     1       6.018   5.500  16.530  0.00  0.00    +0.000 A 
ENDROOT
BRANCH   5   8
ATOM      8  C   UNL     1       3.033   7.196  18.107  0.00  0.00    +0.000 A 
ATOM      9  C   UNL     1       2.425   8.252  17.459  0.00  0.00    +0.000 A 
ATOM     10  C   UNL     1       1.568   8.883  18.383  0.00  0.00    +0.000 A 
ATOM     11  C   UNL     1       0.617   9.909  18.281  0.00  0.00    +0.000 A 
ATOM     12  C   UNL     1      -0.059  10.318  19.432  0.00  0.00    +0.000 A 
ATOM     13  C   UNL     1       0.247   9.755  20.671  0.00  0.00    +0.000 A 
ATOM     14  C   UNL     1       1.211   8.737  20.792  0.00  0.00    +0.000 A 
ATOM     15  C   UNL     1       1.825   8.287  19.615  0.00  0.00    +0.000 A 
ATOM     16  O   UNL     1       2.729   7.256  19.450  0.00  0.00    +0.000 OA
BRANCH  14  17
ATOM     17  O   UNL     1       1.524   8.235  22.030  0.00  0.00    +0.000 OA
ATOM     18  H   UNL     1       0.923   7.498  22.219  0.00  0.00    +0.000 HD
ENDBRANCH  14  17
ENDBRANCH   5   8
BRANCH   1  19
ATOM     19  O   UNL     1       6.303   3.303  15.632  0.00  0.00    +0.000 OA
ATOM     20  H   UNL     1       6.744   2.706  16.259  0.00  0.00    +0.000 HD
ENDBRANCH   1  19
BRANCH   7  21
ATOM     21  O   UNL     1       7.252   5.830  16.054  0.00  0.00    +0.000 OA
ATOM     22  H   UNL     1       7.310   5.587  15.117  0.00  0.00    +0.000 HD
ENDBRANCH   7  21
TORSDOF 4
ENDMDL
MODEL 2
REMARK VINA RESULT:      -7.3      1.241      1.841
REMARK  Name = 
REMARK  4 active torsions:
REMARK  status: ('A' for Active; 'I' for Inactive)
REMARK    1  A    between atoms: O_1  and  C_2
REMARK    2  A    between atoms: C_6  and  C_7
REMARK    3  A    between atoms: C_13  and  O_14
REMARK    4  A    between atoms: C_18  and  O_19
REMARK                            x       y       z     vdW  Elec       q    Type
REMARK                         _______ _______ _______ _____ _____    ______ ____
ROOT
ATOM      1  C   UNL     1       5.884   4.505  16.049  0.00  0.00    +0.000 A 
ATOM      2  C   UNL     1       4.665   3.944  16.388  0.00  0.00    +0.000 A 
ATOM      3  C   UNL     1       3.803   4.625  17.261  0.00  0.00    +0.000 A 
ATOM      4 BR   UNL     1       2.202   3.673  17.688  0.00  0.00    +0.000 Br
ATOM      5  C   UNL     1       4.139   5.895  17.793  0.00  0.00    +0.000 A 
ATOM      6  C   UNL     1       5.408   6.414  17.481  0.00  0.00    +0.000 A 
ATOM      7  C   UNL     1       6.262   5.728  16.602  0.00  0.00    +0.000 A 
ENDROOT
BRANCH   5   8
ATOM      8  C   UNL     1       3.174   6.712  18.542  0.00  0.00    +0.000 A 
ATOM      9  C   UNL     1       2.597   6.531  19.783  0.00  0.00    +0.000 A 
ATOM     10  C   UNL     1       1.843   7.685  20.076  0.00  0.00    +0.000 A 
ATOM     11  C   UNL     1       1.151   8.130  21.212  0.00  0.00    +0.000 A 
ATOM     12  C   UNL     1       0.472   9.348  21.152  0.00  0.00    +0.000 A 
ATOM     13  C   UNL     1       0.437  10.084  19.968  0.00  0.00    +0.000 A 
ATOM     14  C   UNL     1       1.112   9.642  18.815  0.00  0.00    +0.000 A 
ATOM     15  C   UNL     1       1.851   8.454  18.915  0.00  0.00    +0.000 A 
ATOM     16  O   UNL     1       2.661   7.856  17.970  0.00  0.00    +0.000 OA
BRANCH  14  17
ATOM     17  O   UNL     1       1.022  10.362  17.651  0.00  0.00    +0.000 OA
ATOM     18  H   UNL     1       0.879   9.742  16.919  0.00  0.00    +0.000 HD
ENDBRANCH  14  17
ENDBRANCH   5   8
BRANCH   1  19
ATOM     19  O   UNL     1       6.707   3.874  15.160  0.00  0.00    +0.000 OA
ATOM     20  H   UNL     1       6.770   2.931  15.383  0.00  0.00    +0.000 HD
ENDBRANCH   1  19
BRANCH   7  21
ATOM     21  O   UNL     1       7.462   6.267  16.243  0.00  0.00    +0.000 OA
ATOM     22  H   UNL     1       7.490   6.371  15.278  0.00  0.00    +0.000 HD
ENDBRANCH   7  21
TORSDOF 4
ENDMDL
MODEL 3
REMARK VINA RESULT:      -7.2      3.978      4.867
REMARK  Name = 
REMARK  4 active torsions:
REMARK  status: ('A' for Active; 'I' for Inactive)
REMARK    1  A    between atoms: O_1  and  C_2
REMARK    2  A    between atoms: C_6  and  C_7
REMARK    3  A    between atoms: C_13  and  O_14
REMARK    4  A    between atoms: C_18  and  O_19
REMARK                            x       y       z     vdW  Elec       q    Type
REMARK                         _______ _______ _______ _____ _____    ______ ____
ROOT
ATOM      1  C   UNL     1       6.987   4.882  14.470  0.00  0.00    +0.000 A 
ATOM      2  C   UNL     1       7.364   5.364  15.712  0.00  0.00    +0.000 A 
ATOM      3  C   UNL     1       6.480   5.262  16.796  0.00  0.00    +0.000 A 
ATOM      4 BR   UNL     1       7.123   6.050  18.414  0.00  0.00    +0.000 Br
ATOM      5  C   UNL     1       5.206   4.654  16.660  0.00  0.00    +0.000 A 
ATOM      6  C   UNL     1       4.826   4.227  15.375  0.00  0.00    +0.000 A 
ATOM      7  C   UNL     1       5.719   4.329  14.296  0.00  0.00    +0.000 A 
ENDROOT
BRANCH   5   8
ATOM      8  C   UNL     1       4.351   4.356  17.817  0.00  0.00    +0.000 A 
ATOM      9  C   UNL     1       3.125   4.863  18.197  0.00  0.00    +0.000 A 
ATOM     10  C   UNL     1       2.690   4.132  19.321  0.00  0.00    +0.000 A 
ATOM     11  C   UNL     1       1.497   4.103  20.058  0.00  0.00    +0.000 A 
ATOM     12  C   UNL     1       1.407   3.252  21.161  0.00  0.00    +0.000 A 
ATOM     13  C   UNL     1       2.504   2.485  21.556  0.00  0.00    +0.000 A 
ATOM     14  C   UNL     1       3.713   2.518  20.837  0.00  0.00    +0.000 A 
ATOM     15  C   UNL     1       3.760   3.321  19.689  0.00  0.00    +0.000 A 
ATOM     16  O   UNL     1       4.783   3.461  18.772  0.00  0.00    +0.000 OA
BRANCH  14  17
ATOM     17  O   UNL     1       4.789   1.788  21.276  0.00  0.00    +0.000 OA
ATOM     18  H   UNL     1       5.580   2.104  20.812  0.00  0.00    +0.000 HD
ENDBRANCH  14  17
ENDBRANCH   5   8
BRANCH   1  19
ATOM     19  O   UNL     1       7.861   4.930  13.421  0.00  0.00    +0.000 OA
ATOM     20  H   UNL     1       7.628   4.249  12.769  0.00  0.00    +0.000 HD
ENDBRANCH   1  19
BRANCH   7  21
ATOM     21  O   UNL     1       5.376   3.849  13.066  0.00  0.00    +0.000 OA
ATOM     22  H   UNL     1       5.388   4.576  12.425  0.00  0.00    +0.000 HD
ENDBRANCH   7  21
TORSDOF 4
ENDMDL
MODEL 4
REMARK VINA RESULT:      -7.1      2.307      2.903
REMARK  Name = 
REMARK  4 active torsions:
REMARK  status: ('A' for Active; 'I' for Inactive)
REMARK    1  A    between atoms: O_1  and  C_2
REMARK    2  A    between atoms: C_6  and  C_7
REMARK    3  A    between atoms: C_13  and  O_14
REMARK    4  A    between atoms: C_18  and  O_19
REMARK                            x       y       z     vdW  Elec       q    Type
REMARK                         _______ _______ _______ _____ _____    ______ ____
ROOT
ATOM      1  C   UNL     1       3.624   2.296  18.217  0.00  0.00    +0.000 A 
ATOM      2  C   UNL     1       4.579   3.287  18.065  0.00  0.00    +0.000 A 
ATOM      3  C   UNL     1       4.197   4.636  18.115  0.00  0.00    +0.000 A 
ATOM      4 BR   UNL     1       5.623   5.870  17.803  0.00  0.00    +0.000 Br
ATOM      5  C   UNL     1       2.851   5.017  18.342  0.00  0.00    +0.000 A 
ATOM      6  C   UNL     1       1.893   3.992  18.434  0.00  0.00    +0.000 A 
ATOM      7  C   UNL     1       2.284   2.644  18.387  0.00  0.00    +0.000 A 
ENDROOT
BRANCH   5   8
ATOM      8  C   UNL     1       2.463   6.412  18.598  0.00  0.00    +0.000 A 
ATOM      9  C   UNL     1       2.367   7.499  17.754  0.00  0.00    +0.000 A 
ATOM     10  C   UNL     1       1.820   8.567  18.495  0.00  0.00    +0.000 A 
ATOM     11  C   UNL     1       1.383   9.857  18.160  0.00  0.00    +0.000 A 
ATOM     12  C   UNL     1       0.903  10.690  19.172  0.00  0.00    +0.000 A 
ATOM     13  C   UNL     1       0.909  10.266  20.501  0.00  0.00    +0.000 A 
ATOM     14  C   UNL     1       1.361   8.981  20.854  0.00  0.00    +0.000 A 
ATOM     15  C   UNL     1       1.769   8.132  19.816  0.00  0.00    +0.000 A 
ATOM     16  O   UNL     1       2.169   6.812  19.884  0.00  0.00    +0.000 OA
BRANCH  14  17
ATOM     17  O   UNL     1       1.399   8.608  22.175  0.00  0.00    +0.000 OA
ATOM     18  H   UNL     1       1.819   7.736  22.233  0.00  0.00    +0.000 HD
ENDBRANCH  14  17
ENDBRANCH   5   8
BRANCH   1  19
ATOM     19  O   UNL     1       3.994   0.982  18.222  0.00  0.00    +0.000 OA
ATOM     20  H   UNL     1       3.344   0.456  17.727  0.00  0.00    +0.000 HD
ENDBRANCH   1  19
BRANCH   7  21
ATOM     21  O   UNL     1       1.364   1.650  18.548  0.00  0.00    +0.000 OA
ATOM     22  H   UNL     1       0.574   2.013  18.980  0.00  0.00    +0.000 HD
ENDBRANCH   7  21
TORSDOF 4
ENDMDL
MODEL 5
REMARK VINA RESULT:      -7.0      1.683      6.554
REMARK  Name = 
REMARK  4 active torsions:
REMARK  status: ('A' for Active; 'I' for Inactive)
REMARK    1  A    between atoms: O_1  and  C_2
REMARK    2  A    between atoms: C_6  and  C_7
REMARK    3  A    between atoms: C_13  and  O_14
REMARK    4  A    between atoms: C_18  and  O_19
REMARK                            x       y       z     vdW  Elec       q    Type
REMARK                         _______ _______ _______ _____ _____    ______ ____
ROOT
ATOM      1  C   UNL     1       1.032   9.265  19.979  0.00  0.00    +0.000 A 
ATOM      2  C   UNL     1       1.311   8.038  20.557  0.00  0.00    +0.000 A 
ATOM      3  C   UNL     1       2.063   7.090  19.847  0.00  0.00    +0.000 A 
ATOM      4 BR   UNL     1       2.285   5.422  20.754  0.00  0.00    +0.000 Br
ATOM      5  C   UNL     1       2.568   7.363  18.551  0.00  0.00    +0.000 A 
ATOM      6  C   UNL     1       2.219   8.593  17.965  0.00  0.00    +0.000 A 
ATOM      7  C   UNL     1       1.470   9.539  18.684  0.00  0.00    +0.000 A 
ENDROOT
BRANCH   5   8
ATOM      8  C   UNL     1       3.519   6.470  17.875  0.00  0.00    +0.000 A 
ATOM      9  C   UNL     1       3.407   5.153  17.477  0.00  0.00    +0.000 A 
ATOM     10  C   UNL     1       4.572   4.825  16.754  0.00  0.00    +0.000 A 
ATOM     11  C   UNL     1       4.971   3.702  16.015  0.00  0.00    +0.000 A 
ATOM     12  C   UNL     1       6.238   3.697  15.428  0.00  0.00    +0.000 A 
ATOM     13  C   UNL     1       7.113   4.767  15.621  0.00  0.00    +0.000 A 
ATOM     14  C   UNL     1       6.733   5.892  16.376  0.00  0.00    +0.000 A 
ATOM     15  C   UNL     1       5.430   5.912  16.894  0.00  0.00    +0.000 A 
ATOM     16  O   UNL     1       4.790   6.921  17.587  0.00  0.00    +0.000 OA
BRANCH  14  17
ATOM     17  O   UNL     1       7.630   6.908  16.588  0.00  0.00    +0.000 OA
ATOM     18  H   UNL     1       7.279   7.715  16.180  0.00  0.00    +0.000 HD
ENDBRANCH  14  17
ENDBRANCH   5   8
BRANCH   1  19
ATOM     19  O   UNL     1       0.346  10.214  20.683  0.00  0.00    +0.000 OA
ATOM     20  H   UNL     1       0.325   9.974  21.623  0.00  0.00    +0.000 HD
ENDBRANCH   1  19
BRANCH   7  21
ATOM     21  O   UNL     1       1.194  10.760  18.143  0.00  0.00    +0.000 OA
ATOM     22  H   UNL     1       0.315  10.736  17.732  0.00  0.00    +0.000 HD
ENDBRANCH   7  21
TORSDOF 4
ENDMDL
MODEL 6
REMARK VINA RESULT:      -6.9      3.579      4.584
REMARK  Name = 
REMARK  4 active torsions:
REMARK  status: ('A' for Active; 'I' for Inactive)
REMARK    1  A    between atoms: O_1  and  C_2
REMARK    2  A    between atoms: C_6  and  C_7
REMARK    3  A    between atoms: C_13  and  O_14
REMARK    4  A    between atoms: C_18  and  O_19
REMARK                            x       y       z     vdW  Elec       q    Type
REMARK                         _______ _______ _______ _____ _____    ______ ____
ROOT
ATOM      1  C   UNL     1       7.227   5.007  14.630  0.00  0.00    +0.000 A 
ATOM      2  C   UNL     1       7.409   5.403  15.944  0.00  0.00    +0.000 A 
ATOM      3  C   UNL     1       6.399   5.167  16.889  0.00  0.00    +0.000 A 
ATOM      4 BR   UNL     1       6.777   5.851  18.633  0.00  0.00    +0.000 Br
ATOM      5  C   UNL     1       5.194   4.508  16.537  0.00  0.00    +0.000 A 
ATOM      6  C   UNL     1       5.011   4.171  15.184  0.00  0.00    +0.000 A 
ATOM      7  C   UNL     1       6.029   4.406  14.246  0.00  0.00    +0.000 A 
ENDROOT
BRANCH   5   8
ATOM      8  C   UNL     1       4.215   4.074  17.543  0.00  0.00    +0.000 A 
ATOM      9  C   UNL     1       3.583   2.862  17.734  0.00  0.00    +0.000 A 
ATOM     10  C   UNL     1       2.841   2.951  18.929  0.00  0.00    +0.000 A 
ATOM     11  C   UNL     1       2.111   2.026  19.689  0.00  0.00    +0.000 A 
ATOM     12  C   UNL     1       1.458   2.467  20.842  0.00  0.00    +0.000 A 
ATOM     13  C   UNL     1       1.487   3.815  21.201  0.00  0.00    +0.000 A 
ATOM     14  C   UNL     1       2.201   4.757  20.439  0.00  0.00    +0.000 A 
ATOM     15  C   UNL     1       2.911   4.283  19.327  0.00  0.00    +0.000 A 
ATOM     16  O   UNL     1       3.748   4.976  18.474  0.00  0.00    +0.000 OA
BRANCH  14  17
ATOM     17  O   UNL     1       2.174   6.083  20.790  0.00  0.00    +0.000 OA
ATOM     18  H   UNL     1       2.433   6.157  21.721  0.00  0.00    +0.000 HD
ENDBRANCH  14  17
ENDBRANCH   5   8
BRANCH   1  19
ATOM     19  O   UNL     1       8.226   5.185  13.715  0.00  0.00    +0.000 OA
ATOM     20  H   UNL     1       8.827   5.885  14.017  0.00  0.00    +0.000 HD
ENDBRANCH   1  19
BRANCH   7  21
ATOM     21  O   UNL     1       5.879   4.012  12.949  0.00  0.00    +0.000 OA
ATOM     22  H   UNL     1       4.958   4.152  12.676  0.00  0.00    +0.000 HD
ENDBRANCH   7  21
TORSDOF 4
ENDMDL
MODEL 7
REMARK VINA RESULT:      -6.8      4.625      5.122
REMARK  Name = 
REMARK  4 active torsions:
REMARK  status: ('A' for Active; 'I' for Inactive)
REMARK    1  A    between atoms: O_1  and  C_2
REMARK    2  A    between atoms: C_6  and  C_7
REMARK    3  A    between atoms: C_13  and  O_14
REMARK    4  A    between atoms: C_18  and  O_19
REMARK                            x       y       z     vdW  Elec       q    Type
REMARK                         _______ _______ _______ _____ _____    ______ ____
ROOT
ATOM      1  C   UNL     1       7.086   4.939  14.841  0.00  0.00    +0.000 A 
ATOM      2  C   UNL     1       7.343   5.358  16.136  0.00  0.00    +0.000 A 
ATOM      3  C   UNL     1       6.440   5.042  17.162  0.00  0.00    +0.000 A 
ATOM      4 BR   UNL     1       6.903   5.767  18.869  0.00  0.00    +0.000 Br
ATOM      5  C   UNL     1       5.271   4.279  16.913  0.00  0.00    +0.000 A 
ATOM      6  C   UNL     1       5.005   3.918  15.580  0.00  0.00    +0.000 A 
ATOM      7  C   UNL     1       5.916   4.234  14.560  0.00  0.00    +0.000 A 
ENDROOT
BRANCH   5   8
ATOM      8  C   UNL     1       4.422   3.768  17.998  0.00  0.00    +0.000 A 
ATOM      9  C   UNL     1       4.728   3.372  19.284  0.00  0.00    +0.000 A 
ATOM     10  C   UNL     1       3.514   3.094  19.945  0.00  0.00    +0.000 A 
ATOM     11  C   UNL     1       3.181   2.778  21.270  0.00  0.00    +0.000 A 
ATOM     12  C   UNL     1       1.844   2.534  21.589  0.00  0.00    +0.000 A 
ATOM     13  C   UNL     1       0.864   2.550  20.596  0.00  0.00    +0.000 A 
ATOM     14  C   UNL     1       1.186   2.849  19.260  0.00  0.00    +0.000 A 
ATOM     15  C   UNL     1       2.521   3.165  18.972  0.00  0.00    +0.000 A 
ATOM     16  O   UNL     1       3.076   3.571  17.774  0.00  0.00    +0.000 OA
BRANCH  14  17
ATOM     17  O   UNL     1       0.209   2.812  18.296  0.00  0.00    +0.000 OA
ATOM     18  H   UNL     1       0.400   3.502  17.643  0.00  0.00    +0.000 HD
ENDBRANCH  14  17
ENDBRANCH   5   8
BRANCH   1  19
ATOM     19  O   UNL     1       7.984   5.196  13.846  0.00  0.00    +0.000 OA
ATOM     20  H   UNL     1       7.648   4.850  13.003  0.00  0.00    +0.000 HD
ENDBRANCH   1  19
BRANCH   7  21
ATOM     21  O   UNL     1       5.692   3.820  13.279  0.00  0.00    +0.000 OA
ATOM     22  H   UNL     1       6.424   3.251  12.995  0.00  0.00    +0.000 HD
ENDBRANCH   7  21
TORSDOF 4
ENDMDL
MODEL 8
REMARK VINA RESULT:      -6.8      2.066      2.239
REMARK  Name = 
REMARK  4 active torsions:
REMARK  status: ('A' for Active; 'I' for Inactive)
REMARK    1  A    between atoms: O_1  and  C_2
REMARK    2  A    between atoms: C_6  and  C_7
REMARK    3  A    between atoms: C_13  and  O_14
REMARK    4  A    between atoms: C_18  and  O_19
REMARK                            x       y       z     vdW  Elec       q    Type
REMARK                         _______ _______ _______ _____ _____    ______ ____
ROOT
ATOM      1  C   UNL     1       4.511   2.994  19.438  0.00  0.00    +0.000 A 
ATOM      2  C   UNL     1       3.194   3.109  19.849  0.00  0.00    +0.000 A 
ATOM      3  C   UNL     1       2.584   4.372  19.885  0.00  0.00    +0.000 A 
ATOM      4 BR   UNL     1       0.794   4.363  20.554  0.00  0.00    +0.000 Br
ATOM      5  C   UNL     1       3.279   5.543  19.487  0.00  0.00    +0.000 A 
ATOM      6  C   UNL     1       4.632   5.404  19.132  0.00  0.00    +0.000 A 
ATOM      7  C   UNL     1       5.234   4.136  19.094  0.00  0.00    +0.000 A 
ENDROOT
BRANCH   5   8
ATOM      8  C   UNL     1       2.604   6.838  19.325  0.00  0.00    +0.000 A 
ATOM      9  C   UNL     1       2.402   7.625  18.210  0.00  0.00    +0.000 A 
ATOM     10  C   UNL     1       1.578   8.704  18.592  0.00  0.00    +0.000 A 
ATOM     11  C   UNL     1       0.945   9.739  17.889  0.00  0.00    +0.000 A 
ATOM     12  C   UNL     1       0.200  10.680  18.602  0.00  0.00    +0.000 A 
ATOM     13  C   UNL     1       0.132  10.624  19.994  0.00  0.00    +0.000 A 
ATOM     14  C   UNL     1       0.776   9.601  20.714  0.00  0.00    +0.000 A 
ATOM     15  C   UNL     1       1.457   8.622  19.977  0.00  0.00    +0.000 A 
ATOM     16  O   UNL     1       2.091   7.482  20.430  0.00  0.00    +0.000 OA
BRANCH  14  17
ATOM     17  O   UNL     1       0.730   9.598  22.086  0.00  0.00    +0.000 OA
ATOM     18  H   UNL     1       0.816   8.681  22.391  0.00  0.00    +0.000 HD
ENDBRANCH  14  17
ENDBRANCH   5   8
BRANCH   1  19
ATOM     19  O   UNL     1       5.097   1.763  19.350  0.00  0.00    +0.000 OA
ATOM     20  H   UNL     1       4.490   1.141  18.917  0.00  0.00    +0.000 HD
ENDBRANCH   1  19
BRANCH   7  21
ATOM     21  O   UNL     1       6.525   3.994  18.680  0.00  0.00    +0.000 OA
ATOM     22  H   UNL     1       6.592   3.220  18.099  0.00  0.00    +0.000 HD
ENDBRANCH   7  21
TORSDOF 4
ENDMDL
MODEL 9
REMARK VINA RESULT:      -6.8      1.525      1.897
REMARK  Name = 
REMARK  4 active torsions:
REMARK  status: ('A' for Active; 'I' for Inactive)
REMARK    1  A    between atoms: O_1  and  C_2
REMARK    2  A    between atoms: C_6  and  C_7
REMARK    3  A    between atoms: C_13  and  O_14
REMARK    4  A    between atoms: C_18  and  O_19
REMARK                            x       y       z     vdW  Elec       q    Type
REMARK                         _______ _______ _______ _____ _____    ______ ____
ROOT
ATOM      1  C   UNL     1       3.888   2.499  18.025  0.00  0.00    +0.000 A 
ATOM      2  C   UNL     1       2.847   2.724  18.910  0.00  0.00    +0.000 A 
ATOM      3  C   UNL     1       2.467   4.038  19.219  0.00  0.00    +0.000 A 
ATOM      4 BR   UNL     1       1.073   4.170  20.520  0.00  0.00    +0.000 Br
ATOM      5  C   UNL     1       3.111   5.155  18.627  0.00  0.00    +0.000 A 
ATOM      6  C   UNL     1       4.202   4.899  17.778  0.00  0.00    +0.000 A 
ATOM      7  C   UNL     1       4.573   3.580  17.470  0.00  0.00    +0.000 A 
ENDROOT
BRANCH   5   8
ATOM      8  C   UNL     1       2.602   6.525  18.779  0.00  0.00    +0.000 A 
ATOM      9  C   UNL     1       2.482   7.557  17.871  0.00  0.00    +0.000 A 
ATOM     10  C   UNL     1       1.807   8.614  18.513  0.00  0.00    +0.000 A 
ATOM     11  C   UNL     1       1.298   9.847  18.079  0.00  0.00    +0.000 A 
ATOM     12  C   UNL     1       0.687  10.690  19.010  0.00  0.00    +0.000 A 
ATOM     13  C   UNL     1       0.634  10.336  20.358  0.00  0.00    +0.000 A 
ATOM     14  C   UNL     1       1.156   9.111  20.811  0.00  0.00    +0.000 A 
ATOM     15  C   UNL     1       1.698   8.245  19.851  0.00  0.00    +0.000 A 
ATOM     16  O   UNL     1       2.191   6.966  20.019  0.00  0.00    +0.000 OA
BRANCH  14  17
ATOM     17  O   UNL     1       1.131   8.810  22.150  0.00  0.00    +0.000 OA
ATOM     18  H   UNL     1       0.449   8.137  22.298  0.00  0.00    +0.000 HD
ENDBRANCH  14  17
ENDBRANCH   5   8
BRANCH   1  19
ATOM     19  O   UNL     1       4.230   1.223  17.678  0.00  0.00    +0.000 OA
ATOM     20  H   UNL     1       3.618   0.891  17.001  0.00  0.00    +0.000 HD
ENDBRANCH   1  19
BRANCH   7  21
ATOM     21  O   UNL     1       5.585   3.333  16.590  0.00  0.00    +0.000 OA
ATOM     22  H   UNL     1       5.220   2.923  15.790  0.00  0.00    +0.000 HD
ENDBRANCH   7  21
TORSDOF 4
ENDMDL
