MODEL 1
REMARK VINA RESULT:      -7.1      0.000      0.000
REMARK  Name = 
REMARK  10 active torsions:
REMARK  status: ('A' for Active; 'I' for Inactive)
REMARK    1  A    between atoms: C_1  and  O_2
REMARK    2  A    between atoms: O_2  and  C_3
REMARK    3  A    between atoms: C_9  and  S_10
REMARK    4  A    between atoms: S_10  and  N_13
REMARK    5  A    between atoms: N_16  and  C_17
REMARK    6  A    between atoms: C_17  and  C_18
REMARK    7  A    between atoms: C_18  and  C_20
REMARK    8  A    between atoms: C_20  and  C_21
REMARK    9  A    between atoms: C_20  and  C_22
REMARK   10  A    between atoms: C_20  and  C_23
REMARK                            x       y       z     vdW  Elec       q    Type
REMARK                         _______ _______ _______ _____ _____    ______ ____
ROOT
ATOM      1  N   UNL     1       5.981   4.109  16.719  0.00  0.00    +0.000 NA
ATOM      2  C   UNL     1       6.419   4.324  18.122  0.00  0.00    +0.000 C 
ATOM      3  C   UNL     1       5.665   5.476  18.802  0.00  0.00    +0.000 C 
ATOM      4  N   UNL     1       4.200   5.456  18.687  0.00  0.00    +0.000 NA
ATOM      5  C   UNL     1       3.652   4.783  17.496  0.00  0.00    +0.000 C 
ATOM      6  C   UNL     1       4.520   3.696  16.810  0.00  0.00    +0.000 C 
ENDROOT
BRANCH   1   7
ATOM      7  S   UNL     1       6.230   5.333  15.552  0.00  0.00    +0.000 S 
ATOM      8  O   UNL     1       7.472   6.018  15.825  0.00  0.00    +0.000 OA
ATOM      9  O   UNL     1       4.997   6.089  15.538  0.00  0.00    +0.000 OA
BRANCH   7  16
ATOM     10  C   UNL     1       7.524   4.650  13.093  0.00  0.00    +0.000 A 
ATOM     11  C   UNL     1       7.615   3.652  12.108  0.00  0.00    +0.000 A 
ATOM     12  C   UNL     1       6.449   3.084  11.622  0.00  0.00    +0.000 A 
ATOM     13  C   UNL     1       5.230   3.440  12.191  0.00  0.00    +0.000 A 
ATOM     14 CL   UNL     1       3.762   2.997  11.419  0.00  0.00    +0.000 Cl
ATOM     15  C   UNL     1       5.205   4.181  13.367  0.00  0.00    +0.000 A 
ATOM     16  C   UNL     1       6.391   4.726  13.880  0.00  0.00    +0.000 A 
BRANCH  10  18
ATOM     17  C   UNL     1       8.095   6.373  11.616  0.00  0.00    +0.000 C 
ATOM     18  O   UNL     1       8.325   5.749  12.904  0.00  0.00    +0.000 OA
ENDBRANCH  10  18
ENDBRANCH   7  16
ENDBRANCH   1   7
BRANCH   4  19
ATOM     19  C   UNL     1       3.491   5.191  19.939  0.00  0.00    +0.000 C 
BRANCH  19  20
ATOM     20  C   UNL     1       3.162   3.714  20.151  0.00  0.00    +0.000 C 
ATOM     21  O   UNL     1       4.046   2.849  20.121  0.00  0.00    +0.000 OA
BRANCH  20  22
ATOM     22  C   UNL     1       1.684   3.308  20.302  0.00  0.00    +0.000 C 
ATOM     23  C   UNL     1       1.516   2.546  21.617  0.00  0.00    +0.000 C 
ATOM     24  C   UNL     1       0.830   4.587  20.327  0.00  0.00    +0.000 C 
ATOM     25  C   UNL     1       1.215   2.442  19.123  0.00  0.00    +0.000 C 
ENDBRANCH  20  22
ENDBRANCH  19  20
ENDBRANCH   4  19
TORSDOF 6
ENDMDL
MODEL 2
REMARK VINA RESULT:      -6.6      0.873      1.164
REMARK  Name = 
REMARK  10 active torsions:
REMARK  status: ('A' for Active; 'I' for Inactive)
REMARK    1  A    between atoms: C_1  and  O_2
REMARK    2  A    between atoms: O_2  and  C_3
REMARK    3  A    between atoms: C_9  and  S_10
REMARK    4  A    between atoms: S_10  and  N_13
REMARK    5  A    between atoms: N_16  and  C_17
REMARK    6  A    between atoms: C_17  and  C_18
REMARK    7  A    between atoms: C_18  and  C_20
REMARK    8  A    between atoms: C_20  and  C_21
REMARK    9  A    between atoms: C_20  and  C_22
REMARK   10  A    between atoms: C_20  and  C_23
REMARK                            x       y       z     vdW  Elec       q    Type
REMARK                         _______ _______ _______ _____ _____    ______ ____
ROOT
ATOM      1  N   UNL     1       5.681   4.102  16.845  0.00  0.00    +0.000 NA
ATOM      2  C   UNL     1       6.123   4.202  18.259  0.00  0.00    +0.000 C 
ATOM      3  C   UNL     1       5.489   5.396  18.989  0.00  0.00    +0.000 C 
ATOM      4  N   UNL     1       4.032   5.540  18.863  0.00  0.00    +0.000 NA
ATOM      5  C   UNL     1       3.429   4.986  17.636  0.00  0.00    +0.000 C 
ATOM      6  C   UNL     1       4.184   3.845  16.905  0.00  0.00    +0.000 C 
ENDROOT
BRANCH   1   7
ATOM      7  S   UNL     1       6.075   5.346  15.740  0.00  0.00    +0.000 S 
ATOM      8  O   UNL     1       7.325   5.959  16.125  0.00  0.00    +0.000 OA
ATOM      9  O   UNL     1       4.884   6.162  15.660  0.00  0.00    +0.000 OA
BRANCH   7  16
ATOM     10  C   UNL     1       7.505   4.735  13.337  0.00  0.00    +0.000 A 
ATOM     11  C   UNL     1       7.659   3.762  12.336  0.00  0.00    +0.000 A 
ATOM     12  C   UNL     1       6.529   3.193  11.776  0.00  0.00    +0.000 A 
ATOM     13  C   UNL     1       5.277   3.521  12.288  0.00  0.00    +0.000 A 
ATOM     14 CL   UNL     1       3.857   3.080  11.430  0.00  0.00    +0.000 Cl
ATOM     15  C   UNL     1       5.180   4.234  13.478  0.00  0.00    +0.000 A 
ATOM     16  C   UNL     1       6.331   4.780  14.065  0.00  0.00    +0.000 A 
BRANCH  10  18
ATOM     17  C   UNL     1       8.352   6.331  11.851  0.00  0.00    +0.000 C 
ATOM     18  O   UNL     1       8.300   5.848  13.216  0.00  0.00    +0.000 OA
ENDBRANCH  10  18
ENDBRANCH   7  16
ENDBRANCH   1   7
BRANCH   4  19
ATOM     19  C   UNL     1       3.283   5.294  20.096  0.00  0.00    +0.000 C 
BRANCH  19  20
ATOM     20  C   UNL     1       2.101   4.344  19.910  0.00  0.00    +0.000 C 
ATOM     21  O   UNL     1       0.994   4.760  19.546  0.00  0.00    +0.000 OA
BRANCH  20  22
ATOM     22  C   UNL     1       2.288   2.861  20.285  0.00  0.00    +0.000 C 
ATOM     23  C   UNL     1       1.556   2.592  21.599  0.00  0.00    +0.000 C 
ATOM     24  C   UNL     1       1.684   1.998  19.164  0.00  0.00    +0.000 C 
ATOM     25  C   UNL     1       3.774   2.498  20.421  0.00  0.00    +0.000 C 
ENDBRANCH  20  22
ENDBRANCH  19  20
ENDBRANCH   4  19
TORSDOF 6
ENDMDL
MODEL 3
REMARK VINA RESULT:      -6.4      1.333      1.963
REMARK  Name = 
REMARK  10 active torsions:
REMARK  status: ('A' for Active; 'I' for Inactive)
REMARK    1  A    between atoms: C_1  and  O_2
REMARK    2  A    between atoms: O_2  and  C_3
REMARK    3  A    between atoms: C_9  and  S_10
REMARK    4  A    between atoms: S_10  and  N_13
REMARK    5  A    between atoms: N_16  and  C_17
REMARK    6  A    between atoms: C_17  and  C_18
REMARK    7  A    between atoms: C_18  and  C_20
REMARK    8  A    between atoms: C_20  and  C_21
REMARK    9  A    between atoms: C_20  and  C_22
REMARK   10  A    between atoms: C_20  and  C_23
REMARK                            x       y       z     vdW  Elec       q    Type
REMARK                         _______ _______ _______ _____ _____    ______ ____
ROOT
ATOM      1  N   UNL     1       5.866   5.828  16.500  0.00  0.00    +0.000 NA
ATOM      2  C   UNL     1       4.397   6.020  16.599  0.00  0.00    +0.000 C 
ATOM      3  C   UNL     1       3.730   4.985  17.520  0.00  0.00    +0.000 C 
ATOM      4  N   UNL     1       4.345   4.796  18.842  0.00  0.00    +0.000 NA
ATOM      5  C   UNL     1       5.788   5.083  18.933  0.00  0.00    +0.000 C 
ATOM      6  C   UNL     1       6.401   6.067  17.903  0.00  0.00    +0.000 C 
ENDROOT
BRANCH   1   7
ATOM      7  S   UNL     1       6.493   4.394  15.809  0.00  0.00    +0.000 S 
ATOM      8  O   UNL     1       5.686   3.268  16.215  0.00  0.00    +0.000 OA
ATOM      9  O   UNL     1       7.901   4.409  16.140  0.00  0.00    +0.000 OA
BRANCH   7  16
ATOM     10  C   UNL     1       7.450   4.757  13.137  0.00  0.00    +0.000 A 
ATOM     11  C   UNL     1       7.522   4.145  11.875  0.00  0.00    +0.000 A 
ATOM     12  C   UNL     1       6.387   3.542  11.358  0.00  0.00    +0.000 A 
ATOM     13  C   UNL     1       5.240   3.467  12.141  0.00  0.00    +0.000 A 
ATOM     14 CL   UNL     1       3.745   3.011  11.431  0.00  0.00    +0.000 Cl
ATOM     15  C   UNL     1       5.300   3.794  13.492  0.00  0.00    +0.000 A 
ATOM     16  C   UNL     1       6.463   4.371  14.024  0.00  0.00    +0.000 A 
BRANCH  10  18
ATOM     17  C   UNL     1       9.481   5.918  13.092  0.00  0.00    +0.000 C 
ATOM     18  O   UNL     1       8.040   5.993  13.237  0.00  0.00    +0.000 OA
ENDBRANCH  10  18
ENDBRANCH   7  16
ENDBRANCH   1   7
BRANCH   4  19
ATOM     19  C   UNL     1       3.538   5.272  19.966  0.00  0.00    +0.000 C 
BRANCH  19  20
ATOM     20  C   UNL     1       2.229   4.505  20.143  0.00  0.00    +0.000 C 
ATOM     21  O   UNL     1       1.140   5.091  20.163  0.00  0.00    +0.000 OA
BRANCH  20  22
ATOM     22  C   UNL     1       2.299   2.987  20.398  0.00  0.00    +0.000 C 
ATOM     23  C   UNL     1       1.437   2.654  21.616  0.00  0.00    +0.000 C 
ATOM     24  C   UNL     1       1.751   2.262  19.157  0.00  0.00    +0.000 C 
ATOM     25  C   UNL     1       3.745   2.521  20.627  0.00  0.00    +0.000 C 
ENDBRANCH  20  22
ENDBRANCH  19  20
ENDBRANCH   4  19
TORSDOF 6
ENDMDL
MODEL 4
REMARK VINA RESULT:      -6.4      3.606      5.190
REMARK  Name = 
REMARK  10 active torsions:
REMARK  status: ('A' for Active; 'I' for Inactive)
REMARK    1  A    between atoms: C_1  and  O_2
REMARK    2  A    between atoms: O_2  and  C_3
REMARK    3  A    between atoms: C_9  and  S_10
REMARK    4  A    between atoms: S_10  and  N_13
REMARK    5  A    between atoms: N_16  and  C_17
REMARK    6  A    between atoms: C_17  and  C_18
REMARK    7  A    between atoms: C_18  and  C_20
REMARK    8  A    between atoms: C_20  and  C_21
REMARK    9  A    between atoms: C_20  and  C_22
REMARK   10  A    between atoms: C_20  and  C_23
REMARK                            x       y       z     vdW  Elec       q    Type
REMARK                         _______ _______ _______ _____ _____    ______ ____
ROOT
ATOM      1  N   UNL     1       2.640   4.845  18.613  0.00  0.00    +0.000 NA
ATOM      2  C   UNL     1       1.555   4.574  19.589  0.00  0.00    +0.000 C 
ATOM      3  C   UNL     1       1.644   5.475  20.831  0.00  0.00    +0.000 C 
ATOM      4  N   UNL     1       1.806   6.914  20.584  0.00  0.00    +0.000 NA
ATOM      5  C   UNL     1       2.472   7.285  19.322  0.00  0.00    +0.000 C 
ATOM      6  C   UNL     1       2.417   6.275  18.146  0.00  0.00    +0.000 C 
ENDROOT
BRANCH   1   7
ATOM      7  S   UNL     1       4.269   4.559  19.049  0.00  0.00    +0.000 S 
ATOM      8  O   UNL     1       4.416   3.198  19.508  0.00  0.00    +0.000 OA
ATOM      9  O   UNL     1       4.610   5.645  19.942  0.00  0.00    +0.000 OA
BRANCH   7  16
ATOM     10  C   UNL     1       6.772   5.033  17.746  0.00  0.00    +0.000 A 
ATOM     11  C   UNL     1       7.627   4.550  16.742  0.00  0.00    +0.000 A 
ATOM     12  C   UNL     1       7.087   4.195  15.517  0.00  0.00    +0.000 A 
ATOM     13  C   UNL     1       5.706   4.227  15.347  0.00  0.00    +0.000 A 
ATOM     14 CL   UNL     1       5.033   4.094  13.774  0.00  0.00    +0.000 Cl
ATOM     15  C   UNL     1       4.876   4.399  16.450  0.00  0.00    +0.000 A 
ATOM     16  C   UNL     1       5.425   4.723  17.699  0.00  0.00    +0.000 A 
BRANCH  10  18
ATOM     17  C   UNL     1       7.272   7.312  17.575  0.00  0.00    +0.000 C 
ATOM     18  O   UNL     1       7.215   6.140  18.426  0.00  0.00    +0.000 OA
ENDBRANCH  10  18
ENDBRANCH   7  16
ENDBRANCH   1   7
BRANCH   4  19
ATOM     19  C   UNL     1       0.647   7.732  20.944  0.00  0.00    +0.000 C 
BRANCH  19  20
ATOM     20  C   UNL     1       1.021   9.080  21.557  0.00  0.00    +0.000 C 
ATOM     21  O   UNL     1       1.898   9.170  22.424  0.00  0.00    +0.000 OA
BRANCH  20  22
ATOM     22  C   UNL     1       0.208  10.322  21.144  0.00  0.00    +0.000 C 
ATOM     23  C   UNL     1      -0.675  10.743  22.318  0.00  0.00    +0.000 C 
ATOM     24  C   UNL     1       1.193  11.453  20.800  0.00  0.00    +0.000 C 
ATOM     25  C   UNL     1      -0.654  10.044  19.903  0.00  0.00    +0.000 C 
ENDBRANCH  20  22
ENDBRANCH  19  20
ENDBRANCH   4  19
TORSDOF 6
ENDMDL
MODEL 5
REMARK VINA RESULT:      -6.4      3.190      5.302
REMARK  Name = 
REMARK  10 active torsions:
REMARK  status: ('A' for Active; 'I' for Inactive)
REMARK    1  A    between atoms: C_1  and  O_2
REMARK    2  A    between atoms: O_2  and  C_3
REMARK    3  A    between atoms: C_9  and  S_10
REMARK    4  A    between atoms: S_10  and  N_13
REMARK    5  A    between atoms: N_16  and  C_17
REMARK    6  A    between atoms: C_17  and  C_18
REMARK    7  A    between atoms: C_18  and  C_20
REMARK    8  A    between atoms: C_20  and  C_21
REMARK    9  A    between atoms: C_20  and  C_22
REMARK   10  A    between atoms: C_20  and  C_23
REMARK                            x       y       z     vdW  Elec       q    Type
REMARK                         _______ _______ _______ _____ _____    ______ ____
ROOT
ATOM      1  N   UNL     1       2.950   3.716  19.971  0.00  0.00    +0.000 NA
ATOM      2  C   UNL     1       3.166   5.160  20.240  0.00  0.00    +0.000 C 
ATOM      3  C   UNL     1       3.281   5.987  18.949  0.00  0.00    +0.000 C 
ATOM      4  N   UNL     1       2.234   5.772  17.941  0.00  0.00    +0.000 NA
ATOM      5  C   UNL     1       1.593   4.444  17.943  0.00  0.00    +0.000 C 
ATOM      6  C   UNL     1       1.605   3.632  19.265  0.00  0.00    +0.000 C 
ENDROOT
BRANCH   1   7
ATOM      7  S   UNL     1       4.155   2.809  19.166  0.00  0.00    +0.000 S 
ATOM      8  O   UNL     1       3.534   1.880  18.252  0.00  0.00    +0.000 OA
ATOM      9  O   UNL     1       5.004   2.301  20.221  0.00  0.00    +0.000 OA
BRANCH   7  16
ATOM     10  C   UNL     1       6.426   4.427  18.521  0.00  0.00    +0.000 A 
ATOM     11  C   UNL     1       7.432   4.622  17.560  0.00  0.00    +0.000 A 
ATOM     12  C   UNL     1       7.087   4.619  16.219  0.00  0.00    +0.000 A 
ATOM     13  C   UNL     1       5.778   4.322  15.854  0.00  0.00    +0.000 A 
ATOM     14 CL   UNL     1       5.250   4.608  14.246  0.00  0.00    +0.000 Cl
ATOM     15  C   UNL     1       4.890   3.822  16.802  0.00  0.00    +0.000 A 
ATOM     16  C   UNL     1       5.254   3.791  18.157  0.00  0.00    +0.000 A 
BRANCH  10  18
ATOM     17  C   UNL     1       7.790   5.801  19.834  0.00  0.00    +0.000 C 
ATOM     18  O   UNL     1       6.461   5.272  19.603  0.00  0.00    +0.000 OA
ENDBRANCH  10  18
ENDBRANCH   7  16
ENDBRANCH   1   7
BRANCH   4  19
ATOM     19  C   UNL     1       1.328   6.905  17.748  0.00  0.00    +0.000 C 
BRANCH  19  20
ATOM     20  C   UNL     1       2.039   8.257  17.734  0.00  0.00    +0.000 C 
ATOM     21  O   UNL     1       3.151   8.391  17.209  0.00  0.00    +0.000 OA
BRANCH  20  22
ATOM     22  C   UNL     1       1.385   9.436  18.479  0.00  0.00    +0.000 C 
ATOM     23  C   UNL     1       2.205  10.698  18.216  0.00  0.00    +0.000 C 
ATOM     24  C   UNL     1      -0.044   9.618  17.938  0.00  0.00    +0.000 C 
ATOM     25  C   UNL     1       1.295   9.166  19.989  0.00  0.00    +0.000 C 
ENDBRANCH  20  22
ENDBRANCH  19  20
ENDBRANCH   4  19
TORSDOF 6
ENDMDL
MODEL 6
REMARK VINA RESULT:      -6.4      3.636      5.501
REMARK  Name = 
REMARK  10 active torsions:
REMARK  status: ('A' for Active; 'I' for Inactive)
REMARK    1  A    between atoms: C_1  and  O_2
REMARK    2  A    between atoms: O_2  and  C_3
REMARK    3  A    between atoms: C_9  and  S_10
REMARK    4  A    between atoms: S_10  and  N_13
REMARK    5  A    between atoms: N_16  and  C_17
REMARK    6  A    between atoms: C_17  and  C_18
REMARK    7  A    between atoms: C_18  and  C_20
REMARK    8  A    between atoms: C_20  and  C_21
REMARK    9  A    between atoms: C_20  and  C_22
REMARK   10  A    between atoms: C_20  and  C_23
REMARK                            x       y       z     vdW  Elec       q    Type
REMARK                         _______ _______ _______ _____ _____    ______ ____
ROOT
ATOM      1  N   UNL     1       2.881   3.696  19.672  0.00  0.00    +0.000 NA
ATOM      2  C   UNL     1       2.923   5.047  20.288  0.00  0.00    +0.000 C 
ATOM      3  C   UNL     1       3.100   6.163  19.246  0.00  0.00    +0.000 C 
ATOM      4  N   UNL     1       2.197   6.122  18.086  0.00  0.00    +0.000 NA
ATOM      5  C   UNL     1       1.694   4.791  17.703  0.00  0.00    +0.000 C 
ATOM      6  C   UNL     1       1.638   3.691  18.795  0.00  0.00    +0.000 C 
ENDROOT
BRANCH   1   7
ATOM      7  S   UNL     1       4.251   3.093  18.847  0.00  0.00    +0.000 S 
ATOM      8  O   UNL     1       3.836   2.127  17.857  0.00  0.00    +0.000 OA
ATOM      9  O   UNL     1       5.164   2.685  19.893  0.00  0.00    +0.000 OA
BRANCH   7  16
ATOM     10  C   UNL     1       4.929   4.805  16.656  0.00  0.00    +0.000 A 
ATOM     11  C   UNL     1       5.303   6.118  16.328  0.00  0.00    +0.000 A 
ATOM     12  C   UNL     1       6.279   6.745  17.084  0.00  0.00    +0.000 A 
ATOM     13  C   UNL     1       6.788   6.100  18.207  0.00  0.00    +0.000 A 
ATOM     14 CL   UNL     1       8.198   6.704  18.978  0.00  0.00    +0.000 Cl
ATOM     15  C   UNL     1       6.172   4.947  18.684  0.00  0.00    +0.000 A 
ATOM     16  C   UNL     1       5.157   4.332  17.935  0.00  0.00    +0.000 A 
BRANCH  10  18
ATOM     17  C   UNL     1       5.739   4.243  14.534  0.00  0.00    +0.000 C 
ATOM     18  O   UNL     1       4.803   3.938  15.599  0.00  0.00    +0.000 OA
ENDBRANCH  10  18
ENDBRANCH   7  16
ENDBRANCH   1   7
BRANCH   4  19
ATOM     19  C   UNL     1       1.212   7.203  18.039  0.00  0.00    +0.000 C 
BRANCH  19  20
ATOM     20  C   UNL     1       1.835   8.588  17.880  0.00  0.00    +0.000 C 
ATOM     21  O   UNL     1       2.908   8.744  17.284  0.00  0.00    +0.000 OA
BRANCH  20  22
ATOM     22  C   UNL     1       1.149   9.783  18.568  0.00  0.00    +0.000 C 
ATOM     23  C   UNL     1       1.087   9.515  20.071  0.00  0.00    +0.000 C 
ATOM     24  C   UNL     1       1.986  11.045  18.295  0.00  0.00    +0.000 C 
ATOM     25  C   UNL     1      -0.264  10.017  18.012  0.00  0.00    +0.000 C 
ENDBRANCH  20  22
ENDBRANCH  19  20
ENDBRANCH   4  19
TORSDOF 6
ENDMDL
MODEL 7
REMARK VINA RESULT:      -6.3      0.892      1.624
REMARK  Name = 
REMARK  10 active torsions:
REMARK  status: ('A' for Active; 'I' for Inactive)
REMARK    1  A    between atoms: C_1  and  O_2
REMARK    2  A    between atoms: O_2  and  C_3
REMARK    3  A    between atoms: C_9  and  S_10
REMARK    4  A    between atoms: S_10  and  N_13
REMARK    5  A    between atoms: N_16  and  C_17
REMARK    6  A    between atoms: C_17  and  C_18
REMARK    7  A    between atoms: C_18  and  C_20
REMARK    8  A    between atoms: C_20  and  C_21
REMARK    9  A    between atoms: C_20  and  C_22
REMARK   10  A    between atoms: C_20  and  C_23
REMARK                            x       y       z     vdW  Elec       q    Type
REMARK                         _______ _______ _______ _____ _____    ______ ____
ROOT
ATOM      1  N   UNL     1       4.902   5.476  16.098  0.00  0.00    +0.000 NA
ATOM      2  C   UNL     1       3.851   4.526  16.543  0.00  0.00    +0.000 C 
ATOM      3  C   UNL     1       4.266   3.734  17.793  0.00  0.00    +0.000 C 
ATOM      4  N   UNL     1       4.800   4.519  18.915  0.00  0.00    +0.000 NA
ATOM      5  C   UNL     1       5.457   5.791  18.563  0.00  0.00    +0.000 C 
ATOM      6  C   UNL     1       5.049   6.477  17.233  0.00  0.00    +0.000 C 
ENDROOT
BRANCH   1   7
ATOM      7  S   UNL     1       6.415   4.884  15.564  0.00  0.00    +0.000 S 
ATOM      8  O   UNL     1       6.744   3.676  16.283  0.00  0.00    +0.000 OA
ATOM      9  O   UNL     1       7.307   6.020  15.647  0.00  0.00    +0.000 OA
BRANCH   7  16
ATOM     10  C   UNL     1       7.531   4.386  12.977  0.00  0.00    +0.000 A 
ATOM     11  C   UNL     1       7.526   3.478  11.905  0.00  0.00    +0.000 A 
ATOM     12  C   UNL     1       6.315   2.990  11.447  0.00  0.00    +0.000 A 
ATOM     13  C   UNL     1       5.145   3.328  12.122  0.00  0.00    +0.000 A 
ATOM     14 CL   UNL     1       3.619   2.998  11.410  0.00  0.00    +0.000 Cl
ATOM     15  C   UNL     1       5.218   3.962  13.358  0.00  0.00    +0.000 A 
ATOM     16  C   UNL     1       6.451   4.424  13.839  0.00  0.00    +0.000 A 
BRANCH  10  18
ATOM     17  C   UNL     1       7.895   6.370  11.790  0.00  0.00    +0.000 C 
ATOM     18  O   UNL     1       8.355   5.475  12.834  0.00  0.00    +0.000 OA
ENDBRANCH  10  18
ENDBRANCH   7  16
ENDBRANCH   1   7
BRANCH   4  19
ATOM     19  C   UNL     1       3.936   4.565  20.095  0.00  0.00    +0.000 C 
BRANCH  19  20
ATOM     20  C   UNL     1       3.315   3.215  20.448  0.00  0.00    +0.000 C 
ATOM     21  O   UNL     1       4.020   2.224  20.675  0.00  0.00    +0.000 OA
BRANCH  20  22
ATOM     22  C   UNL     1       1.780   3.085  20.417  0.00  0.00    +0.000 C 
ATOM     23  C   UNL     1       1.385   2.218  19.221  0.00  0.00    +0.000 C 
ATOM     24  C   UNL     1       1.325   2.413  21.723  0.00  0.00    +0.000 C 
ATOM     25  C   UNL     1       1.101   4.459  20.323  0.00  0.00    +0.000 C 
ENDBRANCH  20  22
ENDBRANCH  19  20
ENDBRANCH   4  19
TORSDOF 6
ENDMDL
MODEL 8
REMARK VINA RESULT:      -6.3      3.241      5.297
REMARK  Name = 
REMARK  10 active torsions:
REMARK  status: ('A' for Active; 'I' for Inactive)
REMARK    1  A    between atoms: C_1  and  O_2
REMARK    2  A    between atoms: O_2  and  C_3
REMARK    3  A    between atoms: C_9  and  S_10
REMARK    4  A    between atoms: S_10  and  N_13
REMARK    5  A    between atoms: N_16  and  C_17
REMARK    6  A    between atoms: C_17  and  C_18
REMARK    7  A    between atoms: C_18  and  C_20
REMARK    8  A    between atoms: C_20  and  C_21
REMARK    9  A    between atoms: C_20  and  C_22
REMARK   10  A    between atoms: C_20  and  C_23
REMARK                            x       y       z     vdW  Elec       q    Type
REMARK                         _______ _______ _______ _____ _____    ______ ____
ROOT
ATOM      1  N   UNL     1       2.091   3.878  18.597  0.00  0.00    +0.000 NA
ATOM      2  C   UNL     1       1.335   4.256  19.818  0.00  0.00    +0.000 C 
ATOM      3  C   UNL     1       2.050   5.341  20.639  0.00  0.00    +0.000 C 
ATOM      4  N   UNL     1       2.511   6.523  19.897  0.00  0.00    +0.000 NA
ATOM      5  C   UNL     1       2.823   6.314  18.472  0.00  0.00    +0.000 C 
ATOM      6  C   UNL     1       2.130   5.134  17.740  0.00  0.00    +0.000 C 
ENDROOT
BRANCH   1   7
ATOM      7  S   UNL     1       3.632   3.151  18.740  0.00  0.00    +0.000 S 
ATOM      8  O   UNL     1       3.570   1.786  18.270  0.00  0.00    +0.000 OA
ATOM      9  O   UNL     1       4.039   3.410  20.104  0.00  0.00    +0.000 OA
BRANCH   7  16
ATOM     10  C   UNL     1       6.085   4.507  18.162  0.00  0.00    +0.000 A 
ATOM     11  C   UNL     1       7.188   4.516  17.293  0.00  0.00    +0.000 A 
ATOM     12  C   UNL     1       6.969   4.390  15.932  0.00  0.00    +0.000 A 
ATOM     13  C   UNL     1       5.677   4.155  15.470  0.00  0.00    +0.000 A 
ATOM     14 CL   UNL     1       5.326   4.300  13.796  0.00  0.00    +0.000 Cl
ATOM     15  C   UNL     1       4.666   3.834  16.370  0.00  0.00    +0.000 A 
ATOM     16  C   UNL     1       4.899   3.926  17.750  0.00  0.00    +0.000 A 
BRANCH  10  18
ATOM     17  C   UNL     1       7.442   5.843  19.522  0.00  0.00    +0.000 C 
ATOM     18  O   UNL     1       6.093   5.462  19.149  0.00  0.00    +0.000 OA
ENDBRANCH  10  18
ENDBRANCH   7  16
ENDBRANCH   1   7
BRANCH   4  19
ATOM     19  C   UNL     1       1.791   7.759  20.207  0.00  0.00    +0.000 C 
BRANCH  19  20
ATOM     20  C   UNL     1       1.733   8.738  19.037  0.00  0.00    +0.000 C 
ATOM     21  O   UNL     1       2.548   8.677  18.108  0.00  0.00    +0.000 OA
BRANCH  20  22
ATOM     22  C   UNL     1       0.696   9.876  19.085  0.00  0.00    +0.000 C 
ATOM     23  C   UNL     1      -0.260   9.720  17.902  0.00  0.00    +0.000 C 
ATOM     24  C   UNL     1      -0.085   9.764  20.406  0.00  0.00    +0.000 C 
ATOM     25  C   UNL     1       1.371  11.256  19.044  0.00  0.00    +0.000 C 
ENDBRANCH  20  22
ENDBRANCH  19  20
ENDBRANCH   4  19
TORSDOF 6
ENDMDL
MODEL 9
REMARK VINA RESULT:      -6.2      3.625      5.654
REMARK  Name = 
REMARK  10 active torsions:
REMARK  status: ('A' for Active; 'I' for Inactive)
REMARK    1  A    between atoms: C_1  and  O_2
REMARK    2  A    between atoms: O_2  and  C_3
REMARK    3  A    between atoms: C_9  and  S_10
REMARK    4  A    between atoms: S_10  and  N_13
REMARK    5  A    between atoms: N_16  and  C_17
REMARK    6  A    between atoms: C_17  and  C_18
REMARK    7  A    between atoms: C_18  and  C_20
REMARK    8  A    between atoms: C_20  and  C_21
REMARK    9  A    between atoms: C_20  and  C_22
REMARK   10  A    between atoms: C_20  and  C_23
REMARK                            x       y       z     vdW  Elec       q    Type
REMARK                         _______ _______ _______ _____ _____    ______ ____
ROOT
ATOM      1  N   UNL     1       2.528   3.254  19.656  0.00  0.00    +0.000 NA
ATOM      2  C   UNL     1       2.680   4.227  20.768  0.00  0.00    +0.000 C 
ATOM      3  C   UNL     1       3.237   5.579  20.294  0.00  0.00    +0.000 C 
ATOM      4  N   UNL     1       2.579   6.183  19.127  0.00  0.00    +0.000 NA
ATOM      5  C   UNL     1       1.940   5.247  18.185  0.00  0.00    +0.000 C 
ATOM      6  C   UNL     1       1.492   3.863  18.724  0.00  0.00    +0.000 C 
ENDROOT
BRANCH   1   7
ATOM      7  S   UNL     1       3.909   2.705  18.811  0.00  0.00    +0.000 S 
ATOM      8  O   UNL     1       3.501   1.863  17.711  0.00  0.00    +0.000 OA
ATOM      9  O   UNL     1       4.777   2.161  19.833  0.00  0.00    +0.000 OA
BRANCH   7  16
ATOM     10  C   UNL     1       4.681   4.645  16.854  0.00  0.00    +0.000 A 
ATOM     11  C   UNL     1       5.111   5.972  16.694  0.00  0.00    +0.000 A 
ATOM     12  C   UNL     1       6.102   6.460  17.529  0.00  0.00    +0.000 A 
ATOM     13  C   UNL     1       6.571   5.661  18.568  0.00  0.00    +0.000 A 
ATOM     14 CL   UNL     1       7.994   6.107  19.417  0.00  0.00    +0.000 Cl
ATOM     15  C   UNL     1       5.903   4.484  18.893  0.00  0.00    +0.000 A 
ATOM     16  C   UNL     1       4.875   4.009  18.066  0.00  0.00    +0.000 A 
BRANCH  10  18
ATOM     17  C   UNL     1       5.505   4.304  14.691  0.00  0.00    +0.000 C 
ATOM     18  O   UNL     1       4.534   3.920  15.697  0.00  0.00    +0.000 OA
ENDBRANCH  10  18
ENDBRANCH   7  16
ENDBRANCH   1   7
BRANCH   4  19
ATOM     19  C   UNL     1       1.817   7.399  19.416  0.00  0.00    +0.000 C 
BRANCH  19  20
ATOM     20  C   UNL     1       2.000   8.495  18.368  0.00  0.00    +0.000 C 
ATOM     21  O   UNL     1       2.783   8.353  17.421  0.00  0.00    +0.000 OA
BRANCH  20  22
ATOM     22  C   UNL     1       1.260   9.831  18.569  0.00  0.00    +0.000 C 
ATOM     23  C   UNL     1       2.128  10.961  18.016  0.00  0.00    +0.000 C 
ATOM     24  C   UNL     1      -0.070   9.769  17.798  0.00  0.00    +0.000 C 
ATOM     25  C   UNL     1       0.943  10.081  20.051  0.00  0.00    +0.000 C 
ENDBRANCH  20  22
ENDBRANCH  19  20
ENDBRANCH   4  19
TORSDOF 6
ENDMDL
