MODEL 1
REMARK VINA RESULT:      -7.1      0.000      0.000
REMARK  Name = 
REMARK  7 active torsions:
REMARK  status: ('A' for Active; 'I' for Inactive)
REMARK    1  A    between atoms: C_2  and  O_3
REMARK    2  A    between atoms: C_2  and  C_4
REMARK    3  A    between atoms: C_7  and  C_8
REMARK    4  A    between atoms: C_7  and  C_14
REMARK    5  A    between atoms: C_16  and  C_17
REMARK    6  A    between atoms: C_17  and  O_19
REMARK    7  A    between atoms: C_20  and  O_21
REMARK                            x       y       z     vdW  Elec       q    Type
REMARK                         _______ _______ _______ _____ _____    ______ ____
ROOT
ATOM      1  C   UNL     1      -5.845  12.620  20.024  0.00  0.00    +0.000 C 
ATOM      2  C   UNL     1      -4.730  12.056  19.495  0.00  0.00    +0.000 C 
ATOM      3  C   UNL     1      -3.268  12.413  19.810  0.00  0.00    +0.000 C 
ATOM      4  C   UNL     1      -2.204  12.007  18.948  0.00  0.00    +0.000 C 
ATOM      5  C   UNL     1      -3.196  13.208  21.116  0.00  0.00    +0.000 A 
ATOM      6  C   UNL     1      -2.050  13.299  21.910  0.00  0.00    +0.000 A 
ATOM      7  C   UNL     1      -2.091  13.873  23.201  0.00  0.00    +0.000 A 
ATOM      8  C   UNL     1      -3.273  14.369  23.750  0.00  0.00    +0.000 A 
ATOM      9  C   UNL     1      -4.425  14.313  22.995  0.00  0.00    +0.000 A 
ATOM     10  C   UNL     1      -4.390  13.739  21.708  0.00  0.00    +0.000 A 
ATOM     11  C   UNL     1      -5.716  13.662  21.087  0.00  0.00    +0.000 C 
ATOM     12  O   UNL     1      -6.689  14.301  21.455  0.00  0.00    +0.000 OA
ENDROOT
BRANCH   4  13
ATOM     13  C   UNL     1      -0.716  12.610  18.837  0.00  0.00    +0.000 A 
ATOM     14  C   UNL     1       0.135  11.497  18.863  0.00  0.00    +0.000 A 
ATOM     15  C   UNL     1       1.414  11.686  19.347  0.00  0.00    +0.000 A 
ATOM     16  C   UNL     1       1.951  12.590  18.484  0.00  0.00    +0.000 A 
ATOM     17  C   UNL     1       1.408  13.845  18.498  0.00  0.00    +0.000 A 
ATOM     18  C   UNL     1       2.365  14.860  18.278  0.00  0.00    +0.000 A 
ATOM     19  C   UNL     1       2.272  16.032  18.999  0.00  0.00    +0.000 A 
ATOM     20  C   UNL     1       1.161  16.159  19.824  0.00  0.00    +0.000 A 
ATOM     21  C   UNL     1       0.061  15.208  19.789  0.00  0.00    +0.000 A 
ATOM     22  C   UNL     1       0.094  13.937  19.053  0.00  0.00    +0.000 A 
BRANCH  15  23
ATOM     23  C   UNL     1       1.399  12.122  20.851  0.00  0.00    +0.000 C 
ATOM     24  O   UNL     1       0.549  11.761  21.651  0.00  0.00    +0.000 OA
BRANCH  23  25
ATOM     25  O   UNL     1       2.391  12.957  21.243  0.00  0.00    +0.000 OA
ATOM     26  H   UNL     1       2.275  13.405  22.098  0.00  0.00    +0.000 HD
ENDBRANCH  23  25
ENDBRANCH  15  23
BRANCH  16  27
ATOM     27  O   UNL     1       2.686  12.159  17.419  0.00  0.00    +0.000 OA
ATOM     28  H   UNL     1       2.215  11.374  17.075  0.00  0.00    +0.000 HD
ENDBRANCH  16  27
ENDBRANCH   4  13
BRANCH   4  29
ATOM     29  C   UNL     1      -2.725  11.228  17.760  0.00  0.00    +0.000 A 
ATOM     30  C   UNL     1      -2.992   9.847  17.883  0.00  0.00    +0.000 A 
ATOM     31  C   UNL     1      -3.152   9.043  16.750  0.00  0.00    +0.000 A 
ATOM     32  C   UNL     1      -3.054   9.606  15.480  0.00  0.00    +0.000 A 
ATOM     33  C   UNL     1      -2.794  10.969  15.342  0.00  0.00    +0.000 A 
ATOM     34  C   UNL     1      -2.632  11.780  16.473  0.00  0.00    +0.000 A 
ENDBRANCH   4  29
BRANCH   1  36
ATOM     35  O   UNL     1      -7.655  11.065  19.850  0.00  0.00    +0.000 OA
ATOM     36  C   UNL     1      -7.196  12.164  19.582  0.00  0.00    +0.000 C 
BRANCH  36  37
ATOM     37  O   UNL     1      -7.916  13.077  18.886  0.00  0.00    +0.000 OA
ATOM     38  H   UNL     1      -7.862  12.978  17.903  0.00  0.00    +0.000 HD
ENDBRANCH  36  37
ENDBRANCH   1  36
TORSDOF 7
ENDMDL
MODEL 2
REMARK VINA RESULT:      -7.1      0.857      1.134
REMARK  Name = 
REMARK  7 active torsions:
REMARK  status: ('A' for Active; 'I' for Inactive)
REMARK    1  A    between atoms: C_2  and  O_3
REMARK    2  A    between atoms: C_2  and  C_4
REMARK    3  A    between atoms: C_7  and  C_8
REMARK    4  A    between atoms: C_7  and  C_14
REMARK    5  A    between atoms: C_16  and  C_17
REMARK    6  A    between atoms: C_17  and  O_19
REMARK    7  A    between atoms: C_20  and  O_21
REMARK                            x       y       z     vdW  Elec       q    Type
REMARK                         _______ _______ _______ _____ _____    ______ ____
ROOT
ATOM      1  C   UNL     1      -5.720  12.385  20.999  0.00  0.00    +0.000 C 
ATOM      2  C   UNL     1      -4.623  11.947  20.333  0.00  0.00    +0.000 C 
ATOM      3  C   UNL     1      -3.181  12.464  20.474  0.00  0.00    +0.000 C 
ATOM      4  C   UNL     1      -2.192  12.176  19.486  0.00  0.00    +0.000 C 
ATOM      5  C   UNL     1      -3.040  13.265  21.770  0.00  0.00    +0.000 A 
ATOM      6  C   UNL     1      -1.823  13.484  22.421  0.00  0.00    +0.000 A 
ATOM      7  C   UNL     1      -1.771  14.053  23.714  0.00  0.00    +0.000 A 
ATOM      8  C   UNL     1      -2.925  14.416  24.407  0.00  0.00    +0.000 A 
ATOM      9  C   UNL     1      -4.147  14.232  23.797  0.00  0.00    +0.000 A 
ATOM     10  C   UNL     1      -4.205  13.662  22.508  0.00  0.00    +0.000 A 
ATOM     11  C   UNL     1      -5.579  13.437  22.050  0.00  0.00    +0.000 C 
ATOM     12  O   UNL     1      -6.565  13.965  22.540  0.00  0.00    +0.000 OA
ENDROOT
BRANCH   4  13
ATOM     13  C   UNL     1      -0.803  12.940  19.203  0.00  0.00    +0.000 A 
ATOM     14  C   UNL     1       0.145  11.925  19.020  0.00  0.00    +0.000 A 
ATOM     15  C   UNL     1       1.458  12.220  19.323  0.00  0.00    +0.000 A 
ATOM     16  C   UNL     1       1.768  13.225  18.461  0.00  0.00    +0.000 A 
ATOM     17  C   UNL     1       1.115  14.412  18.649  0.00  0.00    +0.000 A 
ATOM     18  C   UNL     1       1.923  15.535  18.368  0.00  0.00    +0.000 A 
ATOM     19  C   UNL     1       1.830  16.646  19.181  0.00  0.00    +0.000 A 
ATOM     20  C   UNL     1       0.853  16.603  20.167  0.00  0.00    +0.000 A 
ATOM     21  C   UNL     1      -0.143  15.545  20.223  0.00  0.00    +0.000 A 
ATOM     22  C   UNL     1      -0.101  14.330  19.396  0.00  0.00    +0.000 A 
BRANCH  15  23
ATOM     23  C   UNL     1       1.633  12.561  20.841  0.00  0.00    +0.000 C 
ATOM     24  O   UNL     1       2.420  13.396  21.261  0.00  0.00    +0.000 OA
BRANCH  23  25
ATOM     25  O   UNL     1       0.861  11.859  21.706  0.00  0.00    +0.000 OA
ATOM     26  H   UNL     1       0.926  10.889  21.664  0.00  0.00    +0.000 HD
ENDBRANCH  23  25
ENDBRANCH  15  23
BRANCH  16  27
ATOM     27  O   UNL     1       2.367  12.940  17.271  0.00  0.00    +0.000 OA
ATOM     28  H   UNL     1       1.872  13.448  16.598  0.00  0.00    +0.000 HD
ENDBRANCH  16  27
ENDBRANCH   4  13
BRANCH   4  29
ATOM     29  C   UNL     1      -2.763  11.342  18.360  0.00  0.00    +0.000 A 
ATOM     30  C   UNL     1      -2.077  10.190  17.917  0.00  0.00    +0.000 A 
ATOM     31  C   UNL     1      -2.391   9.595  16.691  0.00  0.00    +0.000 A 
ATOM     32  C   UNL     1      -3.397  10.136  15.894  0.00  0.00    +0.000 A 
ATOM     33  C   UNL     1      -4.085  11.272  16.320  0.00  0.00    +0.000 A 
ATOM     34  C   UNL     1      -3.776  11.872  17.547  0.00  0.00    +0.000 A 
ENDBRANCH   4  29
BRANCH   1  36
ATOM     35  O   UNL     1      -7.576  11.786  19.613  0.00  0.00    +0.000 OA
ATOM     36  C   UNL     1      -7.056  11.781  20.718  0.00  0.00    +0.000 C 
BRANCH  36  37
ATOM     37  O   UNL     1      -7.654  11.178  21.774  0.00  0.00    +0.000 OA
ATOM     38  H   UNL     1      -7.714  11.738  22.586  0.00  0.00    +0.000 HD
ENDBRANCH  36  37
ENDBRANCH   1  36
TORSDOF 7
ENDMDL
MODEL 3
REMARK VINA RESULT:      -7.0      2.551      5.390
REMARK  Name = 
REMARK  7 active torsions:
REMARK  status: ('A' for Active; 'I' for Inactive)
REMARK    1  A    between atoms: C_2  and  O_3
REMARK    2  A    between atoms: C_2  and  C_4
REMARK    3  A    between atoms: C_7  and  C_8
REMARK    4  A    between atoms: C_7  and  C_14
REMARK    5  A    between atoms: C_16  and  C_17
REMARK    6  A    between atoms: C_17  and  O_19
REMARK    7  A    between atoms: C_20  and  O_21
REMARK                            x       y       z     vdW  Elec       q    Type
REMARK                         _______ _______ _______ _____ _____    ______ ____
ROOT
ATOM      1  C   UNL     1      -3.389  11.482  17.647  0.00  0.00    +0.000 C 
ATOM      2  C   UNL     1      -2.532  11.779  18.655  0.00  0.00    +0.000 C 
ATOM      3  C   UNL     1      -2.847  12.549  19.948  0.00  0.00    +0.000 C 
ATOM      4  C   UNL     1      -1.805  13.098  20.755  0.00  0.00    +0.000 C 
ATOM      5  C   UNL     1      -4.360  12.593  20.172  0.00  0.00    +0.000 A 
ATOM      6  C   UNL     1      -4.957  12.800  21.418  0.00  0.00    +0.000 A 
ATOM      7  C   UNL     1      -6.348  12.630  21.607  0.00  0.00    +0.000 A 
ATOM      8  C   UNL     1      -7.191  12.242  20.567  0.00  0.00    +0.000 A 
ATOM      9  C   UNL     1      -6.647  12.042  19.316  0.00  0.00    +0.000 A 
ATOM     10  C   UNL     1      -5.260  12.208  19.123  0.00  0.00    +0.000 A 
ATOM     11  C   UNL     1      -4.832  11.854  17.766  0.00  0.00    +0.000 C 
ATOM     12  O   UNL     1      -5.583  11.752  16.810  0.00  0.00    +0.000 OA
ENDROOT
BRANCH   4  13
ATOM     13  C   UNL     1      -1.899  14.267  21.859  0.00  0.00    +0.000 A 
ATOM     14  C   UNL     1      -1.200  13.780  22.971  0.00  0.00    +0.000 A 
ATOM     15  C   UNL     1      -1.568  14.259  24.212  0.00  0.00    +0.000 A 
ATOM     16  C   UNL     1      -1.319  15.593  24.126  0.00  0.00    +0.000 A 
ATOM     17  C   UNL     1      -2.099  16.305  23.258  0.00  0.00    +0.000 A 
ATOM     18  C   UNL     1      -2.394  17.605  23.723  0.00  0.00    +0.000 A 
ATOM     19  C   UNL     1      -3.658  18.118  23.514  0.00  0.00    +0.000 A 
ATOM     20  C   UNL     1      -4.520  17.336  22.757  0.00  0.00    +0.000 A 
ATOM     21  C   UNL     1      -4.068  16.142  22.059  0.00  0.00    +0.000 A 
ATOM     22  C   UNL     1      -2.743  15.534  22.241  0.00  0.00    +0.000 A 
BRANCH  15  23
ATOM     23  C   UNL     1      -3.045  13.874  24.560  0.00  0.00    +0.000 C 
ATOM     24  O   UNL     1      -3.585  12.847  24.176  0.00  0.00    +0.000 OA
BRANCH  23  25
ATOM     25  O   UNL     1      -3.733  14.761  25.319  0.00  0.00    +0.000 OA
ATOM     26  H   UNL     1      -4.578  15.083  24.959  0.00  0.00    +0.000 HD
ENDBRANCH  23  25
ENDBRANCH  15  23
BRANCH  16  27
ATOM     27  O   UNL     1      -0.127  16.092  24.563  0.00  0.00    +0.000 OA
ATOM     28  H   UNL     1       0.336  15.338  24.979  0.00  0.00    +0.000 HD
ENDBRANCH  16  27
ENDBRANCH   4  13
BRANCH   4  29
ATOM     29  C   UNL     1      -0.442  12.817  20.162  0.00  0.00    +0.000 A 
ATOM     30  C   UNL     1       0.131  13.726  19.246  0.00  0.00    +0.000 A 
ATOM     31  C   UNL     1       1.211  13.349  18.442  0.00  0.00    +0.000 A 
ATOM     32  C   UNL     1       1.740  12.065  18.546  0.00  0.00    +0.000 A 
ATOM     33  C   UNL     1       1.187  11.157  19.449  0.00  0.00    +0.000 A 
ATOM     34  C   UNL     1       0.105  11.528  20.257  0.00  0.00    +0.000 A 
ENDBRANCH   4  29
BRANCH   1  36
ATOM     35  O   UNL     1      -2.378   9.642  16.500  0.00  0.00    +0.000 OA
ATOM     36  C   UNL     1      -2.904  10.743  16.444  0.00  0.00    +0.000 C 
BRANCH  36  37
ATOM     37  O   UNL     1      -3.123  11.359  15.257  0.00  0.00    +0.000 OA
ATOM     38  H   UNL     1      -2.375  11.287  14.614  0.00  0.00    +0.000 HD
ENDBRANCH  36  37
ENDBRANCH   1  36
TORSDOF 7
ENDMDL
MODEL 4
REMARK VINA RESULT:      -6.9      0.681      1.124
REMARK  Name = 
REMARK  7 active torsions:
REMARK  status: ('A' for Active; 'I' for Inactive)
REMARK    1  A    between atoms: C_2  and  O_3
REMARK    2  A    between atoms: C_2  and  C_4
REMARK    3  A    between atoms: C_7  and  C_8
REMARK    4  A    between atoms: C_7  and  C_14
REMARK    5  A    between atoms: C_16  and  C_17
REMARK    6  A    between atoms: C_17  and  O_19
REMARK    7  A    between atoms: C_20  and  O_21
REMARK                            x       y       z     vdW  Elec       q    Type
REMARK                         _______ _______ _______ _____ _____    ______ ____
ROOT
ATOM      1  C   UNL     1      -5.625  12.129  19.668  0.00  0.00    +0.000 C 
ATOM      2  C   UNL     1      -4.398  11.753  19.230  0.00  0.00    +0.000 C 
ATOM      3  C   UNL     1      -3.041  12.353  19.635  0.00  0.00    +0.000 C 
ATOM      4  C   UNL     1      -1.866  12.119  18.857  0.00  0.00    +0.000 C 
ATOM      5  C   UNL     1      -3.196  13.168  20.921  0.00  0.00    +0.000 A 
ATOM      6  C   UNL     1      -2.140  13.460  21.789  0.00  0.00    +0.000 A 
ATOM      7  C   UNL     1      -2.367  14.036  23.059  0.00  0.00    +0.000 A 
ATOM      8  C   UNL     1      -3.651  14.335  23.514  0.00  0.00    +0.000 A 
ATOM      9  C   UNL     1      -4.722  14.077  22.685  0.00  0.00    +0.000 A 
ATOM     10  C   UNL     1      -4.500  13.499  21.418  0.00  0.00    +0.000 A 
ATOM     11  C   UNL     1      -5.747  13.192  20.710  0.00  0.00    +0.000 C 
ATOM     12  O   UNL     1      -6.836  13.664  20.995  0.00  0.00    +0.000 OA
ENDROOT
BRANCH   4  13
ATOM     13  C   UNL     1      -0.494  12.962  18.832  0.00  0.00    +0.000 A 
ATOM     14  C   UNL     1       0.527  12.002  18.823  0.00  0.00    +0.000 A 
ATOM     15  C   UNL     1       1.745  12.365  19.359  0.00  0.00    +0.000 A 
ATOM     16  C   UNL     1       2.148  13.397  18.570  0.00  0.00    +0.000 A 
ATOM     17  C   UNL     1       1.406  14.543  18.638  0.00  0.00    +0.000 A 
ATOM     18  C   UNL     1       2.188  15.712  18.510  0.00  0.00    +0.000 A 
ATOM     19  C   UNL     1       1.887  16.806  19.295  0.00  0.00    +0.000 A 
ATOM     20  C   UNL     1       0.751  16.699  20.087  0.00  0.00    +0.000 A 
ATOM     21  C   UNL     1      -0.177  15.587  19.959  0.00  0.00    +0.000 A 
ATOM     22  C   UNL     1       0.082  14.386  19.152  0.00  0.00    +0.000 A 
BRANCH  15  23
ATOM     23  C   UNL     1       1.622  12.697  20.885  0.00  0.00    +0.000 C 
ATOM     24  O   UNL     1       0.809  12.171  21.628  0.00  0.00    +0.000 OA
BRANCH  23  25
ATOM     25  O   UNL     1       2.475  13.635  21.364  0.00  0.00    +0.000 OA
ATOM     26  H   UNL     1       3.406  13.561  21.094  0.00  0.00    +0.000 HD
ENDBRANCH  23  25
ENDBRANCH  15  23
BRANCH  16  27
ATOM     27  O   UNL     1       2.968  13.159  17.507  0.00  0.00    +0.000 OA
ATOM     28  H   UNL     1       2.604  12.366  17.066  0.00  0.00    +0.000 HD
ENDBRANCH  16  27
ENDBRANCH   4  13
BRANCH   4  29
ATOM     29  C   UNL     1      -2.164  11.248  17.656  0.00  0.00    +0.000 A 
ATOM     30  C   UNL     1      -2.534  11.841  16.429  0.00  0.00    +0.000 A 
ATOM     31  C   UNL     1      -3.126  11.081  15.415  0.00  0.00    +0.000 A 
ATOM     32  C   UNL     1      -3.350   9.720  15.608  0.00  0.00    +0.000 A 
ATOM     33  C   UNL     1      -2.986   9.120  16.814  0.00  0.00    +0.000 A 
ATOM     34  C   UNL     1      -2.393   9.876  17.833  0.00  0.00    +0.000 A 
ENDBRANCH   4  29
BRANCH   1  36
ATOM     35  O   UNL     1      -7.049  11.247  17.960  0.00  0.00    +0.000 OA
ATOM     36  C   UNL     1      -6.847  11.448  19.147  0.00  0.00    +0.000 C 
BRANCH  36  37
ATOM     37  O   UNL     1      -7.719  11.019  20.091  0.00  0.00    +0.000 OA
ATOM     38  H   UNL     1      -8.551  10.625  19.731  0.00  0.00    +0.000 HD
ENDBRANCH  36  37
ENDBRANCH   1  36
TORSDOF 7
ENDMDL
MODEL 5
REMARK VINA RESULT:      -6.8      2.406      6.410
REMARK  Name = 
REMARK  7 active torsions:
REMARK  status: ('A' for Active; 'I' for Inactive)
REMARK    1  A    between atoms: C_2  and  O_3
REMARK    2  A    between atoms: C_2  and  C_4
REMARK    3  A    between atoms: C_7  and  C_8
REMARK    4  A    between atoms: C_7  and  C_14
REMARK    5  A    between atoms: C_16  and  C_17
REMARK    6  A    between atoms: C_17  and  O_19
REMARK    7  A    between atoms: C_20  and  O_21
REMARK                            x       y       z     vdW  Elec       q    Type
REMARK                         _______ _______ _______ _____ _____    ______ ____
ROOT
ATOM      1  C   UNL     1      -2.386  10.942  17.461  0.00  0.00    +0.000 C 
ATOM      2  C   UNL     1      -3.149  11.819  18.160  0.00  0.00    +0.000 C 
ATOM      3  C   UNL     1      -2.852  12.409  19.549  0.00  0.00    +0.000 C 
ATOM      4  C   UNL     1      -3.877  13.033  20.323  0.00  0.00    +0.000 C 
ATOM      5  C   UNL     1      -1.374  12.213  19.893  0.00  0.00    +0.000 A 
ATOM      6  C   UNL     1      -0.682  12.990  20.826  0.00  0.00    +0.000 A 
ATOM      7  C   UNL     1       0.723  12.906  20.958  0.00  0.00    +0.000 A 
ATOM      8  C   UNL     1       1.489  12.053  20.165  0.00  0.00    +0.000 A 
ATOM      9  C   UNL     1       0.846  11.256  19.241  0.00  0.00    +0.000 A 
ATOM     10  C   UNL     1      -0.555  11.339  19.103  0.00  0.00    +0.000 A 
ATOM     11  C   UNL     1      -1.065  10.508  18.008  0.00  0.00    +0.000 C 
ATOM     12  O   UNL     1      -0.443   9.598  17.485  0.00  0.00    +0.000 OA
ENDROOT
BRANCH   4  13
ATOM     13  C   UNL     1      -3.910  13.312  21.909  0.00  0.00    +0.000 A 
ATOM     14  C   UNL     1      -5.105  12.735  22.359  0.00  0.00    +0.000 A 
ATOM     15  C   UNL     1      -5.682  13.272  23.491  0.00  0.00    +0.000 A 
ATOM     16  C   UNL     1      -4.744  13.071  24.455  0.00  0.00    +0.000 A 
ATOM     17  C   UNL     1      -3.575  13.768  24.323  0.00  0.00    +0.000 A 
ATOM     18  C   UNL     1      -3.033  14.172  25.563  0.00  0.00    +0.000 A 
ATOM     19  C   UNL     1      -2.456  15.421  25.664  0.00  0.00    +0.000 A 
ATOM     20  C   UNL     1      -2.362  16.150  24.485  0.00  0.00    +0.000 A 
ATOM     21  C   UNL     1      -2.669  15.566  23.189  0.00  0.00    +0.000 A 
ATOM     22  C   UNL     1      -3.294  14.249  23.007  0.00  0.00    +0.000 A 
BRANCH  15  23
ATOM     23  C   UNL     1      -6.103  14.764  23.266  0.00  0.00    +0.000 C 
ATOM     24  O   UNL     1      -6.424  15.220  22.180  0.00  0.00    +0.000 OA
BRANCH  23  25
ATOM     25  O   UNL     1      -6.084  15.563  24.360  0.00  0.00    +0.000 OA
ATOM     26  H   UNL     1      -5.237  15.640  24.832  0.00  0.00    +0.000 HD
ENDBRANCH  23  25
ENDBRANCH  15  23
BRANCH  16  27
ATOM     27  O   UNL     1      -4.811  11.965  25.248  0.00  0.00    +0.000 OA
ATOM     28  H   UNL     1      -3.954  11.924  25.716  0.00  0.00    +0.000 HD
ENDBRANCH  16  27
ENDBRANCH   4  13
BRANCH   4  29
ATOM     29  C   UNL     1      -5.205  13.013  19.598  0.00  0.00    +0.000 A 
ATOM     30  C   UNL     1      -5.765  14.217  19.117  0.00  0.00    +0.000 A 
ATOM     31  C   UNL     1      -7.111  14.284  18.746  0.00  0.00    +0.000 A 
ATOM     32  C   UNL     1      -7.916  13.151  18.843  0.00  0.00    +0.000 A 
ATOM     33  C   UNL     1      -7.376  11.954  19.313  0.00  0.00    +0.000 A 
ATOM     34  C   UNL     1      -6.028  11.881  19.686  0.00  0.00    +0.000 A 
ENDBRANCH   4  29
BRANCH   1  36
ATOM     35  O   UNL     1      -3.037   9.273  15.876  0.00  0.00    +0.000 OA
ATOM     36  C   UNL     1      -2.842  10.452  16.127  0.00  0.00    +0.000 C 
BRANCH  36  37
ATOM     37  O   UNL     1      -3.072  11.415  15.203  0.00  0.00    +0.000 OA
ATOM     38  H   UNL     1      -2.407  12.146  15.198  0.00  0.00    +0.000 HD
ENDBRANCH  36  37
ENDBRANCH   1  36
TORSDOF 7
ENDMDL
MODEL 6
REMARK VINA RESULT:      -6.8      1.983      4.850
REMARK  Name = 
REMARK  7 active torsions:
REMARK  status: ('A' for Active; 'I' for Inactive)
REMARK    1  A    between atoms: C_2  and  O_3
REMARK    2  A    between atoms: C_2  and  C_4
REMARK    3  A    between atoms: C_7  and  C_8
REMARK    4  A    between atoms: C_7  and  C_14
REMARK    5  A    between atoms: C_16  and  C_17
REMARK    6  A    between atoms: C_17  and  O_19
REMARK    7  A    between atoms: C_20  and  O_21
REMARK                            x       y       z     vdW  Elec       q    Type
REMARK                         _______ _______ _______ _____ _____    ______ ____
ROOT
ATOM      1  C   UNL     1      -6.446  13.177  22.543  0.00  0.00    +0.000 C 
ATOM      2  C   UNL     1      -5.262  13.777  22.266  0.00  0.00    +0.000 C 
ATOM      3  C   UNL     1      -4.261  13.395  21.162  0.00  0.00    +0.000 C 
ATOM      4  C   UNL     1      -2.912  13.863  21.191  0.00  0.00    +0.000 C 
ATOM      5  C   UNL     1      -4.947  12.504  20.124  0.00  0.00    +0.000 A 
ATOM      6  C   UNL     1      -4.497  12.353  18.809  0.00  0.00    +0.000 A 
ATOM      7  C   UNL     1      -5.274  11.685  17.836  0.00  0.00    +0.000 A 
ATOM      8  C   UNL     1      -6.528  11.151  18.133  0.00  0.00    +0.000 A 
ATOM      9  C   UNL     1      -7.005  11.264  19.421  0.00  0.00    +0.000 A 
ATOM     10  C   UNL     1      -6.234  11.933  20.395  0.00  0.00    +0.000 A 
ATOM     11  C   UNL     1      -6.931  12.058  21.679  0.00  0.00    +0.000 C 
ATOM     12  O   UNL     1      -7.903  11.395  22.004  0.00  0.00    +0.000 OA
ENDROOT
BRANCH   4  13
ATOM     13  C   UNL     1      -1.626  13.267  20.428  0.00  0.00    +0.000 A 
ATOM     14  C   UNL     1      -1.823  11.879  20.403  0.00  0.00    +0.000 A 
ATOM     15  C   UNL     1      -0.700  11.080  20.347  0.00  0.00    +0.000 A 
ATOM     16  C   UNL     1      -0.117  11.429  19.170  0.00  0.00    +0.000 A 
ATOM     17  C   UNL     1       0.384  12.699  19.090  0.00  0.00    +0.000 A 
ATOM     18  C   UNL     1       1.566  12.777  18.322  0.00  0.00    +0.000 A 
ATOM     19  C   UNL     1       2.582  13.610  18.743  0.00  0.00    +0.000 A 
ATOM     20  C   UNL     1       2.310  14.396  19.856  0.00  0.00    +0.000 A 
ATOM     21  C   UNL     1       0.976  14.488  20.428  0.00  0.00    +0.000 A 
ATOM     22  C   UNL     1      -0.150  13.628  20.037  0.00  0.00    +0.000 A 
BRANCH  15  23
ATOM     23  C   UNL     1       0.196  11.261  21.619  0.00  0.00    +0.000 C 
ATOM     24  O   UNL     1       1.415  11.190  21.603  0.00  0.00    +0.000 OA
BRANCH  23  25
ATOM     25  O   UNL     1      -0.456  11.492  22.784  0.00  0.00    +0.000 OA
ATOM     26  H   UNL     1       0.089  11.551  23.587  0.00  0.00    +0.000 HD
ENDBRANCH  23  25
ENDBRANCH  15  23
BRANCH  16  27
ATOM     27  O   UNL     1      -0.379  10.711  18.041  0.00  0.00    +0.000 OA
ATOM     28  H   UNL     1      -0.761  11.348  17.406  0.00  0.00    +0.000 HD
ENDBRANCH  16  27
ENDBRANCH   4  13
BRANCH   4  29
ATOM     29  C   UNL     1      -2.655  14.728  22.405  0.00  0.00    +0.000 A 
ATOM     30  C   UNL     1      -2.453  14.131  23.669  0.00  0.00    +0.000 A 
ATOM     31  C   UNL     1      -2.542  14.886  24.842  0.00  0.00    +0.000 A 
ATOM     32  C   UNL     1      -2.826  16.248  24.772  0.00  0.00    +0.000 A 
ATOM     33  C   UNL     1      -3.025  16.853  23.531  0.00  0.00    +0.000 A 
ATOM     34  C   UNL     1      -2.937  16.102  22.352  0.00  0.00    +0.000 A 
ENDBRANCH   4  29
BRANCH   1  36
ATOM     35  O   UNL     1      -7.509  14.848  23.885  0.00  0.00    +0.000 OA
ATOM     36  C   UNL     1      -7.286  13.666  23.675  0.00  0.00    +0.000 C 
BRANCH  36  37
ATOM     37  O   UNL     1      -7.834  12.699  24.451  0.00  0.00    +0.000 OA
ATOM     38  H   UNL     1      -8.705  12.359  24.128  0.00  0.00    +0.000 HD
ENDBRANCH  36  37
ENDBRANCH   1  36
TORSDOF 7
ENDMDL
MODEL 7
REMARK VINA RESULT:      -6.8      2.349      6.299
REMARK  Name = 
REMARK  7 active torsions:
REMARK  status: ('A' for Active; 'I' for Inactive)
REMARK    1  A    between atoms: C_2  and  O_3
REMARK    2  A    between atoms: C_2  and  C_4
REMARK    3  A    between atoms: C_7  and  C_8
REMARK    4  A    between atoms: C_7  and  C_14
REMARK    5  A    between atoms: C_16  and  C_17
REMARK    6  A    between atoms: C_17  and  O_19
REMARK    7  A    between atoms: C_20  and  O_21
REMARK                            x       y       z     vdW  Elec       q    Type
REMARK                         _______ _______ _______ _____ _____    ______ ____
ROOT
ATOM      1  C   UNL     1      -2.452  10.938  17.466  0.00  0.00    +0.000 C 
ATOM      2  C   UNL     1      -3.243  11.789  18.167  0.00  0.00    +0.000 C 
ATOM      3  C   UNL     1      -2.955  12.402  19.547  0.00  0.00    +0.000 C 
ATOM      4  C   UNL     1      -3.997  12.990  20.328  0.00  0.00    +0.000 C 
ATOM      5  C   UNL     1      -1.466  12.272  19.875  0.00  0.00    +0.000 A 
ATOM      6  C   UNL     1      -0.797  13.086  20.793  0.00  0.00    +0.000 A 
ATOM      7  C   UNL     1       0.611  13.062  20.910  0.00  0.00    +0.000 A 
ATOM      8  C   UNL     1       1.403  12.235  20.115  0.00  0.00    +0.000 A 
ATOM      9  C   UNL     1       0.784  11.404  19.205  0.00  0.00    +0.000 A 
ATOM     10  C   UNL     1      -0.621  11.426  19.083  0.00  0.00    +0.000 A 
ATOM     11  C   UNL     1      -1.107  10.565  18.001  0.00  0.00    +0.000 C 
ATOM     12  O   UNL     1      -0.453   9.677  17.478  0.00  0.00    +0.000 OA
ENDROOT
BRANCH   4  13
ATOM     13  C   UNL     1      -4.024  13.281  21.911  0.00  0.00    +0.000 A 
ATOM     14  C   UNL     1      -5.224  12.720  22.369  0.00  0.00    +0.000 A 
ATOM     15  C   UNL     1      -5.793  13.271  23.498  0.00  0.00    +0.000 A 
ATOM     16  C   UNL     1      -4.855  13.067  24.461  0.00  0.00    +0.000 A 
ATOM     17  C   UNL     1      -3.679  13.751  24.322  0.00  0.00    +0.000 A 
ATOM     18  C   UNL     1      -3.130  14.158  25.557  0.00  0.00    +0.000 A 
ATOM     19  C   UNL     1      -2.539  15.402  25.648  0.00  0.00    +0.000 A 
ATOM     20  C   UNL     1      -2.440  16.121  24.464  0.00  0.00    +0.000 A 
ATOM     21  C   UNL     1      -2.756  15.530  23.172  0.00  0.00    +0.000 A 
ATOM     22  C   UNL     1      -3.395  14.218  23.001  0.00  0.00    +0.000 A 
BRANCH  15  23
ATOM     23  C   UNL     1      -6.198  14.766  23.263  0.00  0.00    +0.000 C 
ATOM     24  O   UNL     1      -6.134  15.628  24.126  0.00  0.00    +0.000 OA
BRANCH  23  25
ATOM     25  O   UNL     1      -6.654  15.076  22.025  0.00  0.00    +0.000 OA
ATOM     26  H   UNL     1      -7.227  14.420  21.591  0.00  0.00    +0.000 HD
ENDBRANCH  23  25
ENDBRANCH  15  23
BRANCH  16  27
ATOM     27  O   UNL     1      -4.933  11.968  25.263  0.00  0.00    +0.000 OA
ATOM     28  H   UNL     1      -5.476  12.239  26.029  0.00  0.00    +0.000 HD
ENDBRANCH  16  27
ENDBRANCH   4  13
BRANCH   4  29
ATOM     29  C   UNL     1      -5.331  12.907  19.619  0.00  0.00    +0.000 A 
ATOM     30  C   UNL     1      -5.899  11.647  19.327  0.00  0.00    +0.000 A 
ATOM     31  C   UNL     1      -6.941  11.526  18.402  0.00  0.00    +0.000 A 
ATOM     32  C   UNL     1      -7.435  12.660  17.761  0.00  0.00    +0.000 A 
ATOM     33  C   UNL     1      -6.886  13.911  18.040  0.00  0.00    +0.000 A 
ATOM     34  C   UNL     1      -5.843  14.039  18.966  0.00  0.00    +0.000 A 
ENDBRANCH   4  29
BRANCH   1  36
ATOM     35  O   UNL     1      -3.099   9.233  15.918  0.00  0.00    +0.000 OA
ATOM     36  C   UNL     1      -2.902  10.417  16.142  0.00  0.00    +0.000 C 
BRANCH  36  37
ATOM     37  O   UNL     1      -3.124  11.359  15.193  0.00  0.00    +0.000 OA
ATOM     38  H   UNL     1      -2.925  11.066  14.270  0.00  0.00    +0.000 HD
ENDBRANCH  36  37
ENDBRANCH   1  36
TORSDOF 7
ENDMDL
MODEL 8
REMARK VINA RESULT:      -6.6      2.286      6.809
REMARK  Name = 
REMARK  7 active torsions:
REMARK  status: ('A' for Active; 'I' for Inactive)
REMARK    1  A    between atoms: C_2  and  O_3
REMARK    2  A    between atoms: C_2  and  C_4
REMARK    3  A    between atoms: C_7  and  C_8
REMARK    4  A    between atoms: C_7  and  C_14
REMARK    5  A    between atoms: C_16  and  C_17
REMARK    6  A    between atoms: C_17  and  O_19
REMARK    7  A    between atoms: C_20  and  O_21
REMARK                            x       y       z     vdW  Elec       q    Type
REMARK                         _______ _______ _______ _____ _____    ______ ____
ROOT
ATOM      1  C   UNL     1       1.601  14.261  18.877  0.00  0.00    +0.000 C 
ATOM      2  C   UNL     1       0.364  13.720  19.004  0.00  0.00    +0.000 C 
ATOM      3  C   UNL     1      -0.833  14.306  19.771  0.00  0.00    +0.000 C 
ATOM      4  C   UNL     1      -1.954  13.495  20.125  0.00  0.00    +0.000 C 
ATOM      5  C   UNL     1      -0.599  15.793  20.044  0.00  0.00    +0.000 A 
ATOM      6  C   UNL     1      -1.624  16.708  20.300  0.00  0.00    +0.000 A 
ATOM      7  C   UNL     1      -1.377  18.099  20.343  0.00  0.00    +0.000 A 
ATOM      8  C   UNL     1      -0.106  18.629  20.126  0.00  0.00    +0.000 A 
ATOM      9  C   UNL     1       0.938  17.762  19.884  0.00  0.00    +0.000 A 
ATOM     10  C   UNL     1       0.696  16.374  19.837  0.00  0.00    +0.000 A 
ATOM     11  C   UNL     1       1.888  15.604  19.465  0.00  0.00    +0.000 C 
ATOM     12  O   UNL     1       3.029  16.034  19.513  0.00  0.00    +0.000 OA
ENDROOT
BRANCH   4  13
ATOM     13  C   UNL     1      -3.068  13.759  21.258  0.00  0.00    +0.000 A 
ATOM     14  C   UNL     1      -2.345  14.061  22.420  0.00  0.00    +0.000 A 
ATOM     15  C   UNL     1      -2.943  13.780  23.631  0.00  0.00    +0.000 A 
ATOM     16  C   UNL     1      -4.056  14.562  23.628  0.00  0.00    +0.000 A 
ATOM     17  C   UNL     1      -5.018  14.251  22.708  0.00  0.00    +0.000 A 
ATOM     18  C   UNL     1      -6.328  14.464  23.190  0.00  0.00    +0.000 A 
ATOM     19  C   UNL     1      -7.315  13.556  22.864  0.00  0.00    +0.000 A 
ATOM     20  C   UNL     1      -6.951  12.544  21.985  0.00  0.00    +0.000 A 
ATOM     21  C   UNL     1      -5.672  12.544  21.293  0.00  0.00    +0.000 A 
ATOM     22  C   UNL     1      -4.573  13.472  21.595  0.00  0.00    +0.000 A 
BRANCH  15  23
ATOM     23  C   UNL     1      -3.205  12.244  23.797  0.00  0.00    +0.000 C 
ATOM     24  O   UNL     1      -4.178  11.783  24.375  0.00  0.00    +0.000 OA
BRANCH  23  25
ATOM     25  O   UNL     1      -2.271  11.416  23.270  0.00  0.00    +0.000 OA
ATOM     26  H   UNL     1      -1.540  11.834  22.783  0.00  0.00    +0.000 HD
ENDBRANCH  23  25
ENDBRANCH  15  23
BRANCH  16  27
ATOM     27  O   UNL     1      -4.022  15.793  24.214  0.00  0.00    +0.000 OA
ATOM     28  H   UNL     1      -4.856  15.867  24.719  0.00  0.00    +0.000 HD
ENDBRANCH  16  27
ENDBRANCH   4  13
BRANCH   4  29
ATOM     29  C   UNL     1      -1.774  12.068  19.654  0.00  0.00    +0.000 A 
ATOM     30  C   UNL     1      -0.785  11.250  20.244  0.00  0.00    +0.000 A 
ATOM     31  C   UNL     1      -0.373  10.065  19.626  0.00  0.00    +0.000 A 
ATOM     32  C   UNL     1      -0.944   9.677  18.417  0.00  0.00    +0.000 A 
ATOM     33  C   UNL     1      -1.924  10.473  17.824  0.00  0.00    +0.000 A 
ATOM     34  C   UNL     1      -2.342  11.661  18.437  0.00  0.00    +0.000 A 
ENDBRANCH   4  29
BRANCH   1  36
ATOM     35  O   UNL     1       2.725  12.321  18.042  0.00  0.00    +0.000 OA
ATOM     36  C   UNL     1       2.659  13.538  18.111  0.00  0.00    +0.000 C 
BRANCH  36  37
ATOM     37  O   UNL     1       3.537  14.329  17.447  0.00  0.00    +0.000 OA
ATOM     38  H   UNL     1       3.344  15.297  17.509  0.00  0.00    +0.000 HD
ENDBRANCH  36  37
ENDBRANCH   1  36
TORSDOF 7
ENDMDL
MODEL 9
REMARK VINA RESULT:      -6.5      3.261      7.413
REMARK  Name = 
REMARK  7 active torsions:
REMARK  status: ('A' for Active; 'I' for Inactive)
REMARK    1  A    between atoms: C_2  and  O_3
REMARK    2  A    between atoms: C_2  and  C_4
REMARK    3  A    between atoms: C_7  and  C_8
REMARK    4  A    between atoms: C_7  and  C_14
REMARK    5  A    between atoms: C_16  and  C_17
REMARK    6  A    between atoms: C_17  and  O_19
REMARK    7  A    between atoms: C_20  and  O_21
REMARK                            x       y       z     vdW  Elec       q    Type
REMARK                         _______ _______ _______ _____ _____    ______ ____
ROOT
ATOM      1  C   UNL     1       1.515  12.597  19.133  0.00  0.00    +0.000 C 
ATOM      2  C   UNL     1       0.985  13.716  19.686  0.00  0.00    +0.000 C 
ATOM      3  C   UNL     1      -0.191  13.799  20.673  0.00  0.00    +0.000 C 
ATOM      4  C   UNL     1      -0.876  15.030  20.907  0.00  0.00    +0.000 C 
ATOM      5  C   UNL     1      -0.444  12.425  21.297  0.00  0.00    +0.000 A 
ATOM      6  C   UNL     1      -1.100  12.232  22.516  0.00  0.00    +0.000 A 
ATOM      7  C   UNL     1      -1.129  10.967  23.146  0.00  0.00    +0.000 A 
ATOM      8  C   UNL     1      -0.501   9.852  22.590  0.00  0.00    +0.000 A 
ATOM      9  C   UNL     1       0.145   9.993  21.381  0.00  0.00    +0.000 A 
ATOM     10  C   UNL     1       0.179  11.254  20.750  0.00  0.00    +0.000 A 
ATOM     11  C   UNL     1       0.995  11.255  19.532  0.00  0.00    +0.000 C 
ATOM     12  O   UNL     1       1.335  10.250  18.929  0.00  0.00    +0.000 OA
ENDROOT
BRANCH   4  13
ATOM     13  C   UNL     1      -2.345  15.260  21.525  0.00  0.00    +0.000 A 
ATOM     14  C   UNL     1      -2.214  16.358  22.386  0.00  0.00    +0.000 A 
ATOM     15  C   UNL     1      -3.091  16.441  23.448  0.00  0.00    +0.000 A 
ATOM     16  C   UNL     1      -4.309  16.534  22.851  0.00  0.00    +0.000 A 
ATOM     17  C   UNL     1      -4.736  15.433  22.161  0.00  0.00    +0.000 A 
ATOM     18  C   UNL     1      -6.130  15.231  22.257  0.00  0.00    +0.000 A 
ATOM     19  C   UNL     1      -6.610  13.943  22.387  0.00  0.00    +0.000 A 
ATOM     20  C   UNL     1      -5.667  12.926  22.305  0.00  0.00    +0.000 A 
ATOM     21  C   UNL     1      -4.290  13.179  21.912  0.00  0.00    +0.000 A 
ATOM     22  C   UNL     1      -3.709  14.521  21.767  0.00  0.00    +0.000 A 
BRANCH  15  23
ATOM     23  C   UNL     1      -2.916  15.233  24.430  0.00  0.00    +0.000 C 
ATOM     24  O   UNL     1      -1.857  14.650  24.604  0.00  0.00    +0.000 OA
BRANCH  23  25
ATOM     25  O   UNL     1      -4.028  14.835  25.094  0.00  0.00    +0.000 OA
ATOM     26  H   UNL     1      -4.794  14.579  24.552  0.00  0.00    +0.000 HD
ENDBRANCH  23  25
ENDBRANCH  15  23
BRANCH  16  27
ATOM     27  O   UNL     1      -4.862  17.759  22.622  0.00  0.00    +0.000 OA
ATOM     28  H   UNL     1      -4.404  18.111  21.833  0.00  0.00    +0.000 HD
ENDBRANCH  16  27
ENDBRANCH   4  13
BRANCH   4  29
ATOM     29  C   UNL     1      -0.293  16.152  20.077  0.00  0.00    +0.000 A 
ATOM     30  C   UNL     1       0.726  16.970  20.612  0.00  0.00    +0.000 A 
ATOM     31  C   UNL     1       1.049  18.194  20.017  0.00  0.00    +0.000 A 
ATOM     32  C   UNL     1       0.367  18.615  18.879  0.00  0.00    +0.000 A 
ATOM     33  C   UNL     1      -0.640  17.816  18.337  0.00  0.00    +0.000 A 
ATOM     34  C   UNL     1      -0.968  16.590  18.927  0.00  0.00    +0.000 A 
ENDBRANCH   4  29
BRANCH   1  36
ATOM     35  O   UNL     1       3.556  13.512  18.284  0.00  0.00    +0.000 OA
ATOM     36  C   UNL     1       2.648  12.704  18.167  0.00  0.00    +0.000 C 
BRANCH  36  37
ATOM     37  O   UNL     1       2.633  11.805  17.153  0.00  0.00    +0.000 OA
ATOM     38  H   UNL     1       2.338  10.898  17.413  0.00  0.00    +0.000 HD
ENDBRANCH  36  37
ENDBRANCH   1  36
TORSDOF 7
ENDMDL
