MODEL 1
REMARK VINA RESULT:      -9.2      0.000      0.000
REMARK  Name = 
REMARK  4 active torsions:
REMARK  status: ('A' for Active; 'I' for Inactive)
REMARK    1  A    between atoms: C_1  and  S_2
REMARK    2  A    between atoms: S_2  and  N_5
REMARK    3  A    between atoms: N_13  and  C_14
REMARK    4  A    between atoms: C_17  and  C_18
REMARK                            x       y       z     vdW  Elec       q    Type
REMARK                         _______ _______ _______ _____ _____    ______ ____
ROOT
ATOM      1  N   UNL     1       4.843   5.377  17.915  0.00  0.00    +0.000 N 
ATOM      2  C   UNL     1       4.235   6.635  18.405  0.00  0.00    +0.000 C 
ATOM      3  C   UNL     1       2.702   6.352  18.546  0.00  0.00    +0.000 C 
ATOM      4  C   UNL     1       1.876   7.130  17.490  0.00  0.00    +0.000 C 
ATOM      5  C   UNL     1       1.809   8.635  17.787  0.00  0.00    +0.000 C 
ATOM      6  N   UNL     1       1.350   8.865  19.155  0.00  0.00    +0.000 N 
ATOM      7  C   UNL     1       0.282   9.644  19.591  0.00  0.00    +0.000 C 
ATOM      8  O   UNL     1       0.067   9.762  20.797  0.00  0.00    +0.000 OA
ATOM      9  N   UNL     1      -0.499  10.230  18.617  0.00  0.00    +0.000 N 
ATOM     10  C   UNL     1       2.173   8.220  20.180  0.00  0.00    +0.000 C 
ATOM     11  C   UNL     1       2.211   6.710  19.963  0.00  0.00    +0.000 C 
ATOM     12  C   UNL     1       2.640   4.854  18.313  0.00  0.00    +0.000 A 
ATOM     13  C   UNL     1       1.519   4.030  18.375  0.00  0.00    +0.000 A 
ATOM     14  C   UNL     1       1.671   2.667  18.120  0.00  0.00    +0.000 A 
ATOM     15  C   UNL     1       2.930   2.142  17.802  0.00  0.00    +0.000 A 
ATOM     16  C   UNL     1       4.052   2.977  17.727  0.00  0.00    +0.000 A 
ATOM     17  C   UNL     1       3.895   4.326  17.998  0.00  0.00    +0.000 A 
ATOM     18  H   UNL     1      -0.444   9.845  17.691  0.00  0.00    +0.000 HD
ENDROOT
BRANCH   9  19
ATOM     19  C   UNL     1      -1.642  11.035  18.870  0.00  0.00    +0.000 A 
ATOM     20  C   UNL     1      -1.709  11.970  19.901  0.00  0.00    +0.000 A 
ATOM     21  C   UNL     1      -2.915  12.606  20.221  0.00  0.00    +0.000 A 
ATOM     22  C   UNL     1      -4.094  12.365  19.500  0.00  0.00    +0.000 A 
ATOM     23  C   UNL     1      -3.981  11.510  18.388  0.00  0.00    +0.000 A 
ATOM     24  C   UNL     1      -2.776  10.857  18.073  0.00  0.00    +0.000 A 
BRANCH  22  25
ATOM     25  C   UNL     1      -5.393  12.950  19.926  0.00  0.00    +0.000 A 
ATOM     26  C   UNL     1      -5.715  13.131  21.286  0.00  0.00    +0.000 A 
ATOM     27  C   UNL     1      -6.962  13.624  21.688  0.00  0.00    +0.000 A 
ATOM     28  C   UNL     1      -7.917  13.967  20.738  0.00  0.00    +0.000 A 
ATOM     29  C   UNL     1      -7.625  13.813  19.387  0.00  0.00    +0.000 A 
ATOM     30  C   UNL     1      -6.383  13.305  18.989  0.00  0.00    +0.000 A 
ENDBRANCH  22  25
ENDBRANCH   9  19
BRANCH   1  32
ATOM     31  C   UNL     1       7.108   6.850  17.679  0.00  0.00    +0.000 C 
ATOM     32  S   UNL     1       6.498   5.193  17.922  0.00  0.00    +0.000 S 
ATOM     33  O   UNL     1       6.861   4.425  16.747  0.00  0.00    +0.000 OA
ATOM     34  O   UNL     1       6.926   4.765  19.239  0.00  0.00    +0.000 OA
ENDBRANCH   1  32
TORSDOF 3
ENDMDL
MODEL 2
REMARK VINA RESULT:      -8.6      4.477     11.773
REMARK  Name = 
REMARK  4 active torsions:
REMARK  status: ('A' for Active; 'I' for Inactive)
REMARK    1  A    between atoms: C_1  and  S_2
REMARK    2  A    between atoms: S_2  and  N_5
REMARK    3  A    between atoms: N_13  and  C_14
REMARK    4  A    between atoms: C_17  and  C_18
REMARK                            x       y       z     vdW  Elec       q    Type
REMARK                         _______ _______ _______ _____ _____    ______ ____
ROOT
ATOM      1  N   UNL     1      -4.434  15.324  23.255  0.00  0.00    +0.000 N 
ATOM      2  C   UNL     1      -3.211  14.892  22.540  0.00  0.00    +0.000 C 
ATOM      3  C   UNL     1      -3.532  13.483  21.938  0.00  0.00    +0.000 C 
ATOM      4  C   UNL     1      -2.728  12.362  22.643  0.00  0.00    +0.000 C 
ATOM      5  C   UNL     1      -1.239  12.382  22.270  0.00  0.00    +0.000 C 
ATOM      6  N   UNL     1      -1.077  12.374  20.818  0.00  0.00    +0.000 N 
ATOM      7  C   UNL     1      -0.340  11.493  20.032  0.00  0.00    +0.000 C 
ATOM      8  O   UNL     1      -0.277  11.668  18.816  0.00  0.00    +0.000 OA
ATOM      9  N   UNL     1       0.270  10.442  20.684  0.00  0.00    +0.000 N 
ATOM     10  C   UNL     1      -1.747  13.482  20.135  0.00  0.00    +0.000 C 
ATOM     11  C   UNL     1      -3.245  13.461  20.423  0.00  0.00    +0.000 C 
ATOM     12  C   UNL     1      -5.020  13.361  22.210  0.00  0.00    +0.000 A 
ATOM     13  C   UNL     1      -5.869  12.322  21.838  0.00  0.00    +0.000 A 
ATOM     14  C   UNL     1      -7.217  12.396  22.192  0.00  0.00    +0.000 A 
ATOM     15  C   UNL     1      -7.701  13.495  22.913  0.00  0.00    +0.000 A 
ATOM     16  C   UNL     1      -6.840  14.530  23.297  0.00  0.00    +0.000 A 
ATOM     17  C   UNL     1      -5.507  14.457  22.928  0.00  0.00    +0.000 A 
ATOM     18  H   UNL     1      -0.074  10.205  21.597  0.00  0.00    +0.000 HD
ENDROOT
BRANCH   9  19
ATOM     19  C   UNL     1       1.039   9.430  20.047  0.00  0.00    +0.000 A 
ATOM     20  C   UNL     1       1.400   9.474  18.702  0.00  0.00    +0.000 A 
ATOM     21  C   UNL     1       2.000   8.373  18.079  0.00  0.00    +0.000 A 
ATOM     22  C   UNL     1       2.300   7.196  18.783  0.00  0.00    +0.000 A 
ATOM     23  C   UNL     1       2.040   7.213  20.165  0.00  0.00    +0.000 A 
ATOM     24  C   UNL     1       1.422   8.312  20.791  0.00  0.00    +0.000 A 
BRANCH  22  25
ATOM     25  C   UNL     1       2.822   5.992  18.085  0.00  0.00    +0.000 A 
ATOM     26  C   UNL     1       2.093   4.787  18.038  0.00  0.00    +0.000 A 
ATOM     27  C   UNL     1       2.612   3.635  17.435  0.00  0.00    +0.000 A 
ATOM     28  C   UNL     1       3.870   3.661  16.846  0.00  0.00    +0.000 A 
ATOM     29  C   UNL     1       4.610   4.838  16.865  0.00  0.00    +0.000 A 
ATOM     30  C   UNL     1       4.095   5.984  17.482  0.00  0.00    +0.000 A 
ENDBRANCH  22  25
ENDBRANCH   9  19
BRANCH   1  32
ATOM     31  C   UNL     1      -2.930  17.550  23.632  0.00  0.00    +0.000 C 
ATOM     32  S   UNL     1      -4.582  16.898  23.777  0.00  0.00    +0.000 S 
ATOM     33  O   UNL     1      -4.909  16.865  25.189  0.00  0.00    +0.000 OA
ATOM     34  O   UNL     1      -5.418  17.632  22.847  0.00  0.00    +0.000 OA
ENDBRANCH   1  32
TORSDOF 3
ENDMDL
MODEL 3
REMARK VINA RESULT:      -8.4      4.380     11.714
REMARK  Name = 
REMARK  4 active torsions:
REMARK  status: ('A' for Active; 'I' for Inactive)
REMARK    1  A    between atoms: C_1  and  S_2
REMARK    2  A    between atoms: S_2  and  N_5
REMARK    3  A    between atoms: N_13  and  C_14
REMARK    4  A    between atoms: C_17  and  C_18
REMARK                            x       y       z     vdW  Elec       q    Type
REMARK                         _______ _______ _______ _____ _____    ______ ____
ROOT
ATOM      1  N   UNL     1      -3.565  15.286  23.406  0.00  0.00    +0.000 N 
ATOM      2  C   UNL     1      -2.397  14.764  22.661  0.00  0.00    +0.000 C 
ATOM      3  C   UNL     1      -2.876  13.447  21.965  0.00  0.00    +0.000 C 
ATOM      4  C   UNL     1      -2.213  12.194  22.590  0.00  0.00    +0.000 C 
ATOM      5  C   UNL     1      -0.730  12.065  22.216  0.00  0.00    +0.000 C 
ATOM      6  N   UNL     1      -0.561  12.138  20.766  0.00  0.00    +0.000 N 
ATOM      7  C   UNL     1       0.073  11.233  19.920  0.00  0.00    +0.000 C 
ATOM      8  O   UNL     1       0.163  11.482  18.718  0.00  0.00    +0.000 OA
ATOM      9  N   UNL     1       0.552  10.075  20.496  0.00  0.00    +0.000 N 
ATOM     10  C   UNL     1      -1.093  13.361  20.162  0.00  0.00    +0.000 C 
ATOM     11  C   UNL     1      -2.585  13.496  20.451  0.00  0.00    +0.000 C 
ATOM     12  C   UNL     1      -4.370  13.482  22.231  0.00  0.00    +0.000 A 
ATOM     13  C   UNL     1      -5.333  12.577  21.790  0.00  0.00    +0.000 A 
ATOM     14  C   UNL     1      -6.665  12.784  22.151  0.00  0.00    +0.000 A 
ATOM     15  C   UNL     1      -7.021  13.880  22.947  0.00  0.00    +0.000 A 
ATOM     16  C   UNL     1      -6.048  14.779  23.399  0.00  0.00    +0.000 A 
ATOM     17  C   UNL     1      -4.730  14.575  23.023  0.00  0.00    +0.000 A 
ATOM     18  H   UNL     1       0.177   9.818  21.392  0.00  0.00    +0.000 HD
ENDROOT
BRANCH   9  19
ATOM     19  C   UNL     1       1.201   9.026  19.790  0.00  0.00    +0.000 A 
ATOM     20  C   UNL     1       1.694   7.877  20.406  0.00  0.00    +0.000 A 
ATOM     21  C   UNL     1       2.482   6.961  19.699  0.00  0.00    +0.000 A 
ATOM     22  C   UNL     1       2.778   7.133  18.338  0.00  0.00    +0.000 A 
ATOM     23  C   UNL     1       2.173   8.233  17.703  0.00  0.00    +0.000 A 
ATOM     24  C   UNL     1       1.394   9.165  18.414  0.00  0.00    +0.000 A 
BRANCH  22  25
ATOM     25  C   UNL     1       3.715   6.221  17.631  0.00  0.00    +0.000 A 
ATOM     26  C   UNL     1       4.819   6.710  16.904  0.00  0.00    +0.000 A 
ATOM     27  C   UNL     1       5.666   5.856  16.187  0.00  0.00    +0.000 A 
ATOM     28  C   UNL     1       5.440   4.485  16.191  0.00  0.00    +0.000 A 
ATOM     29  C   UNL     1       4.366   3.969  16.908  0.00  0.00    +0.000 A 
ATOM     30  C   UNL     1       3.513   4.828  17.612  0.00  0.00    +0.000 A 
ENDBRANCH  22  25
ENDBRANCH   9  19
BRANCH   1  32
ATOM     31  C   UNL     1      -1.792  17.171  24.221  0.00  0.00    +0.000 C 
ATOM     32  S   UNL     1      -3.532  16.828  24.036  0.00  0.00    +0.000 S 
ATOM     33  O   UNL     1      -4.103  16.773  25.367  0.00  0.00    +0.000 OA
ATOM     34  O   UNL     1      -4.052  17.756  23.052  0.00  0.00    +0.000 OA
ENDBRANCH   1  32
TORSDOF 3
ENDMDL
MODEL 4
REMARK VINA RESULT:      -8.4      4.266     11.503
REMARK  Name = 
REMARK  4 active torsions:
REMARK  status: ('A' for Active; 'I' for Inactive)
REMARK    1  A    between atoms: C_1  and  S_2
REMARK    2  A    between atoms: S_2  and  N_5
REMARK    3  A    between atoms: N_13  and  C_14
REMARK    4  A    between atoms: C_17  and  C_18
REMARK                            x       y       z     vdW  Elec       q    Type
REMARK                         _______ _______ _______ _____ _____    ______ ____
ROOT
ATOM      1  N   UNL     1      -2.905  15.857  22.027  0.00  0.00    +0.000 N 
ATOM      2  C   UNL     1      -2.015  15.049  21.163  0.00  0.00    +0.000 C 
ATOM      3  C   UNL     1      -2.402  13.554  21.414  0.00  0.00    +0.000 C 
ATOM      4  C   UNL     1      -1.283  12.790  22.165  0.00  0.00    +0.000 C 
ATOM      5  C   UNL     1      -0.062  12.512  21.277  0.00  0.00    +0.000 C 
ATOM      6  N   UNL     1      -0.472  11.853  20.039  0.00  0.00    +0.000 N 
ATOM      7  C   UNL     1      -0.011  10.655  19.501  0.00  0.00    +0.000 C 
ATOM      8  O   UNL     1      -0.439  10.271  18.413  0.00  0.00    +0.000 OA
ATOM      9  N   UNL     1       0.903   9.947  20.253  0.00  0.00    +0.000 N 
ATOM     10  C   UNL     1      -1.458  12.603  19.260  0.00  0.00    +0.000 C 
ATOM     11  C   UNL     1      -2.721  12.843  20.083  0.00  0.00    +0.000 C 
ATOM     12  C   UNL     1      -3.652  13.696  22.264  0.00  0.00    +0.000 A 
ATOM     13  C   UNL     1      -4.472  12.679  22.746  0.00  0.00    +0.000 A 
ATOM     14  C   UNL     1      -5.580  13.020  23.522  0.00  0.00    +0.000 A 
ATOM     15  C   UNL     1      -5.854  14.362  23.815  0.00  0.00    +0.000 A 
ATOM     16  C   UNL     1      -5.019  15.380  23.341  0.00  0.00    +0.000 A 
ATOM     17  C   UNL     1      -3.930  15.034  22.556  0.00  0.00    +0.000 A 
ATOM     18  H   UNL     1       0.962  10.167  21.231  0.00  0.00    +0.000 HD
ENDROOT
BRANCH   9  19
ATOM     19  C   UNL     1       1.463   8.695  19.881  0.00  0.00    +0.000 A 
ATOM     20  C   UNL     1       2.039   8.453  18.635  0.00  0.00    +0.000 A 
ATOM     21  C   UNL     1       2.412   7.159  18.252  0.00  0.00    +0.000 A 
ATOM     22  C   UNL     1       2.262   6.060  19.111  0.00  0.00    +0.000 A 
ATOM     23  C   UNL     1       1.791   6.341  20.407  0.00  0.00    +0.000 A 
ATOM     24  C   UNL     1       1.400   7.637  20.790  0.00  0.00    +0.000 A 
BRANCH  22  25
ATOM     25  C   UNL     1       2.545   4.675  18.649  0.00  0.00    +0.000 A 
ATOM     26  C   UNL     1       1.654   3.612  18.897  0.00  0.00    +0.000 A 
ATOM     27  C   UNL     1       1.950   2.298  18.517  0.00  0.00    +0.000 A 
ATOM     28  C   UNL     1       3.142   2.013  17.862  0.00  0.00    +0.000 A 
ATOM     29  C   UNL     1       4.038   3.041  17.591  0.00  0.00    +0.000 A 
ATOM     30  C   UNL     1       3.745   4.351  17.986  0.00  0.00    +0.000 A 
ENDBRANCH  22  25
ENDBRANCH   9  19
BRANCH   1  32
ATOM     31  C   UNL     1      -1.533  17.896  20.878  0.00  0.00    +0.000 C 
ATOM     32  S   UNL     1      -2.995  17.507  21.820  0.00  0.00    +0.000 S 
ATOM     33  O   UNL     1      -2.842  18.124  23.124  0.00  0.00    +0.000 OA
ATOM     34  O   UNL     1      -4.140  17.822  20.990  0.00  0.00    +0.000 OA
ENDBRANCH   1  32
TORSDOF 3
ENDMDL
MODEL 5
REMARK VINA RESULT:      -8.4      4.253     11.506
REMARK  Name = 
REMARK  4 active torsions:
REMARK  status: ('A' for Active; 'I' for Inactive)
REMARK    1  A    between atoms: C_1  and  S_2
REMARK    2  A    between atoms: S_2  and  N_5
REMARK    3  A    between atoms: N_13  and  C_14
REMARK    4  A    between atoms: C_17  and  C_18
REMARK                            x       y       z     vdW  Elec       q    Type
REMARK                         _______ _______ _______ _____ _____    ______ ____
ROOT
ATOM      1  N   UNL     1      -2.935  15.836  21.698  0.00  0.00    +0.000 N 
ATOM      2  C   UNL     1      -2.094  14.975  20.836  0.00  0.00    +0.000 C 
ATOM      3  C   UNL     1      -2.404  13.500  21.256  0.00  0.00    +0.000 C 
ATOM      4  C   UNL     1      -1.198  12.841  21.972  0.00  0.00    +0.000 C 
ATOM      5  C   UNL     1      -0.048  12.515  21.009  0.00  0.00    +0.000 C 
ATOM      6  N   UNL     1      -0.538  11.732  19.876  0.00  0.00    +0.000 N 
ATOM      7  C   UNL     1      -0.082  10.502  19.411  0.00  0.00    +0.000 C 
ATOM      8  O   UNL     1      -0.587  10.005  18.405  0.00  0.00    +0.000 OA
ATOM      9  N   UNL     1       0.917   9.893  20.141  0.00  0.00    +0.000 N 
ATOM     10  C   UNL     1      -1.614  12.377  19.122  0.00  0.00    +0.000 C 
ATOM     11  C   UNL     1      -2.809  12.659  20.028  0.00  0.00    +0.000 C 
ATOM     12  C   UNL     1      -3.581  13.686  22.196  0.00  0.00    +0.000 A 
ATOM     13  C   UNL     1      -4.320  12.696  22.838  0.00  0.00    +0.000 A 
ATOM     14  C   UNL     1      -5.370  13.078  23.676  0.00  0.00    +0.000 A 
ATOM     15  C   UNL     1      -5.666  14.433  23.867  0.00  0.00    +0.000 A 
ATOM     16  C   UNL     1      -4.911  15.425  23.231  0.00  0.00    +0.000 A 
ATOM     17  C   UNL     1      -3.881  15.037  22.388  0.00  0.00    +0.000 A 
ATOM     18  H   UNL     1       1.051  10.205  21.087  0.00  0.00    +0.000 HD
ENDROOT
BRANCH   9  19
ATOM     19  C   UNL     1       1.488   8.628  19.837  0.00  0.00    +0.000 A 
ATOM     20  C   UNL     1       2.101   8.336  18.620  0.00  0.00    +0.000 A 
ATOM     21  C   UNL     1       2.485   7.028  18.300  0.00  0.00    +0.000 A 
ATOM     22  C   UNL     1       2.309   5.964  19.199  0.00  0.00    +0.000 A 
ATOM     23  C   UNL     1       1.801   6.297  20.468  0.00  0.00    +0.000 A 
ATOM     24  C   UNL     1       1.399   7.607  20.786  0.00  0.00    +0.000 A 
BRANCH  22  25
ATOM     25  C   UNL     1       2.606   4.562  18.802  0.00  0.00    +0.000 A 
ATOM     26  C   UNL     1       3.655   4.247  17.915  0.00  0.00    +0.000 A 
ATOM     27  C   UNL     1       3.895   2.934  17.494  0.00  0.00    +0.000 A 
ATOM     28  C   UNL     1       3.100   1.895  17.962  0.00  0.00    +0.000 A 
ATOM     29  C   UNL     1       2.064   2.170  18.848  0.00  0.00    +0.000 A 
ATOM     30  C   UNL     1       1.818   3.486  19.255  0.00  0.00    +0.000 A 
ENDBRANCH  22  25
ENDBRANCH   9  19
BRANCH   1  32
ATOM     31  C   UNL     1      -4.494  17.509  20.239  0.00  0.00    +0.000 C 
ATOM     32  S   UNL     1      -3.101  17.456  21.350  0.00  0.00    +0.000 S 
ATOM     33  O   UNL     1      -1.934  17.867  20.596  0.00  0.00    +0.000 OA
ATOM     34  O   UNL     1      -3.483  18.165  22.555  0.00  0.00    +0.000 OA
ENDBRANCH   1  32
TORSDOF 3
ENDMDL
MODEL 6
REMARK VINA RESULT:      -8.3      4.523     11.845
REMARK  Name = 
REMARK  4 active torsions:
REMARK  status: ('A' for Active; 'I' for Inactive)
REMARK    1  A    between atoms: C_1  and  S_2
REMARK    2  A    between atoms: S_2  and  N_5
REMARK    3  A    between atoms: N_13  and  C_14
REMARK    4  A    between atoms: C_17  and  C_18
REMARK                            x       y       z     vdW  Elec       q    Type
REMARK                         _______ _______ _______ _____ _____    ______ ____
ROOT
ATOM      1  N   UNL     1      -3.994  15.468  23.607  0.00  0.00    +0.000 N 
ATOM      2  C   UNL     1      -2.854  14.976  22.801  0.00  0.00    +0.000 C 
ATOM      3  C   UNL     1      -3.299  13.595  22.214  0.00  0.00    +0.000 C 
ATOM      4  C   UNL     1      -2.512  12.421  22.849  0.00  0.00    +0.000 C 
ATOM      5  C   UNL     1      -1.056  12.360  22.368  0.00  0.00    +0.000 C 
ATOM      6  N   UNL     1      -1.001  12.360  20.907  0.00  0.00    +0.000 N 
ATOM      7  C   UNL     1      -0.376  11.448  20.063  0.00  0.00    +0.000 C 
ATOM      8  O   UNL     1      -0.392  11.633  18.846  0.00  0.00    +0.000 OA
ATOM      9  N   UNL     1       0.218  10.355  20.659  0.00  0.00    +0.000 N 
ATOM     10  C   UNL     1      -1.654  13.513  20.284  0.00  0.00    +0.000 C 
ATOM     11  C   UNL     1      -3.126  13.574  20.682  0.00  0.00    +0.000 C 
ATOM     12  C   UNL     1      -4.768  13.555  22.594  0.00  0.00    +0.000 A 
ATOM     13  C   UNL     1      -5.701  12.571  22.277  0.00  0.00    +0.000 A 
ATOM     14  C   UNL     1      -7.013  12.718  22.730  0.00  0.00    +0.000 A 
ATOM     15  C   UNL     1      -7.378  13.834  23.493  0.00  0.00    +0.000 A 
ATOM     16  C   UNL     1      -6.433  14.814  23.821  0.00  0.00    +0.000 A 
ATOM     17  C   UNL     1      -5.137  14.668  23.353  0.00  0.00    +0.000 A 
ATOM     18  H   UNL     1      -0.071  10.128  21.594  0.00  0.00    +0.000 HD
ENDROOT
BRANCH   9  19
ATOM     19  C   UNL     1       0.879   9.309  19.960  0.00  0.00    +0.000 A 
ATOM     20  C   UNL     1       1.353   8.154  20.578  0.00  0.00    +0.000 A 
ATOM     21  C   UNL     1       2.153   7.239  19.882  0.00  0.00    +0.000 A 
ATOM     22  C   UNL     1       2.479   7.420  18.530  0.00  0.00    +0.000 A 
ATOM     23  C   UNL     1       1.893   8.527  17.889  0.00  0.00    +0.000 A 
ATOM     24  C   UNL     1       1.102   9.457  18.589  0.00  0.00    +0.000 A 
BRANCH  22  25
ATOM     25  C   UNL     1       3.428   6.509  17.836  0.00  0.00    +0.000 A 
ATOM     26  C   UNL     1       3.365   5.110  17.994  0.00  0.00    +0.000 A 
ATOM     27  C   UNL     1       4.297   4.257  17.391  0.00  0.00    +0.000 A 
ATOM     28  C   UNL     1       5.311   4.781  16.598  0.00  0.00    +0.000 A 
ATOM     29  C   UNL     1       5.394   6.157  16.412  0.00  0.00    +0.000 A 
ATOM     30  C   UNL     1       4.469   7.007  17.028  0.00  0.00    +0.000 A 
ENDBRANCH  22  25
ENDBRANCH   9  19
BRANCH   1  32
ATOM     31  C   UNL     1      -4.850  17.929  22.851  0.00  0.00    +0.000 C 
ATOM     32  S   UNL     1      -4.012  17.042  24.151  0.00  0.00    +0.000 S 
ATOM     33  O   UNL     1      -2.642  17.515  24.179  0.00  0.00    +0.000 OA
ATOM     34  O   UNL     1      -4.843  17.128  25.336  0.00  0.00    +0.000 OA
ENDBRANCH   1  32
TORSDOF 3
ENDMDL
MODEL 7
REMARK VINA RESULT:      -8.3      4.767     12.016
REMARK  Name = 
REMARK  4 active torsions:
REMARK  status: ('A' for Active; 'I' for Inactive)
REMARK    1  A    between atoms: C_1  and  S_2
REMARK    2  A    between atoms: S_2  and  N_5
REMARK    3  A    between atoms: N_13  and  C_14
REMARK    4  A    between atoms: C_17  and  C_18
REMARK                            x       y       z     vdW  Elec       q    Type
REMARK                         _______ _______ _______ _____ _____    ______ ____
ROOT
ATOM      1  N   UNL     1      -4.172  15.475  22.568  0.00  0.00    +0.000 N 
ATOM      2  C   UNL     1      -3.557  14.129  22.538  0.00  0.00    +0.000 C 
ATOM      3  C   UNL     1      -2.165  14.300  21.842  0.00  0.00    +0.000 C 
ATOM      4  C   UNL     1      -2.136  13.629  20.446  0.00  0.00    +0.000 C 
ATOM      5  C   UNL     1      -2.106  12.096  20.530  0.00  0.00    +0.000 C 
ATOM      6  N   UNL     1      -1.018  11.654  21.400  0.00  0.00    +0.000 N 
ATOM      7  C   UNL     1       0.011  10.762  21.115  0.00  0.00    +0.000 C 
ATOM      8  O   UNL     1       0.821  10.467  21.993  0.00  0.00    +0.000 OA
ATOM      9  N   UNL     1       0.070  10.272  19.827  0.00  0.00    +0.000 N 
ATOM     10  C   UNL     1      -1.079  12.198  22.758  0.00  0.00    +0.000 C 
ATOM     11  C   UNL     1      -1.041  13.724  22.726  0.00  0.00    +0.000 C 
ATOM     12  C   UNL     1      -2.053  15.811  21.740  0.00  0.00    +0.000 A 
ATOM     13  C   UNL     1      -0.982  16.552  21.249  0.00  0.00    +0.000 A 
ATOM     14  C   UNL     1      -1.078  17.944  21.234  0.00  0.00    +0.000 A 
ATOM     15  C   UNL     1      -2.236  18.579  21.701  0.00  0.00    +0.000 A 
ATOM     16  C   UNL     1      -3.316  17.829  22.181  0.00  0.00    +0.000 A 
ATOM     17  C   UNL     1      -3.205  16.448  22.207  0.00  0.00    +0.000 A 
ATOM     18  H   UNL     1      -0.424  10.783  19.118  0.00  0.00    +0.000 HD
ENDROOT
BRANCH   9  19
ATOM     19  C   UNL     1       1.062   9.375  19.346  0.00  0.00    +0.000 A 
ATOM     20  C   UNL     1       1.664   9.498  18.095  0.00  0.00    +0.000 A 
ATOM     21  C   UNL     1       2.499   8.492  17.594  0.00  0.00    +0.000 A 
ATOM     22  C   UNL     1       2.800   7.341  18.338  0.00  0.00    +0.000 A 
ATOM     23  C   UNL     1       2.282   7.290  19.645  0.00  0.00    +0.000 A 
ATOM     24  C   UNL     1       1.429   8.290  20.145  0.00  0.00    +0.000 A 
BRANCH  22  25
ATOM     25  C   UNL     1       3.587   6.225  17.748  0.00  0.00    +0.000 A 
ATOM     26  C   UNL     1       4.747   6.457  16.984  0.00  0.00    +0.000 A 
ATOM     27  C   UNL     1       5.452   5.410  16.377  0.00  0.00    +0.000 A 
ATOM     28  C   UNL     1       5.023   4.098  16.534  0.00  0.00    +0.000 A 
ATOM     29  C   UNL     1       3.888   3.834  17.293  0.00  0.00    +0.000 A 
ATOM     30  C   UNL     1       3.178   4.884  17.885  0.00  0.00    +0.000 A 
ENDBRANCH  22  25
ENDBRANCH   9  19
BRANCH   1  32
ATOM     31  C   UNL     1      -6.114  14.114  23.885  0.00  0.00    +0.000 C 
ATOM     32  S   UNL     1      -5.529  15.751  23.493  0.00  0.00    +0.000 S 
ATOM     33  O   UNL     1      -6.525  16.370  22.640  0.00  0.00    +0.000 OA
ATOM     34  O   UNL     1      -5.138  16.380  24.739  0.00  0.00    +0.000 OA
ENDBRANCH   1  32
TORSDOF 3
ENDMDL
MODEL 8
REMARK VINA RESULT:      -8.3      4.445     11.799
REMARK  Name = 
REMARK  4 active torsions:
REMARK  status: ('A' for Active; 'I' for Inactive)
REMARK    1  A    between atoms: C_1  and  S_2
REMARK    2  A    between atoms: S_2  and  N_5
REMARK    3  A    between atoms: N_13  and  C_14
REMARK    4  A    between atoms: C_17  and  C_18
REMARK                            x       y       z     vdW  Elec       q    Type
REMARK                         _______ _______ _______ _____ _____    ______ ____
ROOT
ATOM      1  N   UNL     1      -4.482  15.770  21.766  0.00  0.00    +0.000 N 
ATOM      2  C   UNL     1      -3.560  15.037  20.869  0.00  0.00    +0.000 C 
ATOM      3  C   UNL     1      -3.561  13.551  21.362  0.00  0.00    +0.000 C 
ATOM      4  C   UNL     1      -2.205  13.159  22.001  0.00  0.00    +0.000 C 
ATOM      5  C   UNL     1      -1.087  13.002  20.961  0.00  0.00    +0.000 C 
ATOM      6  N   UNL     1      -1.504  12.089  19.899  0.00  0.00    +0.000 N 
ATOM      7  C   UNL     1      -0.862  10.942  19.441  0.00  0.00    +0.000 C 
ATOM      8  O   UNL     1      -1.338  10.314  18.495  0.00  0.00    +0.000 OA
ATOM      9  N   UNL     1       0.283  10.561  20.109  0.00  0.00    +0.000 N 
ATOM     10  C   UNL     1      -2.732  12.491  19.211  0.00  0.00    +0.000 C 
ATOM     11  C   UNL     1      -3.890  12.592  20.200  0.00  0.00    +0.000 C 
ATOM     12  C   UNL     1      -4.681  13.565  22.387  0.00  0.00    +0.000 A 
ATOM     13  C   UNL     1      -5.175  12.489  23.119  0.00  0.00    +0.000 A 
ATOM     14  C   UNL     1      -6.214  12.713  24.024  0.00  0.00    +0.000 A 
ATOM     15  C   UNL     1      -6.741  13.999  24.193  0.00  0.00    +0.000 A 
ATOM     16  C   UNL     1      -6.231  15.080  23.464  0.00  0.00    +0.000 A 
ATOM     17  C   UNL     1      -5.212  14.846  22.556  0.00  0.00    +0.000 A 
ATOM     18  H   UNL     1       0.424  10.938  21.029  0.00  0.00    +0.000 HD
ENDROOT
BRANCH   9  19
ATOM     19  C   UNL     1       1.055   9.408  19.803  0.00  0.00    +0.000 A 
ATOM     20  C   UNL     1       1.646   9.189  18.561  0.00  0.00    +0.000 A 
ATOM     21  C   UNL     1       2.242   7.960  18.252  0.00  0.00    +0.000 A 
ATOM     22  C   UNL     1       2.307   6.913  19.183  0.00  0.00    +0.000 A 
ATOM     23  C   UNL     1       1.812   7.192  20.471  0.00  0.00    +0.000 A 
ATOM     24  C   UNL     1       1.198   8.420  20.780  0.00  0.00    +0.000 A 
BRANCH  22  25
ATOM     25  C   UNL     1       2.829   5.573  18.804  0.00  0.00    +0.000 A 
ATOM     26  C   UNL     1       2.159   4.749  17.879  0.00  0.00    +0.000 A 
ATOM     27  C   UNL     1       2.618   3.463  17.569  0.00  0.00    +0.000 A 
ATOM     28  C   UNL     1       3.772   2.972  18.166  0.00  0.00    +0.000 A 
ATOM     29  C   UNL     1       4.465   3.765  19.075  0.00  0.00    +0.000 A 
ATOM     30  C   UNL     1       3.994   5.044  19.393  0.00  0.00    +0.000 A 
ENDBRANCH  22  25
ENDBRANCH   9  19
BRANCH   1  32
ATOM     31  C   UNL     1      -3.733  17.871  20.222  0.00  0.00    +0.000 C 
ATOM     32  S   UNL     1      -4.970  17.314  21.378  0.00  0.00    +0.000 S 
ATOM     33  O   UNL     1      -4.843  18.129  22.570  0.00  0.00    +0.000 OA
ATOM     34  O   UNL     1      -6.230  17.250  20.663  0.00  0.00    +0.000 OA
ENDBRANCH   1  32
TORSDOF 3
ENDMDL
MODEL 9
REMARK VINA RESULT:      -8.1      4.960     12.067
REMARK  Name = 
REMARK  4 active torsions:
REMARK  status: ('A' for Active; 'I' for Inactive)
REMARK    1  A    between atoms: C_1  and  S_2
REMARK    2  A    between atoms: S_2  and  N_5
REMARK    3  A    between atoms: N_13  and  C_14
REMARK    4  A    between atoms: C_17  and  C_18
REMARK                            x       y       z     vdW  Elec       q    Type
REMARK                         _______ _______ _______ _____ _____    ______ ____
ROOT
ATOM      1  N   UNL     1      -3.945  15.765  23.057  0.00  0.00    +0.000 N 
ATOM      2  C   UNL     1      -3.512  14.362  22.866  0.00  0.00    +0.000 C 
ATOM      3  C   UNL     1      -2.019  14.426  22.402  0.00  0.00    +0.000 C 
ATOM      4  C   UNL     1      -1.859  13.990  20.924  0.00  0.00    +0.000 C 
ATOM      5  C   UNL     1      -2.042  12.477  20.734  0.00  0.00    +0.000 C 
ATOM      6  N   UNL     1      -1.169  11.739  21.645  0.00  0.00    +0.000 N 
ATOM      7  C   UNL     1      -0.232  10.756  21.342  0.00  0.00    +0.000 C 
ATOM      8  O   UNL     1       0.386  10.203  22.251  0.00  0.00    +0.000 OA
ATOM      9  N   UNL     1      -0.037  10.474  20.006  0.00  0.00    +0.000 N 
ATOM     10  C   UNL     1      -1.370  12.063  23.058  0.00  0.00    +0.000 C 
ATOM     11  C   UNL     1      -1.130  13.549  23.307  0.00  0.00    +0.000 C 
ATOM     12  C   UNL     1      -1.698  15.898  22.590  0.00  0.00    +0.000 A 
ATOM     13  C   UNL     1      -0.476  16.533  22.385  0.00  0.00    +0.000 A 
ATOM     14  C   UNL     1      -0.388  17.908  22.609  0.00  0.00    +0.000 A 
ATOM     15  C   UNL     1      -1.512  18.631  23.027  0.00  0.00    +0.000 A 
ATOM     16  C   UNL     1      -2.742  17.990  23.217  0.00  0.00    +0.000 A 
ATOM     17  C   UNL     1      -2.816  16.622  23.009  0.00  0.00    +0.000 A 
ATOM     18  H   UNL     1      -0.344  11.163  19.342  0.00  0.00    +0.000 HD
ENDROOT
BRANCH   9  19
ATOM     19  C   UNL     1       0.894   9.524  19.505  0.00  0.00    +0.000 A 
ATOM     20  C   UNL     1       1.377   9.539  18.198  0.00  0.00    +0.000 A 
ATOM     21  C   UNL     1       2.148   8.481  17.702  0.00  0.00    +0.000 A 
ATOM     22  C   UNL     1       2.503   7.384  18.502  0.00  0.00    +0.000 A 
ATOM     23  C   UNL     1       2.109   7.443  19.851  0.00  0.00    +0.000 A 
ATOM     24  C   UNL     1       1.320   8.496  20.349  0.00  0.00    +0.000 A 
BRANCH  22  25
ATOM     25  C   UNL     1       3.216   6.211  17.930  0.00  0.00    +0.000 A 
ATOM     26  C   UNL     1       4.458   6.342  17.279  0.00  0.00    +0.000 A 
ATOM     27  C   UNL     1       5.099   5.247  16.687  0.00  0.00    +0.000 A 
ATOM     28  C   UNL     1       4.521   3.985  16.745  0.00  0.00    +0.000 A 
ATOM     29  C   UNL     1       3.301   3.819  17.391  0.00  0.00    +0.000 A 
ATOM     30  C   UNL     1       2.656   4.919  17.969  0.00  0.00    +0.000 A 
ENDBRANCH  22  25
ENDBRANCH   9  19
BRANCH   1  32
ATOM     31  C   UNL     1      -6.195  17.246  22.737  0.00  0.00    +0.000 C 
ATOM     32  S   UNL     1      -5.383  16.096  23.830  0.00  0.00    +0.000 S 
ATOM     33  O   UNL     1      -5.071  16.812  25.052  0.00  0.00    +0.000 OA
ATOM     34  O   UNL     1      -6.191  14.894  23.870  0.00  0.00    +0.000 OA
ENDBRANCH   1  32
TORSDOF 3
ENDMDL
