MODEL 1
REMARK VINA RESULT:      -7.5      0.000      0.000
REMARK  Name = 
REMARK  13 active torsions:
REMARK  status: ('A' for Active; 'I' for Inactive)
REMARK    1  A    between atoms: C_1  and  P_2
REMARK    2  A    between atoms: P_2  and  O_4
REMARK    3  A    between atoms: P_2  and  N_5
REMARK    4  A    between atoms: N_5  and  C_6
REMARK    5  A    between atoms: C_7  and  O_8
REMARK    6  A    between atoms: O_8  and  C_9
REMARK    7  A    between atoms: C_9  and  C_10
REMARK    8  A    between atoms: C_17  and  C_18
REMARK    9  A    between atoms: C_18  and  O_19
REMARK   10  A    between atoms: C_20  and  O_21
REMARK   11  A    between atoms: O_21  and  C_22
REMARK   12  A    between atoms: C_22  and  C_23
REMARK   13  A    between atoms: C_29  and  O_30
REMARK                            x       y       z     vdW  Elec       q    Type
REMARK                         _______ _______ _______ _____ _____    ______ ____
ROOT
ATOM      1  C   UNL     1       3.876   5.564  19.142  0.00  0.00    +0.000 C 
ATOM      2  C   UNL     1       3.759   5.843  17.631  0.00  0.00    +0.000 C 
ATOM      3  O   UNL     1       3.476   7.246  17.469  0.00  0.00    +0.000 OA
ATOM      4  C   UNL     1       2.286   7.748  18.139  0.00  0.00    +0.000 C 
ATOM      5  C   UNL     1       2.296   7.484  19.674  0.00  0.00    +0.000 C 
ATOM      6  C   UNL     1       2.519   5.951  19.789  0.00  0.00    +0.000 C 
ENDROOT
BRANCH   1   7
ATOM      7  N   UNL     1       4.303   4.188  19.551  0.00  0.00    +0.000 NA
ATOM      8  H   UNL     1       5.109   3.937  18.985  0.00  0.00    +0.000 HD
BRANCH   7  10
ATOM      9  C   UNL     1       1.825   1.646  18.897  0.00  0.00    +0.000 C 
ATOM     10  P   UNL     1       3.082   2.934  19.228  0.00  0.00    +0.000 P 
ATOM     11  O   UNL     1       2.907   2.557  20.721  0.00  0.00    +0.000 OA
BRANCH  10  12
ATOM     12  O   UNL     1       4.283   1.881  18.852  0.00  0.00    +0.000 OA
ATOM     13  H   UNL     1       3.993   1.017  19.201  0.00  0.00    +0.000 HD
ENDBRANCH  10  12
ENDBRANCH   7  10
ENDBRANCH   1   7
BRANCH   6  14
ATOM     14  O   UNL     1       2.485   5.479  21.133  0.00  0.00    +0.000 OA
ATOM     15  H   UNL     1       1.996   4.610  21.071  0.00  0.00    +0.000 HD
ENDBRANCH   6  14
BRANCH   2  16
ATOM     16  O   UNL     1       4.976   5.562  16.916  0.00  0.00    +0.000 OA
BRANCH  16  17
ATOM     17  C   UNL     1       4.930   4.344  16.174  0.00  0.00    +0.000 C 
BRANCH  17  18
ATOM     18  C   UNL     1       5.696   4.398  14.890  0.00  0.00    +0.000 A 
ATOM     19  C   UNL     1       6.888   5.142  14.831  0.00  0.00    +0.000 A 
ATOM     20  C   UNL     1       7.654   5.159  13.671  0.00  0.00    +0.000 A 
ATOM     21  C   UNL     1       7.223   4.425  12.571  0.00  0.00    +0.000 A 
ATOM     22  C   UNL     1       6.040   3.683  12.625  0.00  0.00    +0.000 A 
ATOM     23  C   UNL     1       5.276   3.670  13.778  0.00  0.00    +0.000 A 
ENDBRANCH  17  18
ENDBRANCH  16  17
ENDBRANCH   2  16
BRANCH   4  24
ATOM     24  C   UNL     1       2.240   9.237  17.780  0.00  0.00    +0.000 C 
BRANCH  24  25
ATOM     25  O   UNL     1       0.875   9.673  17.783  0.00  0.00    +0.000 OA
ATOM     26  H   UNL     1       0.790  10.260  17.001  0.00  0.00    +0.000 HD
ENDBRANCH  24  25
ENDBRANCH   4  24
BRANCH   5  27
ATOM     27  O   UNL     1       1.079   7.931  20.360  0.00  0.00    +0.000 OA
BRANCH  27  28
ATOM     28  C   UNL     1       1.385   8.807  21.471  0.00  0.00    +0.000 C 
BRANCH  28  29
ATOM     29  C   UNL     1       0.471   9.936  21.891  0.00  0.00    +0.000 A 
ATOM     30  C   UNL     1       0.572  11.152  21.168  0.00  0.00    +0.000 A 
ATOM     31  C   UNL     1      -0.206  12.258  21.467  0.00  0.00    +0.000 A 
ATOM     32  C   UNL     1      -1.147  12.155  22.497  0.00  0.00    +0.000 A 
ATOM     33  C   UNL     1      -1.280  10.958  23.196  0.00  0.00    +0.000 A 
ATOM     34  C   UNL     1      -0.476   9.842  22.904  0.00  0.00    +0.000 A 
ENDBRANCH  28  29
ENDBRANCH  27  28
ENDBRANCH   5  27
TORSDOF 12
ENDMDL
MODEL 2
REMARK VINA RESULT:      -7.5      0.086      1.251
REMARK  Name = 
REMARK  13 active torsions:
REMARK  status: ('A' for Active; 'I' for Inactive)
REMARK    1  A    between atoms: C_1  and  P_2
REMARK    2  A    between atoms: P_2  and  O_4
REMARK    3  A    between atoms: P_2  and  N_5
REMARK    4  A    between atoms: N_5  and  C_6
REMARK    5  A    between atoms: C_7  and  O_8
REMARK    6  A    between atoms: O_8  and  C_9
REMARK    7  A    between atoms: C_9  and  C_10
REMARK    8  A    between atoms: C_17  and  C_18
REMARK    9  A    between atoms: C_18  and  O_19
REMARK   10  A    between atoms: C_20  and  O_21
REMARK   11  A    between atoms: O_21  and  C_22
REMARK   12  A    between atoms: C_22  and  C_23
REMARK   13  A    between atoms: C_29  and  O_30
REMARK                            x       y       z     vdW  Elec       q    Type
REMARK                         _______ _______ _______ _____ _____    ______ ____
ROOT
ATOM      1  C   UNL     1       3.855   5.518  19.165  0.00  0.00    +0.000 C 
ATOM      2  C   UNL     1       3.723   5.775  17.651  0.00  0.00    +0.000 C 
ATOM      3  O   UNL     1       3.451   7.178  17.471  0.00  0.00    +0.000 OA
ATOM      4  C   UNL     1       2.274   7.702  18.147  0.00  0.00    +0.000 C 
ATOM      5  C   UNL     1       2.301   7.461  19.686  0.00  0.00    +0.000 C 
ATOM      6  C   UNL     1       2.510   5.928  19.822  0.00  0.00    +0.000 C 
ENDROOT
BRANCH   1   7
ATOM      7  N   UNL     1       4.274   4.144  19.589  0.00  0.00    +0.000 NA
ATOM      8  H   UNL     1       5.105   3.899  19.057  0.00  0.00    +0.000 HD
BRANCH   7  10
ATOM      9  C   UNL     1       1.842   1.586  18.830  0.00  0.00    +0.000 C 
ATOM     10  P   UNL     1       3.075   2.883  19.215  0.00  0.00    +0.000 P 
ATOM     11  O   UNL     1       2.823   2.519  20.700  0.00  0.00    +0.000 OA
BRANCH  10  12
ATOM     12  O   UNL     1       4.298   1.831  18.912  0.00  0.00    +0.000 OA
ATOM     13  H   UNL     1       4.253   1.645  17.955  0.00  0.00    +0.000 HD
ENDBRANCH  10  12
ENDBRANCH   7  10
ENDBRANCH   1   7
BRANCH   6  14
ATOM     14  O   UNL     1       2.488   5.476  21.173  0.00  0.00    +0.000 OA
ATOM     15  H   UNL     1       2.392   6.316  21.706  0.00  0.00    +0.000 HD
ENDBRANCH   6  14
BRANCH   2  16
ATOM     16  O   UNL     1       4.929   5.472  16.926  0.00  0.00    +0.000 OA
BRANCH  16  17
ATOM     17  C   UNL     1       4.817   4.315  16.098  0.00  0.00    +0.000 C 
BRANCH  17  18
ATOM     18  C   UNL     1       5.708   4.351  14.897  0.00  0.00    +0.000 A 
ATOM     19  C   UNL     1       5.327   3.653  13.737  0.00  0.00    +0.000 A 
ATOM     20  C   UNL     1       6.103   3.719  12.586  0.00  0.00    +0.000 A 
ATOM     21  C   UNL     1       7.261   4.490  12.600  0.00  0.00    +0.000 A 
ATOM     22  C   UNL     1       7.643   5.186  13.749  0.00  0.00    +0.000 A 
ATOM     23  C   UNL     1       6.873   5.117  14.896  0.00  0.00    +0.000 A 
ENDBRANCH  17  18
ENDBRANCH  16  17
ENDBRANCH   2  16
BRANCH   4  24
ATOM     24  C   UNL     1       2.238   9.186  17.766  0.00  0.00    +0.000 C 
BRANCH  24  25
ATOM     25  O   UNL     1       0.878   9.636  17.783  0.00  0.00    +0.000 OA
ATOM     26  H   UNL     1       0.336   8.820  17.733  0.00  0.00    +0.000 HD
ENDBRANCH  24  25
ENDBRANCH   4  24
BRANCH   5  27
ATOM     27  O   UNL     1       1.096   7.930  20.380  0.00  0.00    +0.000 OA
BRANCH  27  28
ATOM     28  C   UNL     1       1.419   8.870  21.432  0.00  0.00    +0.000 C 
BRANCH  28  29
ATOM     29  C   UNL     1       0.542  10.058  21.759  0.00  0.00    +0.000 A 
ATOM     30  C   UNL     1      -0.410   9.892  22.797  0.00  0.00    +0.000 A 
ATOM     31  C   UNL     1      -1.273  10.906  23.179  0.00  0.00    +0.000 A 
ATOM     32  C   UNL     1      -1.175  12.144  22.537  0.00  0.00    +0.000 A 
ATOM     33  C   UNL     1      -0.224  12.333  21.536  0.00  0.00    +0.000 A 
ATOM     34  C   UNL     1       0.638  11.297  21.137  0.00  0.00    +0.000 A 
ENDBRANCH  28  29
ENDBRANCH  27  28
ENDBRANCH   5  27
TORSDOF 12
ENDMDL
MODEL 3
REMARK VINA RESULT:      -7.2      2.839      8.177
REMARK  Name = 
REMARK  13 active torsions:
REMARK  status: ('A' for Active; 'I' for Inactive)
REMARK    1  A    between atoms: C_1  and  P_2
REMARK    2  A    between atoms: P_2  and  O_4
REMARK    3  A    between atoms: P_2  and  N_5
REMARK    4  A    between atoms: N_5  and  C_6
REMARK    5  A    between atoms: C_7  and  O_8
REMARK    6  A    between atoms: O_8  and  C_9
REMARK    7  A    between atoms: C_9  and  C_10
REMARK    8  A    between atoms: C_17  and  C_18
REMARK    9  A    between atoms: C_18  and  O_19
REMARK   10  A    between atoms: C_20  and  O_21
REMARK   11  A    between atoms: O_21  and  C_22
REMARK   12  A    between atoms: C_22  and  C_23
REMARK   13  A    between atoms: C_29  and  O_30
REMARK                            x       y       z     vdW  Elec       q    Type
REMARK                         _______ _______ _______ _____ _____    ______ ____
ROOT
ATOM      1  C   UNL     1       3.945   6.632  18.118  0.00  0.00    +0.000 C 
ATOM      2  C   UNL     1       4.228   5.564  19.192  0.00  0.00    +0.000 C 
ATOM      3  O   UNL     1       5.607   5.699  19.587  0.00  0.00    +0.000 OA
ATOM      4  C   UNL     1       6.598   5.582  18.528  0.00  0.00    +0.000 C 
ATOM      5  C   UNL     1       6.376   6.605  17.374  0.00  0.00    +0.000 C 
ATOM      6  C   UNL     1       4.908   6.359  16.932  0.00  0.00    +0.000 C 
ENDROOT
BRANCH   1   7
ATOM      7  N   UNL     1       2.529   6.772  17.651  0.00  0.00    +0.000 NA
ATOM      8  H   UNL     1       2.533   6.702  16.637  0.00  0.00    +0.000 HD
BRANCH   7  10
ATOM      9  C   UNL     1       1.065   9.986  18.397  0.00  0.00    +0.000 C 
ATOM     10  P   UNL     1       1.807   8.356  18.020  0.00  0.00    +0.000 P 
ATOM     11  O   UNL     1       3.129   9.137  17.809  0.00  0.00    +0.000 OA
BRANCH  10  12
ATOM     12  O   UNL     1       1.965   8.039  19.622  0.00  0.00    +0.000 OA
ATOM     13  H   UNL     1       2.024   8.912  20.057  0.00  0.00    +0.000 HD
ENDBRANCH  10  12
ENDBRANCH   7  10
ENDBRANCH   1   7
BRANCH   6  14
ATOM     14  O   UNL     1       4.518   7.154  15.814  0.00  0.00    +0.000 OA
ATOM     15  H   UNL     1       3.546   7.326  15.969  0.00  0.00    +0.000 HD
ENDBRANCH   6  14
BRANCH   2  16
ATOM     16  O   UNL     1       3.422   5.733  20.373  0.00  0.00    +0.000 OA
BRANCH  16  17
ATOM     17  C   UNL     1       2.518   4.653  20.601  0.00  0.00    +0.000 C 
BRANCH  17  18
ATOM     18  C   UNL     1       2.816   3.440  19.778  0.00  0.00    +0.000 A 
ATOM     19  C   UNL     1       2.103   3.228  18.584  0.00  0.00    +0.000 A 
ATOM     20  C   UNL     1       2.401   2.144  17.766  0.00  0.00    +0.000 A 
ATOM     21  C   UNL     1       3.418   1.274  18.148  0.00  0.00    +0.000 A 
ATOM     22  C   UNL     1       4.129   1.481  19.333  0.00  0.00    +0.000 A 
ATOM     23  C   UNL     1       3.829   2.557  20.148  0.00  0.00    +0.000 A 
ENDBRANCH  17  18
ENDBRANCH  16  17
ENDBRANCH   2  16
BRANCH   4  24
ATOM     24  C   UNL     1       7.945   5.753  19.239  0.00  0.00    +0.000 C 
BRANCH  24  25
ATOM     25  O   UNL     1       7.785   5.413  20.622  0.00  0.00    +0.000 OA
ATOM     26  H   UNL     1       6.821   5.281  20.745  0.00  0.00    +0.000 HD
ENDBRANCH  24  25
ENDBRANCH   4  24
BRANCH   5  27
ATOM     27  O   UNL     1       7.331   6.467  16.269  0.00  0.00    +0.000 OA
BRANCH  27  28
ATOM     28  C   UNL     1       7.425   5.096  15.815  0.00  0.00    +0.000 C 
BRANCH  28  29
ATOM     29  C   UNL     1       7.081   4.682  14.401  0.00  0.00    +0.000 A 
ATOM     30  C   UNL     1       5.924   3.881  14.227  0.00  0.00    +0.000 A 
ATOM     31  C   UNL     1       5.514   3.434  12.981  0.00  0.00    +0.000 A 
ATOM     32  C   UNL     1       6.252   3.818  11.857  0.00  0.00    +0.000 A 
ATOM     33  C   UNL     1       7.374   4.631  12.009  0.00  0.00    +0.000 A 
ATOM     34  C   UNL     1       7.799   5.068  13.275  0.00  0.00    +0.000 A 
ENDBRANCH  28  29
ENDBRANCH  27  28
ENDBRANCH   5  27
TORSDOF 12
ENDMDL
MODEL 4
REMARK VINA RESULT:      -7.2      1.685      8.713
REMARK  Name = 
REMARK  13 active torsions:
REMARK  status: ('A' for Active; 'I' for Inactive)
REMARK    1  A    between atoms: C_1  and  P_2
REMARK    2  A    between atoms: P_2  and  O_4
REMARK    3  A    between atoms: P_2  and  N_5
REMARK    4  A    between atoms: N_5  and  C_6
REMARK    5  A    between atoms: C_7  and  O_8
REMARK    6  A    between atoms: O_8  and  C_9
REMARK    7  A    between atoms: C_9  and  C_10
REMARK    8  A    between atoms: C_17  and  C_18
REMARK    9  A    between atoms: C_18  and  O_19
REMARK   10  A    between atoms: C_20  and  O_21
REMARK   11  A    between atoms: O_21  and  C_22
REMARK   12  A    between atoms: C_22  and  C_23
REMARK   13  A    between atoms: C_29  and  O_30
REMARK                            x       y       z     vdW  Elec       q    Type
REMARK                         _______ _______ _______ _____ _____    ______ ____
ROOT
ATOM      1  C   UNL     1       2.669   5.039  17.992  0.00  0.00    +0.000 C 
ATOM      2  C   UNL     1       3.095   6.244  18.853  0.00  0.00    +0.000 C 
ATOM      3  O   UNL     1       4.103   6.967  18.120  0.00  0.00    +0.000 OA
ATOM      4  C   UNL     1       5.287   6.215  17.732  0.00  0.00    +0.000 C 
ATOM      5  C   UNL     1       4.953   4.954  16.881  0.00  0.00    +0.000 C 
ATOM      6  C   UNL     1       3.933   4.172  17.752  0.00  0.00    +0.000 C 
ENDROOT
BRANCH   1   7
ATOM      7  N   UNL     1       1.526   4.212  18.496  0.00  0.00    +0.000 NA
ATOM      8  H   UNL     1       0.731   4.833  18.622  0.00  0.00    +0.000 HD
BRANCH   7  10
ATOM      9  C   UNL     1       2.126   2.726  21.731  0.00  0.00    +0.000 C 
ATOM     10  P   UNL     1       1.821   3.480  20.091  0.00  0.00    +0.000 P 
ATOM     11  O   UNL     1       2.055   2.057  19.523  0.00  0.00    +0.000 OA
BRANCH  10  12
ATOM     12  O   UNL     1       0.201   3.382  20.330  0.00  0.00    +0.000 OA
ATOM     13  H   UNL     1      -0.184   4.122  19.823  0.00  0.00    +0.000 HD
ENDBRANCH  10  12
ENDBRANCH   7  10
ENDBRANCH   1   7
BRANCH   6  14
ATOM     14  O   UNL     1       3.548   2.924  17.181  0.00  0.00    +0.000 OA
ATOM     15  H   UNL     1       4.320   2.678  16.597  0.00  0.00    +0.000 HD
ENDBRANCH   6  14
BRANCH   2  16
ATOM     16  O   UNL     1       2.013   7.155  19.115  0.00  0.00    +0.000 OA
BRANCH  16  17
ATOM     17  C   UNL     1       1.906   7.531  20.487  0.00  0.00    +0.000 C 
BRANCH  17  18
ATOM     18  C   UNL     1       1.037   8.728  20.713  0.00  0.00    +0.000 A 
ATOM     19  C   UNL     1       0.461   8.930  21.980  0.00  0.00    +0.000 A 
ATOM     20  C   UNL     1      -0.299  10.064  22.239  0.00  0.00    +0.000 A 
ATOM     21  C   UNL     1      -0.477  10.998  21.223  0.00  0.00    +0.000 A 
ATOM     22  C   UNL     1       0.094  10.803  19.963  0.00  0.00    +0.000 A 
ATOM     23  C   UNL     1       0.846   9.671  19.705  0.00  0.00    +0.000 A 
ENDBRANCH  17  18
ENDBRANCH  16  17
ENDBRANCH   2  16
BRANCH   4  24
ATOM     24  C   UNL     1       6.165   7.231  16.994  0.00  0.00    +0.000 C 
BRANCH  24  25
ATOM     25  O   UNL     1       7.494   6.706  16.890  0.00  0.00    +0.000 OA
ATOM     26  H   UNL     1       7.537   6.288  16.004  0.00  0.00    +0.000 HD
ENDBRANCH  24  25
ENDBRANCH   4  24
BRANCH   5  27
ATOM     27  O   UNL     1       6.129   4.150  16.528  0.00  0.00    +0.000 OA
BRANCH  27  28
ATOM     28  C   UNL     1       5.924   3.420  15.295  0.00  0.00    +0.000 C 
BRANCH  28  29
ATOM     29  C   UNL     1       6.455   3.906  13.965  0.00  0.00    +0.000 A 
ATOM     30  C   UNL     1       7.391   4.972  13.993  0.00  0.00    +0.000 A 
ATOM     31  C   UNL     1       7.939   5.506  12.839  0.00  0.00    +0.000 A 
ATOM     32  C   UNL     1       7.580   4.949  11.608  0.00  0.00    +0.000 A 
ATOM     33  C   UNL     1       6.685   3.881  11.565  0.00  0.00    +0.000 A 
ATOM     34  C   UNL     1       6.116   3.353  12.736  0.00  0.00    +0.000 A 
ENDBRANCH  28  29
ENDBRANCH  27  28
ENDBRANCH   5  27
TORSDOF 12
ENDMDL
MODEL 5
REMARK VINA RESULT:      -7.2      1.903      2.709
REMARK  Name = 
REMARK  13 active torsions:
REMARK  status: ('A' for Active; 'I' for Inactive)
REMARK    1  A    between atoms: C_1  and  P_2
REMARK    2  A    between atoms: P_2  and  O_4
REMARK    3  A    between atoms: P_2  and  N_5
REMARK    4  A    between atoms: N_5  and  C_6
REMARK    5  A    between atoms: C_7  and  O_8
REMARK    6  A    between atoms: O_8  and  C_9
REMARK    7  A    between atoms: C_9  and  C_10
REMARK    8  A    between atoms: C_17  and  C_18
REMARK    9  A    between atoms: C_18  and  O_19
REMARK   10  A    between atoms: C_20  and  O_21
REMARK   11  A    between atoms: O_21  and  C_22
REMARK   12  A    between atoms: C_22  and  C_23
REMARK   13  A    between atoms: C_29  and  O_30
REMARK                            x       y       z     vdW  Elec       q    Type
REMARK                         _______ _______ _______ _____ _____    ______ ____
ROOT
ATOM      1  C   UNL     1       3.647   5.498  19.180  0.00  0.00    +0.000 C 
ATOM      2  C   UNL     1       3.448   5.758  17.674  0.00  0.00    +0.000 C 
ATOM      3  O   UNL     1       3.206   7.168  17.505  0.00  0.00    +0.000 OA
ATOM      4  C   UNL     1       2.079   7.725  18.237  0.00  0.00    +0.000 C 
ATOM      5  C   UNL     1       2.174   7.483  19.773  0.00  0.00    +0.000 C 
ATOM      6  C   UNL     1       2.347   5.945  19.901  0.00  0.00    +0.000 C 
ENDROOT
BRANCH   1   7
ATOM      7  N   UNL     1       4.047   4.113  19.586  0.00  0.00    +0.000 NA
ATOM      8  H   UNL     1       4.892   3.876  19.072  0.00  0.00    +0.000 HD
BRANCH   7  10
ATOM      9  C   UNL     1       1.627   1.585  18.702  0.00  0.00    +0.000 C 
ATOM     10  P   UNL     1       2.855   2.866  19.150  0.00  0.00    +0.000 P 
ATOM     11  O   UNL     1       2.521   2.507  20.620  0.00  0.00    +0.000 OA
BRANCH  10  12
ATOM     12  O   UNL     1       4.079   1.799  18.912  0.00  0.00    +0.000 OA
ATOM     13  H   UNL     1       4.901   2.313  19.026  0.00  0.00    +0.000 HD
ENDBRANCH  10  12
ENDBRANCH   7  10
ENDBRANCH   1   7
BRANCH   6  14
ATOM     14  O   UNL     1       2.378   5.495  21.253  0.00  0.00    +0.000 OA
ATOM     15  H   UNL     1       1.419   5.322  21.471  0.00  0.00    +0.000 HD
ENDBRANCH   6  14
BRANCH   2  16
ATOM     16  O   UNL     1       4.608   5.421  16.891  0.00  0.00    +0.000 OA
BRANCH  16  17
ATOM     17  C   UNL     1       5.319   6.561  16.411  0.00  0.00    +0.000 C 
BRANCH  17  18
ATOM     18  C   UNL     1       6.502   6.926  17.251  0.00  0.00    +0.000 A 
ATOM     19  C   UNL     1       7.028   8.228  17.170  0.00  0.00    +0.000 A 
ATOM     20  C   UNL     1       8.086   8.615  17.984  0.00  0.00    +0.000 A 
ATOM     21  C   UNL     1       8.613   7.693  18.883  0.00  0.00    +0.000 A 
ATOM     22  C   UNL     1       8.094   6.399  18.968  0.00  0.00    +0.000 A 
ATOM     23  C   UNL     1       7.043   6.013  18.155  0.00  0.00    +0.000 A 
ENDBRANCH  17  18
ENDBRANCH  16  17
ENDBRANCH   2  16
BRANCH   4  24
ATOM     24  C   UNL     1       2.065   9.209  17.856  0.00  0.00    +0.000 C 
BRANCH  24  25
ATOM     25  O   UNL     1       0.711   9.676  17.856  0.00  0.00    +0.000 OA
ATOM     26  H   UNL     1       0.185   8.939  18.234  0.00  0.00    +0.000 HD
ENDBRANCH  24  25
ENDBRANCH   4  24
BRANCH   5  27
ATOM     27  O   UNL     1       1.018   7.986  20.524  0.00  0.00    +0.000 OA
BRANCH  27  28
ATOM     28  C   UNL     1       1.400   9.025  21.456  0.00  0.00    +0.000 C 
BRANCH  28  29
ATOM     29  C   UNL     1       0.502  10.199  21.777  0.00  0.00    +0.000 A 
ATOM     30  C   UNL     1      -0.450  10.021  22.812  0.00  0.00    +0.000 A 
ATOM     31  C   UNL     1      -1.332  11.021  23.188  0.00  0.00    +0.000 A 
ATOM     32  C   UNL     1      -1.252  12.260  22.543  0.00  0.00    +0.000 A 
ATOM     33  C   UNL     1      -0.301  12.461  21.545  0.00  0.00    +0.000 A 
ATOM     34  C   UNL     1       0.580  11.439  21.152  0.00  0.00    +0.000 A 
ENDBRANCH  28  29
ENDBRANCH  27  28
ENDBRANCH   5  27
TORSDOF 12
ENDMDL
MODEL 6
REMARK VINA RESULT:      -7.1      2.859      8.250
REMARK  Name = 
REMARK  13 active torsions:
REMARK  status: ('A' for Active; 'I' for Inactive)
REMARK    1  A    between atoms: C_1  and  P_2
REMARK    2  A    between atoms: P_2  and  O_4
REMARK    3  A    between atoms: P_2  and  N_5
REMARK    4  A    between atoms: N_5  and  C_6
REMARK    5  A    between atoms: C_7  and  O_8
REMARK    6  A    between atoms: O_8  and  C_9
REMARK    7  A    between atoms: C_9  and  C_10
REMARK    8  A    between atoms: C_17  and  C_18
REMARK    9  A    between atoms: C_18  and  O_19
REMARK   10  A    between atoms: C_20  and  O_21
REMARK   11  A    between atoms: O_21  and  C_22
REMARK   12  A    between atoms: C_22  and  C_23
REMARK   13  A    between atoms: C_29  and  O_30
REMARK                            x       y       z     vdW  Elec       q    Type
REMARK                         _______ _______ _______ _____ _____    ______ ____
ROOT
ATOM      1  C   UNL     1       3.954   6.583  18.104  0.00  0.00    +0.000 C 
ATOM      2  C   UNL     1       4.236   5.559  19.220  0.00  0.00    +0.000 C 
ATOM      3  O   UNL     1       5.614   5.711  19.611  0.00  0.00    +0.000 OA
ATOM      4  C   UNL     1       6.607   5.555  18.559  0.00  0.00    +0.000 C 
ATOM      5  C   UNL     1       6.385   6.531  17.366  0.00  0.00    +0.000 C 
ATOM      6  C   UNL     1       4.919   6.265  16.931  0.00  0.00    +0.000 C 
ENDROOT
BRANCH   1   7
ATOM      7  N   UNL     1       2.538   6.702  17.629  0.00  0.00    +0.000 NA
ATOM      8  H   UNL     1       2.546   6.613  16.616  0.00  0.00    +0.000 HD
BRANCH   7  10
ATOM      9  C   UNL     1       1.044   9.917  18.309  0.00  0.00    +0.000 C 
ATOM     10  P   UNL     1       1.801   8.287  17.965  0.00  0.00    +0.000 P 
ATOM     11  O   UNL     1       3.080   9.086  17.610  0.00  0.00    +0.000 OA
BRANCH  10  12
ATOM     12  O   UNL     1       2.090   8.066  19.565  0.00  0.00    +0.000 OA
ATOM     13  H   UNL     1       1.954   8.940  19.979  0.00  0.00    +0.000 HD
ENDBRANCH  10  12
ENDBRANCH   7  10
ENDBRANCH   1   7
BRANCH   6  14
ATOM     14  O   UNL     1       4.529   7.015  15.782  0.00  0.00    +0.000 OA
ATOM     15  H   UNL     1       5.392   7.210  15.319  0.00  0.00    +0.000 HD
ENDBRANCH   6  14
BRANCH   2  16
ATOM     16  O   UNL     1       3.428   5.773  20.391  0.00  0.00    +0.000 OA
BRANCH  16  17
ATOM     17  C   UNL     1       2.963   4.563  20.989  0.00  0.00    +0.000 C 
BRANCH  17  18
ATOM     18  C   UNL     1       2.464   3.560  19.997  0.00  0.00    +0.000 A 
ATOM     19  C   UNL     1       3.350   2.589  19.496  0.00  0.00    +0.000 A 
ATOM     20  C   UNL     1       2.901   1.606  18.622  0.00  0.00    +0.000 A 
ATOM     21  C   UNL     1       1.559   1.597  18.254  0.00  0.00    +0.000 A 
ATOM     22  C   UNL     1       0.675   2.559  18.750  0.00  0.00    +0.000 A 
ATOM     23  C   UNL     1       1.124   3.540  19.616  0.00  0.00    +0.000 A 
ENDBRANCH  17  18
ENDBRANCH  16  17
ENDBRANCH   2  16
BRANCH   4  24
ATOM     24  C   UNL     1       7.952   5.755  19.265  0.00  0.00    +0.000 C 
BRANCH  24  25
ATOM     25  O   UNL     1       7.812   5.388  20.643  0.00  0.00    +0.000 OA
ATOM     26  H   UNL     1       8.448   4.653  20.780  0.00  0.00    +0.000 HD
ENDBRANCH  24  25
ENDBRANCH   4  24
BRANCH   5  27
ATOM     27  O   UNL     1       7.342   6.351  16.268  0.00  0.00    +0.000 OA
BRANCH  27  28
ATOM     28  C   UNL     1       7.379   4.977  15.814  0.00  0.00    +0.000 C 
BRANCH  28  29
ATOM     29  C   UNL     1       6.948   4.570  14.422  0.00  0.00    +0.000 A 
ATOM     30  C   UNL     1       7.751   5.013  13.341  0.00  0.00    +0.000 A 
ATOM     31  C   UNL     1       7.451   4.710  12.023  0.00  0.00    +0.000 A 
ATOM     32  C   UNL     1       6.335   3.911  11.758  0.00  0.00    +0.000 A 
ATOM     33  C   UNL     1       5.553   3.441  12.812  0.00  0.00    +0.000 A 
ATOM     34  C   UNL     1       5.848   3.765  14.147  0.00  0.00    +0.000 A 
ENDBRANCH  28  29
ENDBRANCH  27  28
ENDBRANCH   5  27
TORSDOF 12
ENDMDL
MODEL 7
REMARK VINA RESULT:      -7.0      1.723      8.629
REMARK  Name = 
REMARK  13 active torsions:
REMARK  status: ('A' for Active; 'I' for Inactive)
REMARK    1  A    between atoms: C_1  and  P_2
REMARK    2  A    between atoms: P_2  and  O_4
REMARK    3  A    between atoms: P_2  and  N_5
REMARK    4  A    between atoms: N_5  and  C_6
REMARK    5  A    between atoms: C_7  and  O_8
REMARK    6  A    between atoms: O_8  and  C_9
REMARK    7  A    between atoms: C_9  and  C_10
REMARK    8  A    between atoms: C_17  and  C_18
REMARK    9  A    between atoms: C_18  and  O_19
REMARK   10  A    between atoms: C_20  and  O_21
REMARK   11  A    between atoms: O_21  and  C_22
REMARK   12  A    between atoms: C_22  and  C_23
REMARK   13  A    between atoms: C_29  and  O_30
REMARK                            x       y       z     vdW  Elec       q    Type
REMARK                         _______ _______ _______ _____ _____    ______ ____
ROOT
ATOM      1  C   UNL     1       2.878   5.013  18.013  0.00  0.00    +0.000 C 
ATOM      2  C   UNL     1       3.215   6.207  18.928  0.00  0.00    +0.000 C 
ATOM      3  O   UNL     1       4.256   6.966  18.285  0.00  0.00    +0.000 OA
ATOM      4  C   UNL     1       5.481   6.248  17.968  0.00  0.00    +0.000 C 
ATOM      5  C   UNL     1       5.238   5.000  17.069  0.00  0.00    +0.000 C 
ATOM      6  C   UNL     1       4.175   4.178  17.847  0.00  0.00    +0.000 C 
ENDROOT
BRANCH   1   7
ATOM      7  N   UNL     1       1.721   4.151  18.414  0.00  0.00    +0.000 NA
ATOM      8  H   UNL     1       0.896   4.745  18.455  0.00  0.00    +0.000 HD
BRANCH   7  10
ATOM      9  C   UNL     1       2.053   2.720  21.712  0.00  0.00    +0.000 C 
ATOM     10  P   UNL     1       1.884   3.446  20.040  0.00  0.00    +0.000 P 
ATOM     11  O   UNL     1       2.049   1.996  19.521  0.00  0.00    +0.000 OA
BRANCH  10  12
ATOM     12  O   UNL     1       0.250   3.463  20.196  0.00  0.00    +0.000 OA
ATOM     13  H   UNL     1      -0.100   3.481  19.285  0.00  0.00    +0.000 HD
ENDBRANCH  10  12
ENDBRANCH   7  10
ENDBRANCH   1   7
BRANCH   6  14
ATOM     14  O   UNL     1       3.860   2.935  17.223  0.00  0.00    +0.000 OA
ATOM     15  H   UNL     1       2.865   2.957  17.133  0.00  0.00    +0.000 HD
ENDBRANCH   6  14
BRANCH   2  16
ATOM     16  O   UNL     1       2.096   7.089  19.129  0.00  0.00    +0.000 OA
BRANCH  16  17
ATOM     17  C   UNL     1       1.864   7.407  20.500  0.00  0.00    +0.000 C 
BRANCH  17  18
ATOM     18  C   UNL     1       1.069   8.659  20.697  0.00  0.00    +0.000 A 
ATOM     19  C   UNL     1       0.834   9.504  19.598  0.00  0.00    +0.000 A 
ATOM     20  C   UNL     1       0.046  10.641  19.736  0.00  0.00    +0.000 A 
ATOM     21  C   UNL     1      -0.508  10.927  20.980  0.00  0.00    +0.000 A 
ATOM     22  C   UNL     1      -0.279  10.090  22.075  0.00  0.00    +0.000 A 
ATOM     23  C   UNL     1       0.509   8.961  21.938  0.00  0.00    +0.000 A 
ENDBRANCH  17  18
ENDBRANCH  16  17
ENDBRANCH   2  16
BRANCH   4  24
ATOM     24  C   UNL     1       6.387   7.298  17.317  0.00  0.00    +0.000 C 
BRANCH  24  25
ATOM     25  O   UNL     1       7.667   7.271  17.962  0.00  0.00    +0.000 OA
ATOM     26  H   UNL     1       8.323   7.296  17.233  0.00  0.00    +0.000 HD
ENDBRANCH  24  25
ENDBRANCH   4  24
BRANCH   5  27
ATOM     27  O   UNL     1       6.453   4.229  16.785  0.00  0.00    +0.000 OA
BRANCH  27  28
ATOM     28  C   UNL     1       7.177   4.772  15.656  0.00  0.00    +0.000 C 
BRANCH  28  29
ATOM     29  C   UNL     1       6.834   4.421  14.225  0.00  0.00    +0.000 A 
ATOM     30  C   UNL     1       7.663   4.963  13.210  0.00  0.00    +0.000 A 
ATOM     31  C   UNL     1       7.442   4.718  11.865  0.00  0.00    +0.000 A 
ATOM     32  C   UNL     1       6.383   3.880  11.503  0.00  0.00    +0.000 A 
ATOM     33  C   UNL     1       5.578   3.314  12.490  0.00  0.00    +0.000 A 
ATOM     34  C   UNL     1       5.793   3.579  13.853  0.00  0.00    +0.000 A 
ENDBRANCH  28  29
ENDBRANCH  27  28
ENDBRANCH   5  27
TORSDOF 12
ENDMDL
MODEL 8
REMARK VINA RESULT:      -7.0      1.696      8.700
REMARK  Name = 
REMARK  13 active torsions:
REMARK  status: ('A' for Active; 'I' for Inactive)
REMARK    1  A    between atoms: C_1  and  P_2
REMARK    2  A    between atoms: P_2  and  O_4
REMARK    3  A    between atoms: P_2  and  N_5
REMARK    4  A    between atoms: N_5  and  C_6
REMARK    5  A    between atoms: C_7  and  O_8
REMARK    6  A    between atoms: O_8  and  C_9
REMARK    7  A    between atoms: C_9  and  C_10
REMARK    8  A    between atoms: C_17  and  C_18
REMARK    9  A    between atoms: C_18  and  O_19
REMARK   10  A    between atoms: C_20  and  O_21
REMARK   11  A    between atoms: O_21  and  C_22
REMARK   12  A    between atoms: C_22  and  C_23
REMARK   13  A    between atoms: C_29  and  O_30
REMARK                            x       y       z     vdW  Elec       q    Type
REMARK                         _______ _______ _______ _____ _____    ______ ____
ROOT
ATOM      1  C   UNL     1       2.855   5.069  18.006  0.00  0.00    +0.000 C 
ATOM      2  C   UNL     1       3.226   6.236  18.940  0.00  0.00    +0.000 C 
ATOM      3  O   UNL     1       4.264   6.998  18.293  0.00  0.00    +0.000 OA
ATOM      4  C   UNL     1       5.473   6.272  17.934  0.00  0.00    +0.000 C 
ATOM      5  C   UNL     1       5.194   5.048  17.011  0.00  0.00    +0.000 C 
ATOM      6  C   UNL     1       4.138   4.221  17.793  0.00  0.00    +0.000 C 
ENDROOT
BRANCH   1   7
ATOM      7  N   UNL     1       1.696   4.212  18.412  0.00  0.00    +0.000 NA
ATOM      8  H   UNL     1       0.881   4.816  18.487  0.00  0.00    +0.000 HD
BRANCH   7  10
ATOM      9  C   UNL     1       2.084   2.692  21.663  0.00  0.00    +0.000 C 
ATOM     10  P   UNL     1       1.886   3.463  20.015  0.00  0.00    +0.000 P 
ATOM     11  O   UNL     1       2.046   2.028  19.453  0.00  0.00    +0.000 OA
BRANCH  10  12
ATOM     12  O   UNL     1       0.255   3.472  20.198  0.00  0.00    +0.000 OA
ATOM     13  H   UNL     1       0.001   2.537  20.320  0.00  0.00    +0.000 HD
ENDBRANCH  10  12
ENDBRANCH   7  10
ENDBRANCH   1   7
BRANCH   6  14
ATOM     14  O   UNL     1       3.794   2.998  17.148  0.00  0.00    +0.000 OA
ATOM     15  H   UNL     1       4.217   3.073  16.247  0.00  0.00    +0.000 HD
ENDBRANCH   6  14
BRANCH   2  16
ATOM     16  O   UNL     1       2.124   7.128  19.186  0.00  0.00    +0.000 OA
BRANCH  16  17
ATOM     17  C   UNL     1       1.873   7.352  20.572  0.00  0.00    +0.000 C 
BRANCH  17  18
ATOM     18  C   UNL     1       1.080   8.592  20.843  0.00  0.00    +0.000 A 
ATOM     19  C   UNL     1       0.653   8.861  22.156  0.00  0.00    +0.000 A 
ATOM     20  C   UNL     1      -0.031  10.035  22.450  0.00  0.00    +0.000 A 
ATOM     21  C   UNL     1      -0.282  10.941  21.424  0.00  0.00    +0.000 A 
ATOM     22  C   UNL     1       0.141  10.678  20.118  0.00  0.00    +0.000 A 
ATOM     23  C   UNL     1       0.818   9.508  19.826  0.00  0.00    +0.000 A 
ENDBRANCH  17  18
ENDBRANCH  16  17
ENDBRANCH   2  16
BRANCH   4  24
ATOM     24  C   UNL     1       6.378   7.325  17.288  0.00  0.00    +0.000 C 
BRANCH  24  25
ATOM     25  O   UNL     1       7.648   7.316  17.953  0.00  0.00    +0.000 OA
ATOM     26  H   UNL     1       7.839   6.370  18.130  0.00  0.00    +0.000 HD
ENDBRANCH  24  25
ENDBRANCH   4  24
BRANCH   5  27
ATOM     27  O   UNL     1       6.393   4.269  16.684  0.00  0.00    +0.000 OA
BRANCH  27  28
ATOM     28  C   UNL     1       7.152   4.881  15.615  0.00  0.00    +0.000 C 
BRANCH  28  29
ATOM     29  C   UNL     1       6.945   4.519  14.161  0.00  0.00    +0.000 A 
ATOM     30  C   UNL     1       5.853   3.667  13.856  0.00  0.00    +0.000 A 
ATOM     31  C   UNL     1       5.570   3.261  12.563  0.00  0.00    +0.000 A 
ATOM     32  C   UNL     1       6.372   3.737  11.521  0.00  0.00    +0.000 A 
ATOM     33  C   UNL     1       7.430   4.600  11.801  0.00  0.00    +0.000 A 
ATOM     34  C   UNL     1       7.727   4.996  13.116  0.00  0.00    +0.000 A 
ENDBRANCH  28  29
ENDBRANCH  27  28
ENDBRANCH   5  27
TORSDOF 12
ENDMDL
MODEL 9
REMARK VINA RESULT:      -6.9      2.823      8.148
REMARK  Name = 
REMARK  13 active torsions:
REMARK  status: ('A' for Active; 'I' for Inactive)
REMARK    1  A    between atoms: C_1  and  P_2
REMARK    2  A    between atoms: P_2  and  O_4
REMARK    3  A    between atoms: P_2  and  N_5
REMARK    4  A    between atoms: N_5  and  C_6
REMARK    5  A    between atoms: C_7  and  O_8
REMARK    6  A    between atoms: O_8  and  C_9
REMARK    7  A    between atoms: C_9  and  C_10
REMARK    8  A    between atoms: C_17  and  C_18
REMARK    9  A    between atoms: C_18  and  O_19
REMARK   10  A    between atoms: C_20  and  O_21
REMARK   11  A    between atoms: O_21  and  C_22
REMARK   12  A    between atoms: C_22  and  C_23
REMARK   13  A    between atoms: C_29  and  O_30
REMARK                            x       y       z     vdW  Elec       q    Type
REMARK                         _______ _______ _______ _____ _____    ______ ____
ROOT
ATOM      1  C   UNL     1       3.759   6.799  18.095  0.00  0.00    +0.000 C 
ATOM      2  C   UNL     1       3.994   5.706  19.156  0.00  0.00    +0.000 C 
ATOM      3  O   UNL     1       5.366   5.803  19.583  0.00  0.00    +0.000 OA
ATOM      4  C   UNL     1       6.378   5.683  18.545  0.00  0.00    +0.000 C 
ATOM      5  C   UNL     1       6.205   6.730  17.405  0.00  0.00    +0.000 C 
ATOM      6  C   UNL     1       4.742   6.525  16.926  0.00  0.00    +0.000 C 
ENDROOT
BRANCH   1   7
ATOM      7  N   UNL     1       2.357   6.978  17.599  0.00  0.00    +0.000 NA
ATOM      8  H   UNL     1       2.386   6.949  16.583  0.00  0.00    +0.000 HD
BRANCH   7  10
ATOM      9  C   UNL     1       0.919  10.180  18.439  0.00  0.00    +0.000 C 
ATOM     10  P   UNL     1       1.648   8.556  18.014  0.00  0.00    +0.000 P 
ATOM     11  O   UNL     1       2.922   9.357  17.642  0.00  0.00    +0.000 OA
BRANCH  10  12
ATOM     12  O   UNL     1       1.989   8.278  19.595  0.00  0.00    +0.000 OA
ATOM     13  H   UNL     1       2.285   7.349  19.640  0.00  0.00    +0.000 HD
ENDBRANCH  10  12
ENDBRANCH   7  10
ENDBRANCH   1   7
BRANCH   6  14
ATOM     14  O   UNL     1       4.395   7.347  15.814  0.00  0.00    +0.000 OA
ATOM     15  H   UNL     1       5.277   7.644  15.450  0.00  0.00    +0.000 HD
ENDBRANCH   6  14
BRANCH   2  16
ATOM     16  O   UNL     1       3.165   5.872  20.321  0.00  0.00    +0.000 OA
BRANCH  16  17
ATOM     17  C   UNL     1       2.333   4.745  20.591  0.00  0.00    +0.000 C 
BRANCH  17  18
ATOM     18  C   UNL     1       2.676   3.540  19.773  0.00  0.00    +0.000 A 
ATOM     19  C   UNL     1       3.753   2.726  20.167  0.00  0.00    +0.000 A 
ATOM     20  C   UNL     1       4.056   1.566  19.464  0.00  0.00    +0.000 A 
ATOM     21  C   UNL     1       3.274   1.222  18.366  0.00  0.00    +0.000 A 
ATOM     22  C   UNL     1       2.202   2.027  17.971  0.00  0.00    +0.000 A 
ATOM     23  C   UNL     1       1.903   3.184  18.669  0.00  0.00    +0.000 A 
ENDBRANCH  17  18
ENDBRANCH  16  17
ENDBRANCH   2  16
BRANCH   4  24
ATOM     24  C   UNL     1       7.712   5.811  19.289  0.00  0.00    +0.000 C 
BRANCH  24  25
ATOM     25  O   UNL     1       8.344   7.037  18.901  0.00  0.00    +0.000 OA
ATOM     26  H   UNL     1       9.266   6.791  18.675  0.00  0.00    +0.000 HD
ENDBRANCH  24  25
ENDBRANCH   4  24
BRANCH   5  27
ATOM     27  O   UNL     1       7.181   6.590  16.319  0.00  0.00    +0.000 OA
BRANCH  27  28
ATOM     28  C   UNL     1       7.308   5.213  15.891  0.00  0.00    +0.000 C 
BRANCH  28  29
ATOM     29  C   UNL     1       7.056   4.779  14.464  0.00  0.00    +0.000 A 
ATOM     30  C   UNL     1       5.977   3.886  14.241  0.00  0.00    +0.000 A 
ATOM     31  C   UNL     1       5.657   3.412  12.980  0.00  0.00    +0.000 A 
ATOM     32  C   UNL     1       6.405   3.861  11.887  0.00  0.00    +0.000 A 
ATOM     33  C   UNL     1       7.448   4.764  12.085  0.00  0.00    +0.000 A 
ATOM     34  C   UNL     1       7.784   5.228  13.369  0.00  0.00    +0.000 A 
ENDBRANCH  28  29
ENDBRANCH  27  28
ENDBRANCH   5  27
TORSDOF 12
ENDMDL
