MODEL 1
REMARK VINA RESULT:      -8.0      0.000      0.000
REMARK  Name = 
REMARK  5 active torsions:
REMARK  status: ('A' for Active; 'I' for Inactive)
REMARK    1  A    between atoms: C_1  and  C_2
REMARK    2  A    between atoms: C_4  and  O_5
REMARK    3  A    between atoms: C_10  and  C_11
REMARK    4  A    between atoms: C_14  and  C_15
REMARK    5  A    between atoms: C_15  and  O_16
REMARK                            x       y       z     vdW  Elec       q    Type
REMARK                         _______ _______ _______ _____ _____    ______ ____
ROOT
ATOM      1  C   UNL     1       7.390   7.625  17.428  0.00  0.00    +0.000 C 
ATOM      2  C   UNL     1       6.442   6.488  17.199  0.00  0.00    +0.000 A 
ATOM      3  C   UNL     1       6.820   5.371  16.481  0.00  0.00    +0.000 A 
ATOM      4  C   UNL     1       5.892   4.347  16.356  0.00  0.00    +0.000 A 
ATOM      5  C   UNL     1       4.612   4.446  16.933  0.00  0.00    +0.000 A 
ATOM      6  C   UNL     1       3.681   3.393  16.844  0.00  0.00    +0.000 A 
ATOM      7  C   UNL     1       2.421   3.514  17.405  0.00  0.00    +0.000 A 
ATOM      8  C   UNL     1       2.063   4.710  18.015  0.00  0.00    +0.000 A 
ATOM      9  C   UNL     1       2.959   5.802  18.101  0.00  0.00    +0.000 A 
ATOM     10  C   UNL     1       4.277   5.646  17.597  0.00  0.00    +0.000 A 
ATOM     11  N   UNL     1       5.205   6.626  17.730  0.00  0.00    +0.000 NA
ENDROOT
BRANCH   9  12
ATOM     12  C   UNL     1       2.452   7.103  18.640  0.00  0.00    +0.000 A 
ATOM     13  C   UNL     1       2.114   7.270  19.997  0.00  0.00    +0.000 A 
ATOM     14  C   UNL     1       1.502   8.443  20.465  0.00  0.00    +0.000 A 
ATOM     15  C   UNL     1       1.233   9.507  19.598  0.00  0.00    +0.000 A 
ATOM     16  C   UNL     1       1.593   9.372  18.255  0.00  0.00    +0.000 A 
ATOM     17  C   UNL     1       2.185   8.191  17.790  0.00  0.00    +0.000 A 
BRANCH  15  18
ATOM     18  C   UNL     1       0.479  10.718  20.083  0.00  0.00    +0.000 C 
BRANCH  18  19
ATOM     19  O   UNL     1       1.030  11.246  21.283  0.00  0.00    +0.000 OA
ATOM     20  H   UNL     1       0.279  11.529  21.834  0.00  0.00    +0.000 HD
ENDBRANCH  18  19
ENDBRANCH  15  18
ENDBRANCH   9  12
BRANCH   4  21
ATOM     21  O   UNL     1       6.225   3.220  15.646  0.00  0.00    +0.000 OA
ATOM     22  H   UNL     1       6.581   3.481  14.781  0.00  0.00    +0.000 HD
ENDBRANCH   4  21
TORSDOF 4
ENDMDL
MODEL 2
REMARK VINA RESULT:      -7.5      0.264      1.103
REMARK  Name = 
REMARK  5 active torsions:
REMARK  status: ('A' for Active; 'I' for Inactive)
REMARK    1  A    between atoms: C_1  and  C_2
REMARK    2  A    between atoms: C_4  and  O_5
REMARK    3  A    between atoms: C_10  and  C_11
REMARK    4  A    between atoms: C_14  and  C_15
REMARK    5  A    between atoms: C_15  and  O_16
REMARK                            x       y       z     vdW  Elec       q    Type
REMARK                         _______ _______ _______ _____ _____    ______ ____
ROOT
ATOM      1  C   UNL     1       7.127   7.793  17.443  0.00  0.00    +0.000 C 
ATOM      2  C   UNL     1       6.224   6.614  17.247  0.00  0.00    +0.000 A 
ATOM      3  C   UNL     1       6.656   5.480  16.589  0.00  0.00    +0.000 A 
ATOM      4  C   UNL     1       5.767   4.419  16.493  0.00  0.00    +0.000 A 
ATOM      5  C   UNL     1       4.473   4.498  17.039  0.00  0.00    +0.000 A 
ATOM      6  C   UNL     1       3.582   3.409  16.980  0.00  0.00    +0.000 A 
ATOM      7  C   UNL     1       2.306   3.510  17.510  0.00  0.00    +0.000 A 
ATOM      8  C   UNL     1       1.894   4.719  18.058  0.00  0.00    +0.000 A 
ATOM      9  C   UNL     1       2.749   5.845  18.112  0.00  0.00    +0.000 A 
ATOM     10  C   UNL     1       4.082   5.714  17.641  0.00  0.00    +0.000 A 
ATOM     11  N   UNL     1       4.972   6.732  17.747  0.00  0.00    +0.000 NA
ENDROOT
BRANCH   9  12
ATOM     12  C   UNL     1       2.185   7.150  18.580  0.00  0.00    +0.000 A 
ATOM     13  C   UNL     1       2.041   8.254  17.719  0.00  0.00    +0.000 A 
ATOM     14  C   UNL     1       1.651   9.515  18.195  0.00  0.00    +0.000 A 
ATOM     15  C   UNL     1       1.359   9.711  19.549  0.00  0.00    +0.000 A 
ATOM     16  C   UNL     1       1.462   8.618  20.412  0.00  0.00    +0.000 A 
ATOM     17  C   UNL     1       1.872   7.367  19.934  0.00  0.00    +0.000 A 
BRANCH  15  18
ATOM     18  C   UNL     1       1.047  11.089  20.073  0.00  0.00    +0.000 C 
BRANCH  18  19
ATOM     19  O   UNL     1       1.132  11.153  21.491  0.00  0.00    +0.000 OA
ATOM     20  H   UNL     1       1.081  12.094  21.732  0.00  0.00    +0.000 HD
ENDBRANCH  18  19
ENDBRANCH  15  18
ENDBRANCH   9  12
BRANCH   4  21
ATOM     21  O   UNL     1       6.155   3.274  15.843  0.00  0.00    +0.000 OA
ATOM     22  H   UNL     1       5.386   2.689  15.740  0.00  0.00    +0.000 HD
ENDBRANCH   4  21
TORSDOF 4
ENDMDL
MODEL 3
REMARK VINA RESULT:      -7.4      1.548      3.386
REMARK  Name = 
REMARK  5 active torsions:
REMARK  status: ('A' for Active; 'I' for Inactive)
REMARK    1  A    between atoms: C_1  and  C_2
REMARK    2  A    between atoms: C_4  and  O_5
REMARK    3  A    between atoms: C_10  and  C_11
REMARK    4  A    between atoms: C_14  and  C_15
REMARK    5  A    between atoms: C_15  and  O_16
REMARK                            x       y       z     vdW  Elec       q    Type
REMARK                         _______ _______ _______ _____ _____    ______ ____
ROOT
ATOM      1  C   UNL     1       0.636   2.834  19.335  0.00  0.00    +0.000 C 
ATOM      2  C   UNL     1       1.826   3.431  18.648  0.00  0.00    +0.000 A 
ATOM      3  C   UNL     1       2.790   2.637  18.062  0.00  0.00    +0.000 A 
ATOM      4  C   UNL     1       3.834   3.276  17.409  0.00  0.00    +0.000 A 
ATOM      5  C   UNL     1       3.911   4.679  17.353  0.00  0.00    +0.000 A 
ATOM      6  C   UNL     1       4.947   5.333  16.657  0.00  0.00    +0.000 A 
ATOM      7  C   UNL     1       5.015   6.716  16.625  0.00  0.00    +0.000 A 
ATOM      8  C   UNL     1       4.076   7.457  17.333  0.00  0.00    +0.000 A 
ATOM      9  C   UNL     1       3.036   6.839  18.067  0.00  0.00    +0.000 A 
ATOM     10  C   UNL     1       2.922   5.424  18.032  0.00  0.00    +0.000 A 
ATOM     11  N   UNL     1       1.896   4.783  18.644  0.00  0.00    +0.000 NA
ENDROOT
BRANCH   9  12
ATOM     12  C   UNL     1       2.156   7.696  18.922  0.00  0.00    +0.000 A 
ATOM     13  C   UNL     1       1.577   8.886  18.440  0.00  0.00    +0.000 A 
ATOM     14  C   UNL     1       0.875   9.759  19.286  0.00  0.00    +0.000 A 
ATOM     15  C   UNL     1       0.700   9.459  20.640  0.00  0.00    +0.000 A 
ATOM     16  C   UNL     1       1.238   8.265  21.128  0.00  0.00    +0.000 A 
ATOM     17  C   UNL     1       1.955   7.408  20.283  0.00  0.00    +0.000 A 
BRANCH  15  18
ATOM     18  C   UNL     1       0.042  10.450  21.566  0.00  0.00    +0.000 C 
BRANCH  18  19
ATOM     19  O   UNL     1       0.420  10.247  22.921  0.00  0.00    +0.000 OA
ATOM     20  H   UNL     1      -0.150  10.824  23.460  0.00  0.00    +0.000 HD
ENDBRANCH  18  19
ENDBRANCH  15  18
ENDBRANCH   9  12
BRANCH   4  21
ATOM     21  O   UNL     1       4.817   2.523  16.816  0.00  0.00    +0.000 OA
ATOM     22  H   UNL     1       4.847   1.648  17.236  0.00  0.00    +0.000 HD
ENDBRANCH   4  21
TORSDOF 4
ENDMDL
MODEL 4
REMARK VINA RESULT:      -7.4      1.751      2.271
REMARK  Name = 
REMARK  5 active torsions:
REMARK  status: ('A' for Active; 'I' for Inactive)
REMARK    1  A    between atoms: C_1  and  C_2
REMARK    2  A    between atoms: C_4  and  O_5
REMARK    3  A    between atoms: C_10  and  C_11
REMARK    4  A    between atoms: C_14  and  C_15
REMARK    5  A    between atoms: C_15  and  O_16
REMARK                            x       y       z     vdW  Elec       q    Type
REMARK                         _______ _______ _______ _____ _____    ______ ____
ROOT
ATOM      1  C   UNL     1       5.331   5.924  15.767  0.00  0.00    +0.000 C 
ATOM      2  C   UNL     1       4.608   5.110  16.797  0.00  0.00    +0.000 A 
ATOM      3  C   UNL     1       4.688   3.733  16.810  0.00  0.00    +0.000 A 
ATOM      4  C   UNL     1       4.023   3.064  17.827  0.00  0.00    +0.000 A 
ATOM      5  C   UNL     1       3.287   3.762  18.802  0.00  0.00    +0.000 A 
ATOM      6  C   UNL     1       2.643   3.090  19.860  0.00  0.00    +0.000 A 
ATOM      7  C   UNL     1       1.911   3.793  20.803  0.00  0.00    +0.000 A 
ATOM      8  C   UNL     1       1.775   5.169  20.666  0.00  0.00    +0.000 A 
ATOM      9  C   UNL     1       2.383   5.878  19.603  0.00  0.00    +0.000 A 
ATOM     10  C   UNL     1       3.198   5.166  18.685  0.00  0.00    +0.000 A 
ATOM     11  N   UNL     1       3.875   5.805  17.699  0.00  0.00    +0.000 NA
ENDROOT
BRANCH   9  12
ATOM     12  C   UNL     1       2.067   7.332  19.440  0.00  0.00    +0.000 A 
ATOM     13  C   UNL     1       1.539   8.105  20.492  0.00  0.00    +0.000 A 
ATOM     14  C   UNL     1       1.109   9.426  20.293  0.00  0.00    +0.000 A 
ATOM     15  C   UNL     1       1.221  10.035  19.039  0.00  0.00    +0.000 A 
ATOM     16  C   UNL     1       1.775   9.294  17.992  0.00  0.00    +0.000 A 
ATOM     17  C   UNL     1       2.184   7.970  18.193  0.00  0.00    +0.000 A 
BRANCH  15  18
ATOM     18  C   UNL     1       0.659  11.413  18.804  0.00  0.00    +0.000 C 
BRANCH  18  19
ATOM     19  O   UNL     1       1.500  12.198  17.969  0.00  0.00    +0.000 OA
ATOM     20  H   UNL     1       2.406  11.861  18.089  0.00  0.00    +0.000 HD
ENDBRANCH  18  19
ENDBRANCH  15  18
ENDBRANCH   9  12
BRANCH   4  21
ATOM     21  O   UNL     1       4.073   1.693  17.876  0.00  0.00    +0.000 OA
ATOM     22  H   UNL     1       3.229   1.353  18.217  0.00  0.00    +0.000 HD
ENDBRANCH   4  21
TORSDOF 4
ENDMDL
MODEL 5
REMARK VINA RESULT:      -7.3      1.615      3.242
REMARK  Name = 
REMARK  5 active torsions:
REMARK  status: ('A' for Active; 'I' for Inactive)
REMARK    1  A    between atoms: C_1  and  C_2
REMARK    2  A    between atoms: C_4  and  O_5
REMARK    3  A    between atoms: C_10  and  C_11
REMARK    4  A    between atoms: C_14  and  C_15
REMARK    5  A    between atoms: C_15  and  O_16
REMARK                            x       y       z     vdW  Elec       q    Type
REMARK                         _______ _______ _______ _____ _____    ______ ____
ROOT
ATOM      1  C   UNL     1       0.535   3.114  20.100  0.00  0.00    +0.000 C 
ATOM      2  C   UNL     1       1.699   3.446  19.217  0.00  0.00    +0.000 A 
ATOM      3  C   UNL     1       2.521   2.460  18.711  0.00  0.00    +0.000 A 
ATOM      4  C   UNL     1       3.548   2.855  17.865  0.00  0.00    +0.000 A 
ATOM      5  C   UNL     1       3.748   4.210  17.543  0.00  0.00    +0.000 A 
ATOM      6  C   UNL     1       4.764   4.612  16.654  0.00  0.00    +0.000 A 
ATOM      7  C   UNL     1       4.956   5.952  16.359  0.00  0.00    +0.000 A 
ATOM      8  C   UNL     1       4.167   6.905  16.992  0.00  0.00    +0.000 A 
ATOM      9  C   UNL     1       3.155   6.544  17.913  0.00  0.00    +0.000 A 
ATOM     10  C   UNL     1       2.907   5.167  18.151  0.00  0.00    +0.000 A 
ATOM     11  N   UNL     1       1.893   4.760  18.956  0.00  0.00    +0.000 NA
ENDROOT
BRANCH   9  12
ATOM     12  C   UNL     1       2.450   7.630  18.664  0.00  0.00    +0.000 A 
ATOM     13  C   UNL     1       2.109   7.500  20.024  0.00  0.00    +0.000 A 
ATOM     14  C   UNL     1       1.321   8.457  20.682  0.00  0.00    +0.000 A 
ATOM     15  C   UNL     1       0.870   9.598  20.010  0.00  0.00    +0.000 A 
ATOM     16  C   UNL     1       1.228   9.761  18.670  0.00  0.00    +0.000 A 
ATOM     17  C   UNL     1       1.997   8.792  18.014  0.00  0.00    +0.000 A 
BRANCH  15  18
ATOM     18  C   UNL     1      -0.064  10.566  20.688  0.00  0.00    +0.000 C 
BRANCH  18  19
ATOM     19  O   UNL     1       0.355  10.877  22.011  0.00  0.00    +0.000 OA
ATOM     20  H   UNL     1      -0.433  11.187  22.489  0.00  0.00    +0.000 HD
ENDBRANCH  18  19
ENDBRANCH  15  18
ENDBRANCH   9  12
BRANCH   4  21
ATOM     21  O   UNL     1       4.391   1.907  17.342  0.00  0.00    +0.000 OA
ATOM     22  H   UNL     1       5.311   2.186  17.480  0.00  0.00    +0.000 HD
ENDBRANCH   4  21
TORSDOF 4
ENDMDL
MODEL 6
REMARK VINA RESULT:      -7.3      3.140      5.386
REMARK  Name = 
REMARK  5 active torsions:
REMARK  status: ('A' for Active; 'I' for Inactive)
REMARK    1  A    between atoms: C_1  and  C_2
REMARK    2  A    between atoms: C_4  and  O_5
REMARK    3  A    between atoms: C_10  and  C_11
REMARK    4  A    between atoms: C_14  and  C_15
REMARK    5  A    between atoms: C_15  and  O_16
REMARK                            x       y       z     vdW  Elec       q    Type
REMARK                         _______ _______ _______ _____ _____    ______ ____
ROOT
ATOM      1  C   UNL     1       1.692   7.368  20.793  0.00  0.00    +0.000 C 
ATOM      2  C   UNL     1       1.854   5.971  20.276  0.00  0.00    +0.000 A 
ATOM      3  C   UNL     1       0.974   4.968  20.629  0.00  0.00    +0.000 A 
ATOM      4  C   UNL     1       1.174   3.715  20.067  0.00  0.00    +0.000 A 
ATOM      5  C   UNL     1       2.237   3.475  19.178  0.00  0.00    +0.000 A 
ATOM      6  C   UNL     1       2.420   2.215  18.574  0.00  0.00    +0.000 A 
ATOM      7  C   UNL     1       3.481   1.992  17.712  0.00  0.00    +0.000 A 
ATOM      8  C   UNL     1       4.398   3.012  17.488  0.00  0.00    +0.000 A 
ATOM      9  C   UNL     1       4.266   4.283  18.097  0.00  0.00    +0.000 A 
ATOM     10  C   UNL     1       3.133   4.533  18.915  0.00  0.00    +0.000 A 
ATOM     11  N   UNL     1       2.908   5.757  19.454  0.00  0.00    +0.000 NA
ENDROOT
BRANCH   9  12
ATOM     12  C   UNL     1       5.370   5.278  17.924  0.00  0.00    +0.000 A 
ATOM     13  C   UNL     1       6.534   5.248  18.717  0.00  0.00    +0.000 A 
ATOM     14  C   UNL     1       7.496   6.267  18.652  0.00  0.00    +0.000 A 
ATOM     15  C   UNL     1       7.347   7.339  17.766  0.00  0.00    +0.000 A 
ATOM     16  C   UNL     1       6.216   7.367  16.946  0.00  0.00    +0.000 A 
ATOM     17  C   UNL     1       5.249   6.357  17.032  0.00  0.00    +0.000 A 
BRANCH  15  18
ATOM     18  C   UNL     1       8.326   8.484  17.777  0.00  0.00    +0.000 C 
BRANCH  18  19
ATOM     19  O   UNL     1       8.904   8.681  19.062  0.00  0.00    +0.000 OA
ATOM     20  H   UNL     1       9.237   9.595  19.081  0.00  0.00    +0.000 HD
ENDBRANCH  18  19
ENDBRANCH  15  18
ENDBRANCH   9  12
BRANCH   4  21
ATOM     21  O   UNL     1       0.324   2.688  20.395  0.00  0.00    +0.000 OA
ATOM     22  H   UNL     1      -0.473   3.054  20.813  0.00  0.00    +0.000 HD
ENDBRANCH   4  21
TORSDOF 4
ENDMDL
MODEL 7
REMARK VINA RESULT:      -7.2      2.115      2.658
REMARK  Name = 
REMARK  5 active torsions:
REMARK  status: ('A' for Active; 'I' for Inactive)
REMARK    1  A    between atoms: C_1  and  C_2
REMARK    2  A    between atoms: C_4  and  O_5
REMARK    3  A    between atoms: C_10  and  C_11
REMARK    4  A    between atoms: C_14  and  C_15
REMARK    5  A    between atoms: C_15  and  O_16
REMARK                            x       y       z     vdW  Elec       q    Type
REMARK                         _______ _______ _______ _____ _____    ______ ____
ROOT
ATOM      1  C   UNL     1       6.606   6.280  17.729  0.00  0.00    +0.000 C 
ATOM      2  C   UNL     1       5.585   5.421  18.410  0.00  0.00    +0.000 A 
ATOM      3  C   UNL     1       5.785   4.066  18.580  0.00  0.00    +0.000 A 
ATOM      4  C   UNL     1       4.807   3.357  19.263  0.00  0.00    +0.000 A 
ATOM      5  C   UNL     1       3.652   3.993  19.755  0.00  0.00    +0.000 A 
ATOM      6  C   UNL     1       2.676   3.285  20.483  0.00  0.00    +0.000 A 
ATOM      7  C   UNL     1       1.539   3.925  20.948  0.00  0.00    +0.000 A 
ATOM      8  C   UNL     1       1.344   5.267  20.643  0.00  0.00    +0.000 A 
ATOM      9  C   UNL     1       2.287   6.007  19.891  0.00  0.00    +0.000 A 
ATOM     10  C   UNL     1       3.489   5.369  19.486  0.00  0.00    +0.000 A 
ATOM     11  N   UNL     1       4.467   6.051  18.838  0.00  0.00    +0.000 NA
ENDROOT
BRANCH   9  12
ATOM     12  C   UNL     1       1.937   7.402  19.478  0.00  0.00    +0.000 A 
ATOM     13  C   UNL     1       2.218   7.893  18.189  0.00  0.00    +0.000 A 
ATOM     14  C   UNL     1       2.022   9.242  17.855  0.00  0.00    +0.000 A 
ATOM     15  C   UNL     1       1.507  10.145  18.790  0.00  0.00    +0.000 A 
ATOM     16  C   UNL     1       1.189   9.667  20.064  0.00  0.00    +0.000 A 
ATOM     17  C   UNL     1       1.406   8.324  20.397  0.00  0.00    +0.000 A 
BRANCH  15  18
ATOM     18  C   UNL     1       1.401  11.611  18.462  0.00  0.00    +0.000 C 
BRANCH  18  19
ATOM     19  O   UNL     1       2.368  12.015  17.501  0.00  0.00    +0.000 OA
ATOM     20  H   UNL     1       2.023  12.821  17.078  0.00  0.00    +0.000 HD
ENDBRANCH  18  19
ENDBRANCH  15  18
ENDBRANCH   9  12
BRANCH   4  21
ATOM     21  O   UNL     1       4.963   2.006  19.450  0.00  0.00    +0.000 OA
ATOM     22  H   UNL     1       5.903   1.811  19.599  0.00  0.00    +0.000 HD
ENDBRANCH   4  21
TORSDOF 4
ENDMDL
MODEL 8
REMARK VINA RESULT:      -7.1      2.233      3.740
REMARK  Name = 
REMARK  5 active torsions:
REMARK  status: ('A' for Active; 'I' for Inactive)
REMARK    1  A    between atoms: C_1  and  C_2
REMARK    2  A    between atoms: C_4  and  O_5
REMARK    3  A    between atoms: C_10  and  C_11
REMARK    4  A    between atoms: C_14  and  C_15
REMARK    5  A    between atoms: C_15  and  O_16
REMARK                            x       y       z     vdW  Elec       q    Type
REMARK                         _______ _______ _______ _____ _____    ______ ____
ROOT
ATOM      1  C   UNL     1       0.759   3.245  20.982  0.00  0.00    +0.000 C 
ATOM      2  C   UNL     1       2.092   3.492  20.345  0.00  0.00    +0.000 A 
ATOM      3  C   UNL     1       3.100   2.551  20.402  0.00  0.00    +0.000 A 
ATOM      4  C   UNL     1       4.287   2.846  19.746  0.00  0.00    +0.000 A 
ATOM      5  C   UNL     1       4.458   4.059  19.055  0.00  0.00    +0.000 A 
ATOM      6  C   UNL     1       5.646   4.346  18.354  0.00  0.00    +0.000 A 
ATOM      7  C   UNL     1       5.803   5.552  17.692  0.00  0.00    +0.000 A 
ATOM      8  C   UNL     1       4.793   6.503  17.769  0.00  0.00    +0.000 A 
ATOM      9  C   UNL     1       3.596   6.266  18.486  0.00  0.00    +0.000 A 
ATOM     10  C   UNL     1       3.405   4.999  19.096  0.00  0.00    +0.000 A 
ATOM     11  N   UNL     1       2.244   4.684  19.722  0.00  0.00    +0.000 NA
ENDROOT
BRANCH   9  12
ATOM     12  C   UNL     1       2.623   7.392  18.647  0.00  0.00    +0.000 A 
ATOM     13  C   UNL     1       2.326   8.279  17.594  0.00  0.00    +0.000 A 
ATOM     14  C   UNL     1       1.528   9.417  17.792  0.00  0.00    +0.000 A 
ATOM     15  C   UNL     1       0.971   9.693  19.045  0.00  0.00    +0.000 A 
ATOM     16  C   UNL     1       1.226   8.804  20.092  0.00  0.00    +0.000 A 
ATOM     17  C   UNL     1       2.040   7.682  19.893  0.00  0.00    +0.000 A 
BRANCH  15  18
ATOM     18  C   UNL     1       0.207  10.970  19.278  0.00  0.00    +0.000 C 
BRANCH  18  19
ATOM     19  O   UNL     1       0.524  11.966  18.315  0.00  0.00    +0.000 OA
ATOM     20  H   UNL     1      -0.120  12.685  18.433  0.00  0.00    +0.000 HD
ENDBRANCH  18  19
ENDBRANCH  15  18
ENDBRANCH   9  12
BRANCH   4  21
ATOM     21  O   UNL     1       5.318   1.940  19.782  0.00  0.00    +0.000 OA
ATOM     22  H   UNL     1       5.970   2.223  20.443  0.00  0.00    +0.000 HD
ENDBRANCH   4  21
TORSDOF 4
ENDMDL
MODEL 9
REMARK VINA RESULT:      -7.1      1.907      2.680
REMARK  Name = 
REMARK  5 active torsions:
REMARK  status: ('A' for Active; 'I' for Inactive)
REMARK    1  A    between atoms: C_1  and  C_2
REMARK    2  A    between atoms: C_4  and  O_5
REMARK    3  A    between atoms: C_10  and  C_11
REMARK    4  A    between atoms: C_14  and  C_15
REMARK    5  A    between atoms: C_15  and  O_16
REMARK                            x       y       z     vdW  Elec       q    Type
REMARK                         _______ _______ _______ _____ _____    ______ ____
ROOT
ATOM      1  C   UNL     1       5.212   5.624  15.792  0.00  0.00    +0.000 C 
ATOM      2  C   UNL     1       4.510   4.911  16.907  0.00  0.00    +0.000 A 
ATOM      3  C   UNL     1       4.610   3.543  17.060  0.00  0.00    +0.000 A 
ATOM      4  C   UNL     1       3.963   2.973  18.147  0.00  0.00    +0.000 A 
ATOM      5  C   UNL     1       3.227   3.757  19.054  0.00  0.00    +0.000 A 
ATOM      6  C   UNL     1       2.602   3.189  20.181  0.00  0.00    +0.000 A 
ATOM      7  C   UNL     1       1.869   3.974  21.055  0.00  0.00    +0.000 A 
ATOM      8  C   UNL     1       1.712   5.328  20.780  0.00  0.00    +0.000 A 
ATOM      9  C   UNL     1       2.300   5.932  19.643  0.00  0.00    +0.000 A 
ATOM     10  C   UNL     1       3.117   5.141  18.794  0.00  0.00    +0.000 A 
ATOM     11  N   UNL     1       3.776   5.684  17.741  0.00  0.00    +0.000 NA
ENDROOT
BRANCH   9  12
ATOM     12  C   UNL     1       1.963   7.358  19.337  0.00  0.00    +0.000 A 
ATOM     13  C   UNL     1       2.253   7.943  18.089  0.00  0.00    +0.000 A 
ATOM     14  C   UNL     1       2.070   9.315  17.858  0.00  0.00    +0.000 A 
ATOM     15  C   UNL     1       1.559  10.149  18.857  0.00  0.00    +0.000 A 
ATOM     16  C   UNL     1       1.232   9.579  20.091  0.00  0.00    +0.000 A 
ATOM     17  C   UNL     1       1.437   8.212  20.321  0.00  0.00    +0.000 A 
BRANCH  15  18
ATOM     18  C   UNL     1       1.467  11.637  18.641  0.00  0.00    +0.000 C 
BRANCH  18  19
ATOM     19  O   UNL     1       2.396  12.093  17.666  0.00  0.00    +0.000 OA
ATOM     20  H   UNL     1       3.226  11.610  17.823  0.00  0.00    +0.000 HD
ENDBRANCH  18  19
ENDBRANCH  15  18
ENDBRANCH   9  12
BRANCH   4  21
ATOM     21  O   UNL     1       4.033   1.614  18.334  0.00  0.00    +0.000 OA
ATOM     22  H   UNL     1       4.804   1.407  18.888  0.00  0.00    +0.000 HD
ENDBRANCH   4  21
TORSDOF 4
ENDMDL
