MODEL 1
REMARK VINA RESULT:      -7.6      0.000      0.000
REMARK  Name = 
REMARK  7 active torsions:
REMARK  status: ('A' for Active; 'I' for Inactive)
REMARK    1  A    between atoms: C_1  and  O_2
REMARK    2  A    between atoms: O_2  and  C_3
REMARK    3  A    between atoms: C_7  and  C_8
REMARK    4  A    between atoms: C_8  and  C_9
REMARK    5  A    between atoms: C_9  and  C_10
REMARK    6  A    between atoms: C_16  and  O_17
REMARK    7  A    between atoms: O_17  and  C_18
REMARK                            x       y       z     vdW  Elec       q    Type
REMARK                         _______ _______ _______ _____ _____    ______ ____
ROOT
ATOM      1  C   UNL     1       3.628   4.489  18.070  0.00  0.00    +0.000 A 
ATOM      2  C   UNL     1       3.521   4.163  19.371  0.00  0.00    +0.000 A 
ATOM      3  C   UNL     1       2.660   4.949  20.247  0.00  0.00    +0.000 A 
ATOM      4  O   UNL     1       2.355   4.526  21.346  0.00  0.00    +0.000 OA
ATOM      5  C   UNL     1       2.247   6.250  19.745  0.00  0.00    +0.000 A 
ATOM      6  C   UNL     1       1.681   7.156  20.638  0.00  0.00    +0.000 A 
ATOM      7  C   UNL     1       1.466   8.474  20.255  0.00  0.00    +0.000 A 
ATOM      8  C   UNL     1       1.775   8.850  18.945  0.00  0.00    +0.000 A 
ATOM      9  C   UNL     1       2.271   7.900  18.018  0.00  0.00    +0.000 A 
ATOM     10  C   UNL     1       2.526   6.582  18.429  0.00  0.00    +0.000 A 
ATOM     11  O   UNL     1       3.063   5.664  17.539  0.00  0.00    +0.000 OA
ENDROOT
BRANCH   7  12
ATOM     12  O   UNL     1       0.965   9.237  21.266  0.00  0.00    +0.000 OA
ATOM     13  C   UNL     1      -0.272   9.904  21.095  0.00  0.00    +0.000 C 
ENDBRANCH   7  12
BRANCH   1  14
ATOM     14  C   UNL     1       4.356   3.590  17.077  0.00  0.00    +0.000 C 
BRANCH  14  15
ATOM     15  C   UNL     1       5.509   4.273  16.282  0.00  0.00    +0.000 C 
BRANCH  15  20
ATOM     16  C   UNL     1       7.362   7.368  17.524  0.00  0.00    +0.000 A 
ATOM     17  C   UNL     1       8.069   6.855  18.611  0.00  0.00    +0.000 A 
ATOM     18  C   UNL     1       7.944   5.510  18.961  0.00  0.00    +0.000 A 
ATOM     19  C   UNL     1       7.131   4.662  18.205  0.00  0.00    +0.000 A 
ATOM     20  C   UNL     1       6.442   5.152  17.085  0.00  0.00    +0.000 A 
ATOM     21  C   UNL     1       6.542   6.517  16.778  0.00  0.00    +0.000 A 
BRANCH  16  23
ATOM     22  C   UNL     1       8.418   9.387  18.176  0.00  0.00    +0.000 C 
ATOM     23  O   UNL     1       7.546   8.702  17.285  0.00  0.00    +0.000 OA
ENDBRANCH  16  23
ENDBRANCH  15  20
ENDBRANCH  14  15
ENDBRANCH   1  14
TORSDOF 5
ENDMDL
MODEL 2
REMARK VINA RESULT:      -7.6      3.237      6.181
REMARK  Name = 
REMARK  7 active torsions:
REMARK  status: ('A' for Active; 'I' for Inactive)
REMARK    1  A    between atoms: C_1  and  O_2
REMARK    2  A    between atoms: O_2  and  C_3
REMARK    3  A    between atoms: C_7  and  C_8
REMARK    4  A    between atoms: C_8  and  C_9
REMARK    5  A    between atoms: C_9  and  C_10
REMARK    6  A    between atoms: C_16  and  O_17
REMARK    7  A    between atoms: O_17  and  C_18
REMARK                            x       y       z     vdW  Elec       q    Type
REMARK                         _______ _______ _______ _____ _____    ______ ____
ROOT
ATOM      1  C   UNL     1       7.659   7.952  17.779  0.00  0.00    +0.000 A 
ATOM      2  C   UNL     1       8.170   7.187  18.760  0.00  0.00    +0.000 A 
ATOM      3  C   UNL     1       7.685   5.823  18.944  0.00  0.00    +0.000 A 
ATOM      4  O   UNL     1       8.300   5.044  19.647  0.00  0.00    +0.000 OA
ATOM      5  C   UNL     1       6.430   5.492  18.286  0.00  0.00    +0.000 A 
ATOM      6  C   UNL     1       5.775   4.322  18.660  0.00  0.00    +0.000 A 
ATOM      7  C   UNL     1       4.483   4.072  18.215  0.00  0.00    +0.000 A 
ATOM      8  C   UNL     1       3.884   4.989  17.346  0.00  0.00    +0.000 A 
ATOM      9  C   UNL     1       4.592   6.135  16.905  0.00  0.00    +0.000 A 
ATOM     10  C   UNL     1       5.880   6.399  17.395  0.00  0.00    +0.000 A 
ATOM     11  O   UNL     1       6.552   7.548  17.007  0.00  0.00    +0.000 OA
ENDROOT
BRANCH   7  12
ATOM     12  O   UNL     1       3.970   2.917  18.722  0.00  0.00    +0.000 OA
ATOM     13  C   UNL     1       2.910   2.972  19.659  0.00  0.00    +0.000 C 
ENDBRANCH   7  12
BRANCH   1  14
ATOM     14  C   UNL     1       8.264   9.305  17.421  0.00  0.00    +0.000 C 
BRANCH  14  15
ATOM     15  C   UNL     1       8.971  10.048  18.595  0.00  0.00    +0.000 C 
BRANCH  15  20
ATOM     16  C   UNL     1       9.519  13.764  17.933  0.00  0.00    +0.000 A 
ATOM     17  C   UNL     1      10.894  13.810  17.706  0.00  0.00    +0.000 A 
ATOM     18  C   UNL     1      11.659  12.645  17.777  0.00  0.00    +0.000 A 
ATOM     19  C   UNL     1      11.044  11.420  18.049  0.00  0.00    +0.000 A 
ATOM     20  C   UNL     1       9.657  11.349  18.243  0.00  0.00    +0.000 A 
ATOM     21  C   UNL     1       8.912  12.538  18.215  0.00  0.00    +0.000 A 
BRANCH  16  23
ATOM     22  C   UNL     1       7.461  14.939  18.014  0.00  0.00    +0.000 C 
ATOM     23  O   UNL     1       8.874  14.969  17.857  0.00  0.00    +0.000 OA
ENDBRANCH  16  23
ENDBRANCH  15  20
ENDBRANCH  14  15
ENDBRANCH   1  14
TORSDOF 5
ENDMDL
MODEL 3
REMARK VINA RESULT:      -7.4      2.874      5.869
REMARK  Name = 
REMARK  7 active torsions:
REMARK  status: ('A' for Active; 'I' for Inactive)
REMARK    1  A    between atoms: C_1  and  O_2
REMARK    2  A    between atoms: O_2  and  C_3
REMARK    3  A    between atoms: C_7  and  C_8
REMARK    4  A    between atoms: C_8  and  C_9
REMARK    5  A    between atoms: C_9  and  C_10
REMARK    6  A    between atoms: C_16  and  O_17
REMARK    7  A    between atoms: O_17  and  C_18
REMARK                            x       y       z     vdW  Elec       q    Type
REMARK                         _______ _______ _______ _____ _____    ______ ____
ROOT
ATOM      1  C   UNL     1       7.298   7.663  17.860  0.00  0.00    +0.000 A 
ATOM      2  C   UNL     1       7.879   6.512  18.243  0.00  0.00    +0.000 A 
ATOM      3  C   UNL     1       7.151   5.254  18.116  0.00  0.00    +0.000 A 
ATOM      4  O   UNL     1       7.739   4.194  18.215  0.00  0.00    +0.000 OA
ATOM      5  C   UNL     1       5.714   5.360  17.918  0.00  0.00    +0.000 A 
ATOM      6  C   UNL     1       4.937   4.217  18.086  0.00  0.00    +0.000 A 
ATOM      7  C   UNL     1       3.551   4.312  18.113  0.00  0.00    +0.000 A 
ATOM      8  C   UNL     1       2.961   5.563  17.913  0.00  0.00    +0.000 A 
ATOM      9  C   UNL     1       3.759   6.707  17.658  0.00  0.00    +0.000 A 
ATOM     10  C   UNL     1       5.159   6.606  17.677  0.00  0.00    +0.000 A 
ATOM     11  O   UNL     1       5.943   7.733  17.483  0.00  0.00    +0.000 OA
ENDROOT
BRANCH   7  12
ATOM     12  O   UNL     1       2.949   3.113  18.346  0.00  0.00    +0.000 OA
ATOM     13  C   UNL     1       3.599   1.915  17.963  0.00  0.00    +0.000 C 
ENDBRANCH   7  12
BRANCH   1  14
ATOM     14  C   UNL     1       8.080   8.970  17.789  0.00  0.00    +0.000 C 
BRANCH  14  15
ATOM     15  C   UNL     1       8.999   9.263  19.013  0.00  0.00    +0.000 C 
BRANCH  15  20
ATOM     16  C   UNL     1      10.495  12.609  17.960  0.00  0.00    +0.000 A 
ATOM     17  C   UNL     1      10.536  13.294  19.174  0.00  0.00    +0.000 A 
ATOM     18  C   UNL     1      10.068  12.688  20.340  0.00  0.00    +0.000 A 
ATOM     19  C   UNL     1       9.583  11.378  20.302  0.00  0.00    +0.000 A 
ATOM     20  C   UNL     1       9.570  10.660  19.097  0.00  0.00    +0.000 A 
ATOM     21  C   UNL     1      10.000  11.304  17.927  0.00  0.00    +0.000 A 
BRANCH  16  23
ATOM     22  C   UNL     1      12.333  13.683  16.916  0.00  0.00    +0.000 C 
ATOM     23  O   UNL     1      10.961  13.308  16.880  0.00  0.00    +0.000 OA
ENDBRANCH  16  23
ENDBRANCH  15  20
ENDBRANCH  14  15
ENDBRANCH   1  14
TORSDOF 5
ENDMDL
MODEL 4
REMARK VINA RESULT:      -7.3      3.175      5.813
REMARK  Name = 
REMARK  7 active torsions:
REMARK  status: ('A' for Active; 'I' for Inactive)
REMARK    1  A    between atoms: C_1  and  O_2
REMARK    2  A    between atoms: O_2  and  C_3
REMARK    3  A    between atoms: C_7  and  C_8
REMARK    4  A    between atoms: C_8  and  C_9
REMARK    5  A    between atoms: C_9  and  C_10
REMARK    6  A    between atoms: C_16  and  O_17
REMARK    7  A    between atoms: O_17  and  C_18
REMARK                            x       y       z     vdW  Elec       q    Type
REMARK                         _______ _______ _______ _____ _____    ______ ____
ROOT
ATOM      1  C   UNL     1       1.599   8.866  18.650  0.00  0.00    +0.000 A 
ATOM      2  C   UNL     1       1.027  10.004  18.217  0.00  0.00    +0.000 A 
ATOM      3  C   UNL     1       0.572  11.000  19.182  0.00  0.00    +0.000 A 
ATOM      4  O   UNL     1       0.291  12.125  18.814  0.00  0.00    +0.000 OA
ATOM      5  C   UNL     1       0.439  10.549  20.558  0.00  0.00    +0.000 A 
ATOM      6  C   UNL     1      -0.262  11.352  21.453  0.00  0.00    +0.000 A 
ATOM      7  C   UNL     1      -0.593  10.870  22.713  0.00  0.00    +0.000 A 
ATOM      8  C   UNL     1      -0.159   9.592  23.077  0.00  0.00    +0.000 A 
ATOM      9  C   UNL     1       0.626   8.815  22.190  0.00  0.00    +0.000 A 
ATOM     10  C   UNL     1       0.917   9.295  20.903  0.00  0.00    +0.000 A 
ATOM     11  O   UNL     1       1.639   8.515  20.013  0.00  0.00    +0.000 OA
ENDROOT
BRANCH   7  12
ATOM     12  O   UNL     1      -1.330  11.759  23.437  0.00  0.00    +0.000 OA
ATOM     13  C   UNL     1      -2.553  12.243  22.915  0.00  0.00    +0.000 C 
ENDBRANCH   7  12
BRANCH   1  14
ATOM     14  C   UNL     1       2.264   7.888  17.688  0.00  0.00    +0.000 C 
BRANCH  14  15
ATOM     15  C   UNL     1       3.255   6.880  18.344  0.00  0.00    +0.000 C 
BRANCH  15  20
ATOM     16  C   UNL     1       1.545   3.664  19.477  0.00  0.00    +0.000 A 
ATOM     17  C   UNL     1       1.861   2.795  18.434  0.00  0.00    +0.000 A 
ATOM     18  C   UNL     1       2.617   3.241  17.349  0.00  0.00    +0.000 A 
ATOM     19  C   UNL     1       3.086   4.557  17.318  0.00  0.00    +0.000 A 
ATOM     20  C   UNL     1       2.810   5.435  18.377  0.00  0.00    +0.000 A 
ATOM     21  C   UNL     1       2.008   4.981  19.435  0.00  0.00    +0.000 A 
BRANCH  16  23
ATOM     22  C   UNL     1       1.481   2.698  21.641  0.00  0.00    +0.000 C 
ATOM     23  O   UNL     1       0.783   3.124  20.477  0.00  0.00    +0.000 OA
ENDBRANCH  16  23
ENDBRANCH  15  20
ENDBRANCH  14  15
ENDBRANCH   1  14
TORSDOF 5
ENDMDL
MODEL 5
REMARK VINA RESULT:      -7.3      1.724      3.490
REMARK  Name = 
REMARK  7 active torsions:
REMARK  status: ('A' for Active; 'I' for Inactive)
REMARK    1  A    between atoms: C_1  and  O_2
REMARK    2  A    between atoms: O_2  and  C_3
REMARK    3  A    between atoms: C_7  and  C_8
REMARK    4  A    between atoms: C_8  and  C_9
REMARK    5  A    between atoms: C_9  and  C_10
REMARK    6  A    between atoms: C_16  and  O_17
REMARK    7  A    between atoms: O_17  and  C_18
REMARK                            x       y       z     vdW  Elec       q    Type
REMARK                         _______ _______ _______ _____ _____    ______ ____
ROOT
ATOM      1  C   UNL     1       2.559   7.000  19.226  0.00  0.00    +0.000 A 
ATOM      2  C   UNL     1       2.385   7.779  18.144  0.00  0.00    +0.000 A 
ATOM      3  C   UNL     1       1.836   9.123  18.298  0.00  0.00    +0.000 A 
ATOM      4  O   UNL     1       1.908   9.922  17.384  0.00  0.00    +0.000 OA
ATOM      5  C   UNL     1       1.180   9.408  19.564  0.00  0.00    +0.000 A 
ATOM      6  C   UNL     1       0.390  10.551  19.658  0.00  0.00    +0.000 A 
ATOM      7  C   UNL     1      -0.417  10.752  20.771  0.00  0.00    +0.000 A 
ATOM      8  C   UNL     1      -0.375   9.817  21.808  0.00  0.00    +0.000 A 
ATOM      9  C   UNL     1       0.496   8.701  21.741  0.00  0.00    +0.000 A 
ATOM     10  C   UNL     1       1.274   8.484  20.593  0.00  0.00    +0.000 A 
ATOM     11  O   UNL     1       2.086   7.364  20.501  0.00  0.00    +0.000 OA
ENDROOT
BRANCH   7  12
ATOM     12  O   UNL     1      -1.168  11.885  20.673  0.00  0.00    +0.000 OA
ATOM     13  C   UNL     1      -0.625  13.125  21.089  0.00  0.00    +0.000 C 
ENDBRANCH   7  12
BRANCH   1  14
ATOM     14  C   UNL     1       3.305   5.672  19.144  0.00  0.00    +0.000 C 
BRANCH  14  15
ATOM     15  C   UNL     1       3.243   4.959  17.760  0.00  0.00    +0.000 C 
BRANCH  15  20
ATOM     16  C   UNL     1       6.733   5.888  16.533  0.00  0.00    +0.000 A 
ATOM     17  C   UNL     1       6.979   4.884  15.597  0.00  0.00    +0.000 A 
ATOM     18  C   UNL     1       6.027   3.891  15.363  0.00  0.00    +0.000 A 
ATOM     19  C   UNL     1       4.809   3.914  16.047  0.00  0.00    +0.000 A 
ATOM     20  C   UNL     1       4.528   4.938  16.963  0.00  0.00    +0.000 A 
ATOM     21  C   UNL     1       5.517   5.900  17.220  0.00  0.00    +0.000 A 
BRANCH  16  23
ATOM     22  C   UNL     1       7.461   7.912  17.530  0.00  0.00    +0.000 C 
ATOM     23  O   UNL     1       7.744   6.797  16.694  0.00  0.00    +0.000 OA
ENDBRANCH  16  23
ENDBRANCH  15  20
ENDBRANCH  14  15
ENDBRANCH   1  14
TORSDOF 5
ENDMDL
MODEL 6
REMARK VINA RESULT:      -7.2      2.634      5.261
REMARK  Name = 
REMARK  7 active torsions:
REMARK  status: ('A' for Active; 'I' for Inactive)
REMARK    1  A    between atoms: C_1  and  O_2
REMARK    2  A    between atoms: O_2  and  C_3
REMARK    3  A    between atoms: C_7  and  C_8
REMARK    4  A    between atoms: C_8  and  C_9
REMARK    5  A    between atoms: C_9  and  C_10
REMARK    6  A    between atoms: C_16  and  O_17
REMARK    7  A    between atoms: O_17  and  C_18
REMARK                            x       y       z     vdW  Elec       q    Type
REMARK                         _______ _______ _______ _____ _____    ______ ____
ROOT
ATOM      1  C   UNL     1       6.935   6.652  17.550  0.00  0.00    +0.000 A 
ATOM      2  C   UNL     1       7.188   5.465  16.971  0.00  0.00    +0.000 A 
ATOM      3  C   UNL     1       6.082   4.609  16.557  0.00  0.00    +0.000 A 
ATOM      4  O   UNL     1       6.282   3.666  15.816  0.00  0.00    +0.000 OA
ATOM      5  C   UNL     1       4.777   4.929  17.115  0.00  0.00    +0.000 A 
ATOM      6  C   UNL     1       3.757   3.988  16.996  0.00  0.00    +0.000 A 
ATOM      7  C   UNL     1       2.566   4.159  17.690  0.00  0.00    +0.000 A 
ATOM      8  C   UNL     1       2.396   5.314  18.457  0.00  0.00    +0.000 A 
ATOM      9  C   UNL     1       3.407   6.306  18.503  0.00  0.00    +0.000 A 
ATOM     10  C   UNL     1       4.624   6.103  17.834  0.00  0.00    +0.000 A 
ATOM     11  O   UNL     1       5.635   7.047  17.922  0.00  0.00    +0.000 OA
ENDROOT
BRANCH   7  12
ATOM     12  O   UNL     1       1.703   3.119  17.511  0.00  0.00    +0.000 OA
ATOM     13  C   UNL     1       0.965   2.623  18.612  0.00  0.00    +0.000 C 
ENDBRANCH   7  12
BRANCH   1  14
ATOM     14  C   UNL     1       8.044   7.663  17.821  0.00  0.00    +0.000 C 
BRANCH  14  15
ATOM     15  C   UNL     1       7.651   9.156  17.602  0.00  0.00    +0.000 C 
BRANCH  15  20
ATOM     16  C   UNL     1       9.461  12.451  18.244  0.00  0.00    +0.000 A 
ATOM     17  C   UNL     1      10.154  12.167  19.420  0.00  0.00    +0.000 A 
ATOM     18  C   UNL     1      10.032  10.916  20.025  0.00  0.00    +0.000 A 
ATOM     19  C   UNL     1       9.237   9.929  19.436  0.00  0.00    +0.000 A 
ATOM     20  C   UNL     1       8.564  10.184  18.233  0.00  0.00    +0.000 A 
ATOM     21  C   UNL     1       8.660  11.464  17.666  0.00  0.00    +0.000 A 
BRANCH  16  23
ATOM     22  C   UNL     1       9.736  14.758  18.714  0.00  0.00    +0.000 C 
ATOM     23  O   UNL     1       9.640  13.716  17.752  0.00  0.00    +0.000 OA
ENDBRANCH  16  23
ENDBRANCH  15  20
ENDBRANCH  14  15
ENDBRANCH   1  14
TORSDOF 5
ENDMDL
MODEL 7
REMARK VINA RESULT:      -7.2      2.546      4.919
REMARK  Name = 
REMARK  7 active torsions:
REMARK  status: ('A' for Active; 'I' for Inactive)
REMARK    1  A    between atoms: C_1  and  O_2
REMARK    2  A    between atoms: O_2  and  C_3
REMARK    3  A    between atoms: C_7  and  C_8
REMARK    4  A    between atoms: C_8  and  C_9
REMARK    5  A    between atoms: C_9  and  C_10
REMARK    6  A    between atoms: C_16  and  O_17
REMARK    7  A    between atoms: O_17  and  C_18
REMARK                            x       y       z     vdW  Elec       q    Type
REMARK                         _______ _______ _______ _____ _____    ______ ____
ROOT
ATOM      1  C   UNL     1       1.521   9.074  18.827  0.00  0.00    +0.000 A 
ATOM      2  C   UNL     1       1.125  10.282  18.387  0.00  0.00    +0.000 A 
ATOM      3  C   UNL     1       0.702  11.299  19.344  0.00  0.00    +0.000 A 
ATOM      4  O   UNL     1       0.588  12.458  18.994  0.00  0.00    +0.000 OA
ATOM      5  C   UNL     1       0.394  10.832  20.686  0.00  0.00    +0.000 A 
ATOM      6  C   UNL     1      -0.288  11.689  21.546  0.00  0.00    +0.000 A 
ATOM      7  C   UNL     1      -0.785  11.216  22.754  0.00  0.00    +0.000 A 
ATOM      8  C   UNL     1      -0.536   9.888  23.107  0.00  0.00    +0.000 A 
ATOM      9  C   UNL     1       0.232   9.047  22.264  0.00  0.00    +0.000 A 
ATOM     10  C   UNL     1       0.691   9.522  21.026  0.00  0.00    +0.000 A 
ATOM     11  O   UNL     1       1.396   8.685  20.175  0.00  0.00    +0.000 OA
ENDROOT
BRANCH   7  12
ATOM     12  O   UNL     1      -1.477  12.168  23.442  0.00  0.00    +0.000 OA
ATOM     13  C   UNL     1      -2.892  12.183  23.387  0.00  0.00    +0.000 C 
ENDBRANCH   7  12
BRANCH   1  14
ATOM     14  C   UNL     1       2.154   8.049  17.892  0.00  0.00    +0.000 C 
BRANCH  14  15
ATOM     15  C   UNL     1       2.931   6.897  18.596  0.00  0.00    +0.000 C 
BRANCH  15  20
ATOM     16  C   UNL     1       5.417   5.466  16.082  0.00  0.00    +0.000 A 
ATOM     17  C   UNL     1       5.055   4.119  16.064  0.00  0.00    +0.000 A 
ATOM     18  C   UNL     1       4.015   3.658  16.873  0.00  0.00    +0.000 A 
ATOM     19  C   UNL     1       3.311   4.551  17.684  0.00  0.00    +0.000 A 
ATOM     20  C   UNL     1       3.636   5.916  17.686  0.00  0.00    +0.000 A 
ATOM     21  C   UNL     1       4.716   6.351  16.903  0.00  0.00    +0.000 A 
BRANCH  16  23
ATOM     22  C   UNL     1       6.862   4.816  14.319  0.00  0.00    +0.000 C 
ATOM     23  O   UNL     1       6.462   5.800  15.264  0.00  0.00    +0.000 OA
ENDBRANCH  16  23
ENDBRANCH  15  20
ENDBRANCH  14  15
ENDBRANCH   1  14
TORSDOF 5
ENDMDL
MODEL 8
REMARK VINA RESULT:      -7.2      2.985      5.965
REMARK  Name = 
REMARK  7 active torsions:
REMARK  status: ('A' for Active; 'I' for Inactive)
REMARK    1  A    between atoms: C_1  and  O_2
REMARK    2  A    between atoms: O_2  and  C_3
REMARK    3  A    between atoms: C_7  and  C_8
REMARK    4  A    between atoms: C_8  and  C_9
REMARK    5  A    between atoms: C_9  and  C_10
REMARK    6  A    between atoms: C_16  and  O_17
REMARK    7  A    between atoms: O_17  and  C_18
REMARK                            x       y       z     vdW  Elec       q    Type
REMARK                         _______ _______ _______ _____ _____    ______ ____
ROOT
ATOM      1  C   UNL     1       7.260   7.617  17.758  0.00  0.00    +0.000 A 
ATOM      2  C   UNL     1       7.919   6.511  18.146  0.00  0.00    +0.000 A 
ATOM      3  C   UNL     1       7.297   5.201  17.985  0.00  0.00    +0.000 A 
ATOM      4  O   UNL     1       7.964   4.190  18.090  0.00  0.00    +0.000 OA
ATOM      5  C   UNL     1       5.862   5.196  17.746  0.00  0.00    +0.000 A 
ATOM      6  C   UNL     1       5.174   3.993  17.878  0.00  0.00    +0.000 A 
ATOM      7  C   UNL     1       3.785   3.978  17.866  0.00  0.00    +0.000 A 
ATOM      8  C   UNL     1       3.103   5.181  17.662  0.00  0.00    +0.000 A 
ATOM      9  C   UNL     1       3.815   6.387  17.443  0.00  0.00    +0.000 A 
ATOM     10  C   UNL     1       5.218   6.397  17.502  0.00  0.00    +0.000 A 
ATOM     11  O   UNL     1       5.914   7.585  17.343  0.00  0.00    +0.000 OA
ENDROOT
BRANCH   7  12
ATOM     12  O   UNL     1       3.273   2.732  18.069  0.00  0.00    +0.000 OA
ATOM     13  C   UNL     1       2.015   2.584  18.701  0.00  0.00    +0.000 C 
ENDBRANCH   7  12
BRANCH   1  14
ATOM     14  C   UNL     1       7.937   8.983  17.724  0.00  0.00    +0.000 C 
BRANCH  14  15
ATOM     15  C   UNL     1       8.949   9.252  18.878  0.00  0.00    +0.000 C 
BRANCH  15  20
ATOM     16  C   UNL     1       9.965  12.583  20.434  0.00  0.00    +0.000 A 
ATOM     17  C   UNL     1      10.467  13.269  19.328  0.00  0.00    +0.000 A 
ATOM     18  C   UNL     1      10.495  12.658  18.074  0.00  0.00    +0.000 A 
ATOM     19  C   UNL     1       9.992  11.364  17.914  0.00  0.00    +0.000 A 
ATOM     20  C   UNL     1       9.448  10.674  19.007  0.00  0.00    +0.000 A 
ATOM     21  C   UNL     1       9.473  11.287  20.269  0.00  0.00    +0.000 A 
BRANCH  16  23
ATOM     22  C   UNL     1       8.974  14.230  21.821  0.00  0.00    +0.000 C 
ATOM     23  O   UNL     1      10.005  13.273  21.615  0.00  0.00    +0.000 OA
ENDBRANCH  16  23
ENDBRANCH  15  20
ENDBRANCH  14  15
ENDBRANCH   1  14
TORSDOF 5
ENDMDL
MODEL 9
REMARK VINA RESULT:      -7.2      3.407      5.955
REMARK  Name = 
REMARK  7 active torsions:
REMARK  status: ('A' for Active; 'I' for Inactive)
REMARK    1  A    between atoms: C_1  and  O_2
REMARK    2  A    between atoms: O_2  and  C_3
REMARK    3  A    between atoms: C_7  and  C_8
REMARK    4  A    between atoms: C_8  and  C_9
REMARK    5  A    between atoms: C_9  and  C_10
REMARK    6  A    between atoms: C_16  and  O_17
REMARK    7  A    between atoms: O_17  and  C_18
REMARK                            x       y       z     vdW  Elec       q    Type
REMARK                         _______ _______ _______ _____ _____    ______ ____
ROOT
ATOM      1  C   UNL     1       1.498   8.930  18.937  0.00  0.00    +0.000 A 
ATOM      2  C   UNL     1       0.916   9.997  18.361  0.00  0.00    +0.000 A 
ATOM      3  C   UNL     1       0.370  11.063  19.194  0.00  0.00    +0.000 A 
ATOM      4  O   UNL     1       0.075  12.135  18.700  0.00  0.00    +0.000 OA
ATOM      5  C   UNL     1       0.167  10.743  20.598  0.00  0.00    +0.000 A 
ATOM      6  C   UNL     1      -0.614  11.602  21.367  0.00  0.00    +0.000 A 
ATOM      7  C   UNL     1      -1.006  11.232  22.647  0.00  0.00    +0.000 A 
ATOM      8  C   UNL     1      -0.553  10.013  23.161  0.00  0.00    +0.000 A 
ATOM      9  C   UNL     1       0.311   9.185  22.402  0.00  0.00    +0.000 A 
ATOM     10  C   UNL     1       0.664   9.548  21.093  0.00  0.00    +0.000 A 
ATOM     11  O   UNL     1       1.465   8.714  20.329  0.00  0.00    +0.000 OA
ENDROOT
BRANCH   7  12
ATOM     12  O   UNL     1      -1.815  12.158  23.234  0.00  0.00    +0.000 OA
ATOM     13  C   UNL     1      -3.082  12.439  22.671  0.00  0.00    +0.000 C 
ENDBRANCH   7  12
BRANCH   1  14
ATOM     14  C   UNL     1       2.253   7.889  18.118  0.00  0.00    +0.000 C 
BRANCH  14  15
ATOM     15  C   UNL     1       3.088   6.867  18.947  0.00  0.00    +0.000 C 
BRANCH  15  20
ATOM     16  C   UNL     1       2.167   3.176  18.660  0.00  0.00    +0.000 A 
ATOM     17  C   UNL     1       1.316   3.013  19.752  0.00  0.00    +0.000 A 
ATOM     18  C   UNL     1       1.043   4.088  20.600  0.00  0.00    +0.000 A 
ATOM     19  C   UNL     1       1.599   5.343  20.339  0.00  0.00    +0.000 A 
ATOM     20  C   UNL     1       2.426   5.535  19.223  0.00  0.00    +0.000 A 
ATOM     21  C   UNL     1       2.727   4.431  18.411  0.00  0.00    +0.000 A 
BRANCH  16  23
ATOM     22  C   UNL     1       3.632   1.403  18.087  0.00  0.00    +0.000 C 
ATOM     23  O   UNL     1       2.378   2.051  17.911  0.00  0.00    +0.000 OA
ENDBRANCH  16  23
ENDBRANCH  15  20
ENDBRANCH  14  15
ENDBRANCH   1  14
TORSDOF 5
ENDMDL
