MODEL 1
REMARK VINA RESULT:      -7.6      0.000      0.000
REMARK  Name = 
REMARK  4 active torsions:
REMARK  status: ('A' for Active; 'I' for Inactive)
REMARK    1  A    between atoms: C_2  and  C_3
REMARK    2  A    between atoms: C_3  and  C_4
REMARK    3  A    between atoms: C_17  and  C_18
REMARK    4  A    between atoms: C_18  and  N_19
REMARK                            x       y       z     vdW  Elec       q    Type
REMARK                         _______ _______ _______ _____ _____    ______ ____
ROOT
ATOM      1  O   UNL     1       2.117   5.068  21.242  0.00  0.00    +0.000 OA
ATOM      2  C   UNL     1       2.317   5.433  20.080  0.00  0.00    +0.000 C 
ATOM      3  N   UNL     1       1.910   4.656  19.009  0.00  0.00    +0.000 N 
ATOM      4  C   UNL     1       1.071   3.474  19.247  0.00  0.00    +0.000 C 
ATOM      5  C   UNL     1       1.745   2.201  18.729  0.00  0.00    +0.000 C 
ATOM      6  O   UNL     1       2.205   2.348  17.378  0.00  0.00    +0.000 OA
ATOM      7  C   UNL     1       3.075   3.482  17.181  0.00  0.00    +0.000 C 
ATOM      8  C   UNL     1       2.361   4.775  17.621  0.00  0.00    +0.000 C 
ENDROOT
BRANCH   2   9
ATOM      9  C   UNL     1       2.966   6.786  19.811  0.00  0.00    +0.000 C 
BRANCH   9  10
ATOM     10  C   UNL     1       1.990   7.913  19.555  0.00  0.00    +0.000 A 
ATOM     11  C   UNL     1       1.892   8.483  18.263  0.00  0.00    +0.000 A 
ATOM     12  C   UNL     1       1.062   9.580  18.012  0.00  0.00    +0.000 A 
ATOM     13  C   UNL     1       0.343  10.091  19.068  0.00  0.00    +0.000 A 
ATOM     14  C   UNL     1       0.422   9.543  20.327  0.00  0.00    +0.000 A 
ATOM     15  C   UNL     1       1.229   8.456  20.602  0.00  0.00    +0.000 A 
ATOM     16  O   UNL     1      -0.356  10.204  21.228  0.00  0.00    +0.000 OA
ATOM     17  C   UNL     1      -0.896  11.257  20.400  0.00  0.00    +0.000 C 
ATOM     18  O   UNL     1      -0.485  11.168  19.020  0.00  0.00    +0.000 OA
ENDBRANCH   9  10
ENDBRANCH   2   9
BRANCH   7  19
ATOM     19  C   UNL     1       4.437   3.329  17.881  0.00  0.00    +0.000 C 
BRANCH  19  20
ATOM     20  N   UNL     1       5.509   3.939  17.120  0.00  0.00    +0.000 N 
ATOM     21  C   UNL     1       5.640   3.940  15.761  0.00  0.00    +0.000 A 
ATOM     22  C   UNL     1       6.822   4.600  15.523  0.00  0.00    +0.000 A 
ATOM     23  N   UNL     1       7.388   5.028  16.694  0.00  0.00    +0.000 NA
ATOM     24  C   UNL     1       6.572   4.620  17.640  0.00  0.00    +0.000 A 
ENDBRANCH  19  20
ENDBRANCH   7  19
TORSDOF 4
ENDMDL
MODEL 2
REMARK VINA RESULT:      -7.5      1.128      1.334
REMARK  Name = 
REMARK  4 active torsions:
REMARK  status: ('A' for Active; 'I' for Inactive)
REMARK    1  A    between atoms: C_2  and  C_3
REMARK    2  A    between atoms: C_3  and  C_4
REMARK    3  A    between atoms: C_17  and  C_18
REMARK    4  A    between atoms: C_18  and  N_19
REMARK                            x       y       z     vdW  Elec       q    Type
REMARK                         _______ _______ _______ _____ _____    ______ ____
ROOT
ATOM      1  O   UNL     1       2.359   5.221  21.241  0.00  0.00    +0.000 OA
ATOM      2  C   UNL     1       2.239   5.508  20.047  0.00  0.00    +0.000 C 
ATOM      3  N   UNL     1       1.744   4.587  19.138  0.00  0.00    +0.000 N 
ATOM      4  C   UNL     1       1.185   3.318  19.623  0.00  0.00    +0.000 C 
ATOM      5  C   UNL     1       1.933   2.120  19.033  0.00  0.00    +0.000 C 
ATOM      6  O   UNL     1       2.059   2.215  17.607  0.00  0.00    +0.000 OA
ATOM      7  C   UNL     1       2.664   3.444  17.157  0.00  0.00    +0.000 C 
ATOM      8  C   UNL     1       1.858   4.650  17.680  0.00  0.00    +0.000 C 
ENDROOT
BRANCH   2   9
ATOM      9  C   UNL     1       2.579   6.914  19.566  0.00  0.00    +0.000 C 
BRANCH   9  10
ATOM     10  C   UNL     1       1.634   7.992  20.049  0.00  0.00    +0.000 A 
ATOM     11  C   UNL     1       1.276   9.056  19.187  0.00  0.00    +0.000 A 
ATOM     12  C   UNL     1       0.472  10.111  19.629  0.00  0.00    +0.000 A 
ATOM     13  C   UNL     1       0.042  10.082  20.935  0.00  0.00    +0.000 A 
ATOM     14  C   UNL     1       0.375   9.052  21.782  0.00  0.00    +0.000 A 
ATOM     15  C   UNL     1       1.163   7.994  21.371  0.00  0.00    +0.000 A 
ATOM     16  O   UNL     1      -0.140   9.222  23.030  0.00  0.00    +0.000 OA
ATOM     17  C   UNL     1      -0.796  10.500  22.882  0.00  0.00    +0.000 C 
ATOM     18  O   UNL     1      -0.716  11.033  21.544  0.00  0.00    +0.000 OA
ENDBRANCH   9  10
ENDBRANCH   2   9
BRANCH   7  19
ATOM     19  C   UNL     1       4.151   3.561  17.536  0.00  0.00    +0.000 C 
BRANCH  19  20
ATOM     20  N   UNL     1       4.902   4.322  16.557  0.00  0.00    +0.000 N 
ATOM     21  C   UNL     1       5.649   3.814  15.534  0.00  0.00    +0.000 A 
ATOM     22  C   UNL     1       6.192   4.915  14.915  0.00  0.00    +0.000 A 
ATOM     23  N   UNL     1       5.765   6.072  15.512  0.00  0.00    +0.000 NA
ATOM     24  C   UNL     1       4.985   5.684  16.495  0.00  0.00    +0.000 A 
ENDBRANCH  19  20
ENDBRANCH   7  19
TORSDOF 4
ENDMDL
MODEL 3
REMARK VINA RESULT:      -7.5      0.597      1.332
REMARK  Name = 
REMARK  4 active torsions:
REMARK  status: ('A' for Active; 'I' for Inactive)
REMARK    1  A    between atoms: C_2  and  C_3
REMARK    2  A    between atoms: C_3  and  C_4
REMARK    3  A    between atoms: C_17  and  C_18
REMARK    4  A    between atoms: C_18  and  N_19
REMARK                            x       y       z     vdW  Elec       q    Type
REMARK                         _______ _______ _______ _____ _____    ______ ____
ROOT
ATOM      1  O   UNL     1       2.015   5.050  21.259  0.00  0.00    +0.000 OA
ATOM      2  C   UNL     1       2.195   5.425  20.097  0.00  0.00    +0.000 C 
ATOM      3  N   UNL     1       1.833   4.625  19.026  0.00  0.00    +0.000 N 
ATOM      4  C   UNL     1       1.063   3.397  19.265  0.00  0.00    +0.000 C 
ATOM      5  C   UNL     1       1.808   2.164  18.750  0.00  0.00    +0.000 C 
ATOM      6  O   UNL     1       2.261   2.336  17.399  0.00  0.00    +0.000 OA
ATOM      7  C   UNL     1       3.064   3.517  17.200  0.00  0.00    +0.000 C 
ATOM      8  C   UNL     1       2.278   4.768  17.638  0.00  0.00    +0.000 C 
ENDROOT
BRANCH   2   9
ATOM      9  C   UNL     1       2.765   6.813  19.826  0.00  0.00    +0.000 C 
BRANCH   9  10
ATOM     10  C   UNL     1       1.792   7.949  20.051  0.00  0.00    +0.000 A 
ATOM     11  C   UNL     1       1.082   8.040  21.272  0.00  0.00    +0.000 A 
ATOM     12  C   UNL     1       0.116   9.029  21.481  0.00  0.00    +0.000 A 
ATOM     13  C   UNL     1      -0.125   9.912  20.454  0.00  0.00    +0.000 A 
ATOM     14  C   UNL     1       0.562   9.841  19.265  0.00  0.00    +0.000 A 
ATOM     15  C   UNL     1       1.525   8.878  19.034  0.00  0.00    +0.000 A 
ATOM     16  O   UNL     1       0.164  10.796  18.380  0.00  0.00    +0.000 OA
ATOM     17  C   UNL     1      -0.884  11.445  19.134  0.00  0.00    +0.000 C 
ATOM     18  O   UNL     1      -1.046  10.912  20.465  0.00  0.00    +0.000 OA
ENDBRANCH   9  10
ENDBRANCH   2   9
BRANCH   7  19
ATOM     19  C   UNL     1       4.432   3.443  17.901  0.00  0.00    +0.000 C 
BRANCH  19  20
ATOM     20  N   UNL     1       5.494   3.986  17.077  0.00  0.00    +0.000 N 
ATOM     21  C   UNL     1       5.529   4.009  15.712  0.00  0.00    +0.000 A 
ATOM     22  C   UNL     1       6.740   4.580  15.402  0.00  0.00    +0.000 A 
ATOM     23  N   UNL     1       7.419   4.934  16.538  0.00  0.00    +0.000 NA
ATOM     24  C   UNL     1       6.642   4.568  17.532  0.00  0.00    +0.000 A 
ENDBRANCH  19  20
ENDBRANCH   7  19
TORSDOF 4
ENDMDL
MODEL 4
REMARK VINA RESULT:      -7.4      0.797      1.223
REMARK  Name = 
REMARK  4 active torsions:
REMARK  status: ('A' for Active; 'I' for Inactive)
REMARK    1  A    between atoms: C_2  and  C_3
REMARK    2  A    between atoms: C_3  and  C_4
REMARK    3  A    between atoms: C_17  and  C_18
REMARK    4  A    between atoms: C_18  and  N_19
REMARK                            x       y       z     vdW  Elec       q    Type
REMARK                         _______ _______ _______ _____ _____    ______ ____
ROOT
ATOM      1  O   UNL     1       1.596   5.292  20.845  0.00  0.00    +0.000 OA
ATOM      2  C   UNL     1       2.168   5.590  19.792  0.00  0.00    +0.000 C 
ATOM      3  N   UNL     1       2.170   4.724  18.712  0.00  0.00    +0.000 N 
ATOM      4  C   UNL     1       1.334   3.517  18.748  0.00  0.00    +0.000 C 
ATOM      5  C   UNL     1       2.178   2.250  18.591  0.00  0.00    +0.000 C 
ATOM      6  O   UNL     1       3.066   2.332  17.466  0.00  0.00    +0.000 OA
ATOM      7  C   UNL     1       3.919   3.495  17.482  0.00  0.00    +0.000 C 
ATOM      8  C   UNL     1       3.062   4.775  17.552  0.00  0.00    +0.000 C 
ENDROOT
BRANCH   2   9
ATOM      9  C   UNL     1       2.831   6.955  19.649  0.00  0.00    +0.000 C 
BRANCH   9  10
ATOM     10  C   UNL     1       1.876   8.094  19.371  0.00  0.00    +0.000 A 
ATOM     11  C   UNL     1       1.738   8.597  18.055  0.00  0.00    +0.000 A 
ATOM     12  C   UNL     1       0.927   9.702  17.779  0.00  0.00    +0.000 A 
ATOM     13  C   UNL     1       0.268  10.289  18.834  0.00  0.00    +0.000 A 
ATOM     14  C   UNL     1       0.386   9.808  20.116  0.00  0.00    +0.000 A 
ATOM     15  C   UNL     1       1.175   8.715  20.417  0.00  0.00    +0.000 A 
ATOM     16  O   UNL     1      -0.335  10.538  21.011  0.00  0.00    +0.000 OA
ATOM     17  C   UNL     1      -0.881  11.561  20.149  0.00  0.00    +0.000 C 
ATOM     18  O   UNL     1      -0.533  11.385  18.760  0.00  0.00    +0.000 OA
ENDBRANCH   9  10
ENDBRANCH   2   9
BRANCH   7  19
ATOM     19  C   UNL     1       4.966   3.462  18.610  0.00  0.00    +0.000 C 
BRANCH  19  20
ATOM     20  N   UNL     1       6.017   4.438  18.402  0.00  0.00    +0.000 N 
ATOM     21  C   UNL     1       6.459   5.358  19.309  0.00  0.00    +0.000 A 
ATOM     22  C   UNL     1       7.425   6.073  18.641  0.00  0.00    +0.000 A 
ATOM     23  N   UNL     1       7.603   5.588  17.373  0.00  0.00    +0.000 NA
ATOM     24  C   UNL     1       6.744   4.600  17.258  0.00  0.00    +0.000 A 
ENDBRANCH  19  20
ENDBRANCH   7  19
TORSDOF 4
ENDMDL
MODEL 5
REMARK VINA RESULT:      -7.3      0.948      1.788
REMARK  Name = 
REMARK  4 active torsions:
REMARK  status: ('A' for Active; 'I' for Inactive)
REMARK    1  A    between atoms: C_2  and  C_3
REMARK    2  A    between atoms: C_3  and  C_4
REMARK    3  A    between atoms: C_17  and  C_18
REMARK    4  A    between atoms: C_18  and  N_19
REMARK                            x       y       z     vdW  Elec       q    Type
REMARK                         _______ _______ _______ _____ _____    ______ ____
ROOT
ATOM      1  O   UNL     1       1.417   5.349  20.850  0.00  0.00    +0.000 OA
ATOM      2  C   UNL     1       1.984   5.607  19.785  0.00  0.00    +0.000 C 
ATOM      3  N   UNL     1       2.039   4.675  18.762  0.00  0.00    +0.000 N 
ATOM      4  C   UNL     1       1.261   3.434  18.869  0.00  0.00    +0.000 C 
ATOM      5  C   UNL     1       2.166   2.202  18.799  0.00  0.00    +0.000 C 
ATOM      6  O   UNL     1       3.060   2.255  17.678  0.00  0.00    +0.000 OA
ATOM      7  C   UNL     1       3.856   3.456  17.625  0.00  0.00    +0.000 C 
ATOM      8  C   UNL     1       2.939   4.695  17.607  0.00  0.00    +0.000 C 
ENDROOT
BRANCH   2   9
ATOM      9  C   UNL     1       2.583   6.990  19.559  0.00  0.00    +0.000 C 
BRANCH   9  10
ATOM     10  C   UNL     1       1.669   8.140  19.921  0.00  0.00    +0.000 A 
ATOM     11  C   UNL     1       1.117   8.221  21.221  0.00  0.00    +0.000 A 
ATOM     12  C   UNL     1       0.204   9.223  21.564  0.00  0.00    +0.000 A 
ATOM     13  C   UNL     1      -0.143  10.130  20.589  0.00  0.00    +0.000 A 
ATOM     14  C   UNL     1       0.391  10.069  19.324  0.00  0.00    +0.000 A 
ATOM     15  C   UNL     1       1.298   9.093  18.959  0.00  0.00    +0.000 A 
ATOM     16  O   UNL     1      -0.093  11.047  18.511  0.00  0.00    +0.000 OA
ATOM     17  C   UNL     1      -1.027  11.701  19.399  0.00  0.00    +0.000 C 
ATOM     18  O   UNL     1      -1.035  11.146  20.730  0.00  0.00    +0.000 OA
ENDBRANCH   9  10
ENDBRANCH   2   9
BRANCH   7  19
ATOM     19  C   UNL     1       4.892   3.545  18.760  0.00  0.00    +0.000 C 
BRANCH  19  20
ATOM     20  N   UNL     1       5.974   4.454  18.435  0.00  0.00    +0.000 N 
ATOM     21  C   UNL     1       6.520   5.393  19.263  0.00  0.00    +0.000 A 
ATOM     22  C   UNL     1       7.473   6.023  18.499  0.00  0.00    +0.000 A 
ATOM     23  N   UNL     1       7.543   5.468  17.249  0.00  0.00    +0.000 NA
ATOM     24  C   UNL     1       6.631   4.521  17.241  0.00  0.00    +0.000 A 
ENDBRANCH  19  20
ENDBRANCH   7  19
TORSDOF 4
ENDMDL
MODEL 6
REMARK VINA RESULT:      -7.3      1.112      1.466
REMARK  Name = 
REMARK  4 active torsions:
REMARK  status: ('A' for Active; 'I' for Inactive)
REMARK    1  A    between atoms: C_2  and  C_3
REMARK    2  A    between atoms: C_3  and  C_4
REMARK    3  A    between atoms: C_17  and  C_18
REMARK    4  A    between atoms: C_18  and  N_19
REMARK                            x       y       z     vdW  Elec       q    Type
REMARK                         _______ _______ _______ _____ _____    ______ ____
ROOT
ATOM      1  O   UNL     1       1.920   5.221  21.198  0.00  0.00    +0.000 OA
ATOM      2  C   UNL     1       2.164   5.586  20.044  0.00  0.00    +0.000 C 
ATOM      3  N   UNL     1       1.990   4.727  18.972  0.00  0.00    +0.000 N 
ATOM      4  C   UNL     1       1.338   3.428  19.183  0.00  0.00    +0.000 C 
ATOM      5  C   UNL     1       2.256   2.272  18.777  0.00  0.00    +0.000 C 
ATOM      6  O   UNL     1       2.809   2.461  17.466  0.00  0.00    +0.000 OA
ATOM      7  C   UNL     1       3.496   3.718  17.301  0.00  0.00    +0.000 C 
ATOM      8  C   UNL     1       2.542   4.885  17.626  0.00  0.00    +0.000 C 
ENDROOT
BRANCH   2   9
ATOM      9  C   UNL     1       2.604   7.021  19.779  0.00  0.00    +0.000 C 
BRANCH   9  10
ATOM     10  C   UNL     1       1.611   8.077  20.214  0.00  0.00    +0.000 A 
ATOM     11  C   UNL     1       1.184   9.066  19.296  0.00  0.00    +0.000 A 
ATOM     12  C   UNL     1       0.332  10.104  19.688  0.00  0.00    +0.000 A 
ATOM     13  C   UNL     1      -0.075  10.132  21.002  0.00  0.00    +0.000 A 
ATOM     14  C   UNL     1       0.325   9.174  21.902  0.00  0.00    +0.000 A 
ATOM     15  C   UNL     1       1.161   8.135  21.542  0.00  0.00    +0.000 A 
ATOM     16  O   UNL     1      -0.178   9.393  23.148  0.00  0.00    +0.000 OA
ATOM     17  C   UNL     1      -0.903  10.625  22.935  0.00  0.00    +0.000 C 
ATOM     18  O   UNL     1      -0.872  11.078  21.566  0.00  0.00    +0.000 OA
ENDBRANCH   9  10
ENDBRANCH   2   9
BRANCH   7  19
ATOM     19  C   UNL     1       4.794   3.812  18.123  0.00  0.00    +0.000 C 
BRANCH  19  20
ATOM     20  N   UNL     1       5.750   4.722  17.524  0.00  0.00    +0.000 N 
ATOM     21  C   UNL     1       6.123   5.941  18.012  0.00  0.00    +0.000 A 
ATOM     22  C   UNL     1       7.010   6.434  17.085  0.00  0.00    +0.000 A 
ATOM     23  N   UNL     1       7.210   5.533  16.073  0.00  0.00    +0.000 NA
ATOM     24  C   UNL     1       6.441   4.508  16.367  0.00  0.00    +0.000 A 
ENDBRANCH  19  20
ENDBRANCH   7  19
TORSDOF 4
ENDMDL
MODEL 7
REMARK VINA RESULT:      -7.1      3.390      8.118
REMARK  Name = 
REMARK  4 active torsions:
REMARK  status: ('A' for Active; 'I' for Inactive)
REMARK    1  A    between atoms: C_2  and  C_3
REMARK    2  A    between atoms: C_3  and  C_4
REMARK    3  A    between atoms: C_17  and  C_18
REMARK    4  A    between atoms: C_18  and  N_19
REMARK                            x       y       z     vdW  Elec       q    Type
REMARK                         _______ _______ _______ _____ _____    ______ ____
ROOT
ATOM      1  O   UNL     1       1.591   7.738  20.461  0.00  0.00    +0.000 OA
ATOM      2  C   UNL     1       1.640   8.536  19.520  0.00  0.00    +0.000 C 
ATOM      3  N   UNL     1       1.234   9.850  19.677  0.00  0.00    +0.000 N 
ATOM      4  C   UNL     1       0.912  10.354  21.019  0.00  0.00    +0.000 C 
ATOM      5  C   UNL     1      -0.529  10.865  21.090  0.00  0.00    +0.000 C 
ATOM      6  O   UNL     1      -0.830  11.772  20.019  0.00  0.00    +0.000 OA
ATOM      7  C   UNL     1      -0.561  11.235  18.709  0.00  0.00    +0.000 C 
ATOM      8  C   UNL     1       0.915  10.801  18.611  0.00  0.00    +0.000 C 
ENDROOT
BRANCH   2   9
ATOM      9  C   UNL     1       2.214   8.094  18.178  0.00  0.00    +0.000 C 
BRANCH   9  10
ATOM     10  C   UNL     1       2.694   6.660  18.139  0.00  0.00    +0.000 A 
ATOM     11  C   UNL     1       4.081   6.380  18.113  0.00  0.00    +0.000 A 
ATOM     12  C   UNL     1       4.558   5.071  17.994  0.00  0.00    +0.000 A 
ATOM     13  C   UNL     1       3.630   4.060  17.898  0.00  0.00    +0.000 A 
ATOM     14  C   UNL     1       2.279   4.316  17.929  0.00  0.00    +0.000 A 
ATOM     15  C   UNL     1       1.780   5.598  18.052  0.00  0.00    +0.000 A 
ATOM     16  O   UNL     1       1.536   3.182  17.807  0.00  0.00    +0.000 OA
ATOM     17  C   UNL     1       2.575   2.191  17.649  0.00  0.00    +0.000 C 
ATOM     18  O   UNL     1       3.906   2.738  17.744  0.00  0.00    +0.000 OA
ENDBRANCH   9  10
ENDBRANCH   2   9
BRANCH   7  19
ATOM     19  C   UNL     1      -1.508  10.086  18.320  0.00  0.00    +0.000 C 
BRANCH  19  20
ATOM     20  N   UNL     1      -2.506  10.509  17.357  0.00  0.00    +0.000 N 
ATOM     21  C   UNL     1      -2.501  10.249  16.017  0.00  0.00    +0.000 A 
ATOM     22  C   UNL     1      -3.619  10.884  15.532  0.00  0.00    +0.000 A 
ATOM     23  N   UNL     1      -4.317  11.487  16.545  0.00  0.00    +0.000 NA
ATOM     24  C   UNL     1      -3.626  11.240  17.635  0.00  0.00    +0.000 A 
ENDBRANCH  19  20
ENDBRANCH   7  19
TORSDOF 4
ENDMDL
MODEL 8
REMARK VINA RESULT:      -7.0      1.673      2.219
REMARK  Name = 
REMARK  4 active torsions:
REMARK  status: ('A' for Active; 'I' for Inactive)
REMARK    1  A    between atoms: C_2  and  C_3
REMARK    2  A    between atoms: C_3  and  C_4
REMARK    3  A    between atoms: C_17  and  C_18
REMARK    4  A    between atoms: C_18  and  N_19
REMARK                            x       y       z     vdW  Elec       q    Type
REMARK                         _______ _______ _______ _____ _____    ______ ____
ROOT
ATOM      1  O   UNL     1       2.046   7.884  20.630  0.00  0.00    +0.000 OA
ATOM      2  C   UNL     1       2.120   7.433  19.484  0.00  0.00    +0.000 C 
ATOM      3  N   UNL     1       2.037   6.071  19.246  0.00  0.00    +0.000 N 
ATOM      4  C   UNL     1       1.677   5.164  20.344  0.00  0.00    +0.000 C 
ATOM      5  C   UNL     1       2.772   4.123  20.587  0.00  0.00    +0.000 C 
ATOM      6  O   UNL     1       3.171   3.469  19.374  0.00  0.00    +0.000 OA
ATOM      7  C   UNL     1       3.577   4.378  18.330  0.00  0.00    +0.000 C 
ATOM      8  C   UNL     1       2.438   5.370  18.025  0.00  0.00    +0.000 C 
ENDROOT
BRANCH   2   9
ATOM      9  C   UNL     1       2.241   8.385  18.299  0.00  0.00    +0.000 C 
BRANCH   9  10
ATOM     10  C   UNL     1       1.211   9.493  18.272  0.00  0.00    +0.000 A 
ATOM     11  C   UNL     1       1.537  10.774  18.777  0.00  0.00    +0.000 A 
ATOM     12  C   UNL     1       0.584  11.795  18.843  0.00  0.00    +0.000 A 
ATOM     13  C   UNL     1      -0.688  11.510  18.402  0.00  0.00    +0.000 A 
ATOM     14  C   UNL     1      -1.018  10.272  17.902  0.00  0.00    +0.000 A 
ATOM     15  C   UNL     1      -0.095   9.247  17.820  0.00  0.00    +0.000 A 
ATOM     16  O   UNL     1      -2.326  10.195  17.536  0.00  0.00    +0.000 OA
ATOM     17  C   UNL     1      -2.790  11.512  17.905  0.00  0.00    +0.000 C 
ATOM     18  O   UNL     1      -1.746  12.363  18.421  0.00  0.00    +0.000 OA
ENDBRANCH   9  10
ENDBRANCH   2   9
BRANCH   7  19
ATOM     19  C   UNL     1       4.890   5.114  18.646  0.00  0.00    +0.000 C 
BRANCH  19  20
ATOM     20  N   UNL     1       5.904   4.872  17.638  0.00  0.00    +0.000 N 
ATOM     21  C   UNL     1       5.688   4.664  16.306  0.00  0.00    +0.000 A 
ATOM     22  C   UNL     1       6.938   4.444  15.778  0.00  0.00    +0.000 A 
ATOM     23  N   UNL     1       7.903   4.550  16.745  0.00  0.00    +0.000 NA
ATOM     24  C   UNL     1       7.250   4.813  17.855  0.00  0.00    +0.000 A 
ENDBRANCH  19  20
ENDBRANCH   7  19
TORSDOF 4
ENDMDL
MODEL 9
REMARK VINA RESULT:      -7.0      3.303      8.096
REMARK  Name = 
REMARK  4 active torsions:
REMARK  status: ('A' for Active; 'I' for Inactive)
REMARK    1  A    between atoms: C_2  and  C_3
REMARK    2  A    between atoms: C_3  and  C_4
REMARK    3  A    between atoms: C_17  and  C_18
REMARK    4  A    between atoms: C_18  and  N_19
REMARK                            x       y       z     vdW  Elec       q    Type
REMARK                         _______ _______ _______ _____ _____    ______ ____
ROOT
ATOM      1  O   UNL     1       1.457   7.492  20.697  0.00  0.00    +0.000 OA
ATOM      2  C   UNL     1       1.668   8.248  19.745  0.00  0.00    +0.000 C 
ATOM      3  N   UNL     1       1.319   9.587  19.807  0.00  0.00    +0.000 N 
ATOM      4  C   UNL     1       0.861  10.159  21.080  0.00  0.00    +0.000 C 
ATOM      5  C   UNL     1      -0.547  10.746  20.951  0.00  0.00    +0.000 C 
ATOM      6  O   UNL     1      -0.660  11.625  19.822  0.00  0.00    +0.000 OA
ATOM      7  C   UNL     1      -0.260  11.024  18.574  0.00  0.00    +0.000 C 
ATOM      8  C   UNL     1       1.190  10.511  18.679  0.00  0.00    +0.000 C 
ENDROOT
BRANCH   2   9
ATOM      9  C   UNL     1       2.378   7.725  18.501  0.00  0.00    +0.000 C 
BRANCH   9  10
ATOM     10  C   UNL     1       2.620   6.232  18.495  0.00  0.00    +0.000 A 
ATOM     11  C   UNL     1       1.652   5.362  17.938  0.00  0.00    +0.000 A 
ATOM     12  C   UNL     1       1.806   3.973  17.990  0.00  0.00    +0.000 A 
ATOM     13  C   UNL     1       2.932   3.478  18.606  0.00  0.00    +0.000 A 
ATOM     14  C   UNL     1       3.884   4.311  19.145  0.00  0.00    +0.000 A 
ATOM     15  C   UNL     1       3.761   5.686  19.103  0.00  0.00    +0.000 A 
ATOM     16  O   UNL     1       4.909   3.622  19.718  0.00  0.00    +0.000 OA
ATOM     17  C   UNL     1       4.467   2.261  19.517  0.00  0.00    +0.000 C 
ATOM     18  O   UNL     1       3.232   2.164  18.779  0.00  0.00    +0.000 OA
ENDBRANCH   9  10
ENDBRANCH   2   9
BRANCH   7  19
ATOM     19  C   UNL     1      -1.214   9.911  18.106  0.00  0.00    +0.000 C 
BRANCH  19  20
ATOM     20  N   UNL     1      -2.331  10.438  17.346  0.00  0.00    +0.000 N 
ATOM     21  C   UNL     1      -3.414  11.099  17.851  0.00  0.00    +0.000 A 
ATOM     22  C   UNL     1      -4.206  11.360  16.758  0.00  0.00    +0.000 A 
ATOM     23  N   UNL     1      -3.615  10.910  15.607  0.00  0.00    +0.000 NA
ATOM     24  C   UNL     1      -2.484  10.363  15.992  0.00  0.00    +0.000 A 
ENDBRANCH  19  20
ENDBRANCH   7  19
TORSDOF 4
ENDMDL
