MODEL 1
REMARK VINA RESULT:      -6.9      0.000      0.000
REMARK  Name = 
REMARK  6 active torsions:
REMARK  status: ('A' for Active; 'I' for Inactive)
REMARK    1  A    between atoms: C_1  and  C_2
REMARK    2  A    between atoms: C_2  and  C_3
REMARK    3  A    between atoms: C_2  and  C_4
REMARK    4  A    between atoms: C_4  and  C_5
REMARK    5  A    between atoms: C_8  and  C_9
REMARK    6  A    between atoms: C_9  and  N_10
REMARK                            x       y       z     vdW  Elec       q    Type
REMARK                         _______ _______ _______ _____ _____    ______ ____
ROOT
ATOM      1  C   UNL     1       6.805   4.365  13.551  0.00  0.00    +0.000 A 
ATOM      2  N   UNL     1       7.661   5.342  13.879  0.00  0.00    +0.000 NA
ATOM      3  O   UNL     1       7.459   5.495  15.251  0.00  0.00    +0.000 OA
ATOM      4  C   UNL     1       6.500   4.586  15.607  0.00  0.00    +0.000 A 
ATOM      5  N   UNL     1       6.068   3.870  14.596  0.00  0.00    +0.000 NA
ENDROOT
BRANCH   1   6
ATOM      6  C   UNL     1       6.728   3.781  12.189  0.00  0.00    +0.000 C 
BRANCH   6   8
ATOM      7  C   UNL     1       4.424   3.228  11.388  0.00  0.00    +0.000 C 
ATOM      8  C   UNL     1       5.692   2.654  12.027  0.00  0.00    +0.000 C 
ATOM      9  C   UNL     1       6.203   1.488  11.174  0.00  0.00    +0.000 C 
ENDBRANCH   6   8
ENDBRANCH   1   6
BRANCH   4  10
ATOM     10  C   UNL     1       6.121   4.555  17.045  0.00  0.00    +0.000 C 
BRANCH  10  11
ATOM     11  N   UNL     1       4.689   4.495  17.357  0.00  0.00    +0.000 NA
ATOM     12  C   UNL     1       4.141   5.656  18.070  0.00  0.00    +0.000 C 
ATOM     13  C   UNL     1       3.877   5.452  19.570  0.00  0.00    +0.000 C 
ATOM     14  O   UNL     1       3.118   4.261  19.800  0.00  0.00    +0.000 OA
ATOM     15  C   UNL     1       3.867   3.126  19.358  0.00  0.00    +0.000 C 
ATOM     16  C   UNL     1       4.190   3.209  17.856  0.00  0.00    +0.000 C 
ENDBRANCH  10  11
ENDBRANCH   4  10
TORSDOF 4
ENDMDL
MODEL 2
REMARK VINA RESULT:      -6.3      3.237      6.346
REMARK  Name = 
REMARK  6 active torsions:
REMARK  status: ('A' for Active; 'I' for Inactive)
REMARK    1  A    between atoms: C_1  and  C_2
REMARK    2  A    between atoms: C_2  and  C_3
REMARK    3  A    between atoms: C_2  and  C_4
REMARK    4  A    between atoms: C_4  and  C_5
REMARK    5  A    between atoms: C_8  and  C_9
REMARK    6  A    between atoms: C_9  and  N_10
REMARK                            x       y       z     vdW  Elec       q    Type
REMARK                         _______ _______ _______ _____ _____    ______ ____
ROOT
ATOM      1  C   UNL     1       2.174   2.936  18.431  0.00  0.00    +0.000 A 
ATOM      2  N   UNL     1       3.181   2.079  18.643  0.00  0.00    +0.000 NA
ATOM      3  O   UNL     1       4.184   2.552  17.794  0.00  0.00    +0.000 OA
ATOM      4  C   UNL     1       3.672   3.651  17.162  0.00  0.00    +0.000 A 
ATOM      5  N   UNL     1       2.440   3.926  17.520  0.00  0.00    +0.000 NA
ENDROOT
BRANCH   1   6
ATOM      6  C   UNL     1       0.903   2.892  19.195  0.00  0.00    +0.000 C 
BRANCH   6   8
ATOM      7  C   UNL     1       1.561   2.660  21.597  0.00  0.00    +0.000 C 
ATOM      8  C   UNL     1       0.945   3.603  20.560  0.00  0.00    +0.000 C 
ATOM      9  C   UNL     1       1.743   4.911  20.531  0.00  0.00    +0.000 C 
ENDBRANCH   6   8
ENDBRANCH   1   6
BRANCH   4  10
ATOM     10  C   UNL     1       4.576   4.342  16.204  0.00  0.00    +0.000 C 
BRANCH  10  11
ATOM     11  N   UNL     1       5.514   5.324  16.760  0.00  0.00    +0.000 NA
ATOM     12  C   UNL     1       6.938   5.043  16.538  0.00  0.00    +0.000 C 
ATOM     13  C   UNL     1       7.706   4.497  17.753  0.00  0.00    +0.000 C 
ATOM     14  O   UNL     1       7.482   5.309  18.909  0.00  0.00    +0.000 OA
ATOM     15  C   UNL     1       6.094   5.277  19.253  0.00  0.00    +0.000 C 
ATOM     16  C   UNL     1       5.213   5.811  18.111  0.00  0.00    +0.000 C 
ENDBRANCH  10  11
ENDBRANCH   4  10
TORSDOF 4
ENDMDL
MODEL 3
REMARK VINA RESULT:      -6.3      3.062      5.898
REMARK  Name = 
REMARK  6 active torsions:
REMARK  status: ('A' for Active; 'I' for Inactive)
REMARK    1  A    between atoms: C_1  and  C_2
REMARK    2  A    between atoms: C_2  and  C_3
REMARK    3  A    between atoms: C_2  and  C_4
REMARK    4  A    between atoms: C_4  and  C_5
REMARK    5  A    between atoms: C_8  and  C_9
REMARK    6  A    between atoms: C_9  and  N_10
REMARK                            x       y       z     vdW  Elec       q    Type
REMARK                         _______ _______ _______ _____ _____    ______ ____
ROOT
ATOM      1  C   UNL     1       3.557   4.202  19.730  0.00  0.00    +0.000 A 
ATOM      2  N   UNL     1       4.254   3.060  19.659  0.00  0.00    +0.000 NA
ATOM      3  O   UNL     1       5.554   3.496  19.397  0.00  0.00    +0.000 OA
ATOM      4  C   UNL     1       5.502   4.862  19.342  0.00  0.00    +0.000 A 
ATOM      5  N   UNL     1       4.296   5.342  19.539  0.00  0.00    +0.000 NA
ENDROOT
BRANCH   1   6
ATOM      6  C   UNL     1       2.119   4.249  20.092  0.00  0.00    +0.000 C 
BRANCH   6   8
ATOM      7  C   UNL     1       1.722   4.366  17.625  0.00  0.00    +0.000 C 
ATOM      8  C   UNL     1       1.154   3.866  18.956  0.00  0.00    +0.000 C 
ATOM      9  C   UNL     1       0.906   2.356  18.864  0.00  0.00    +0.000 C 
ENDBRANCH   6   8
ENDBRANCH   1   6
BRANCH   4  10
ATOM     10  C   UNL     1       6.788   5.562  19.081  0.00  0.00    +0.000 C 
BRANCH  10  11
ATOM     11  N   UNL     1       7.093   5.902  17.687  0.00  0.00    +0.000 NA
ATOM     12  C   UNL     1       6.311   7.004  17.113  0.00  0.00    +0.000 C 
ATOM     13  C   UNL     1       5.186   6.591  16.150  0.00  0.00    +0.000 C 
ATOM     14  O   UNL     1       5.669   5.687  15.153  0.00  0.00    +0.000 OA
ATOM     15  C   UNL     1       6.132   4.488  15.781  0.00  0.00    +0.000 C 
ATOM     16  C   UNL     1       7.275   4.770  16.771  0.00  0.00    +0.000 C 
ENDBRANCH  10  11
ENDBRANCH   4  10
TORSDOF 4
ENDMDL
MODEL 4
REMARK VINA RESULT:      -6.2      2.839      6.349
REMARK  Name = 
REMARK  6 active torsions:
REMARK  status: ('A' for Active; 'I' for Inactive)
REMARK    1  A    between atoms: C_1  and  C_2
REMARK    2  A    between atoms: C_2  and  C_3
REMARK    3  A    between atoms: C_2  and  C_4
REMARK    4  A    between atoms: C_4  and  C_5
REMARK    5  A    between atoms: C_8  and  C_9
REMARK    6  A    between atoms: C_9  and  N_10
REMARK                            x       y       z     vdW  Elec       q    Type
REMARK                         _______ _______ _______ _____ _____    ______ ____
ROOT
ATOM      1  C   UNL     1       3.338   4.534  19.100  0.00  0.00    +0.000 A 
ATOM      2  N   UNL     1       3.089   5.717  19.678  0.00  0.00    +0.000 NA
ATOM      3  O   UNL     1       3.562   6.634  18.738  0.00  0.00    +0.000 OA
ATOM      4  C   UNL     1       4.044   5.903  17.688  0.00  0.00    +0.000 A 
ATOM      5  N   UNL     1       3.929   4.608  17.864  0.00  0.00    +0.000 NA
ENDROOT
BRANCH   1   6
ATOM      6  C   UNL     1       2.914   3.241  19.692  0.00  0.00    +0.000 C 
BRANCH   6   8
ATOM      7  C   UNL     1       0.567   2.485  19.271  0.00  0.00    +0.000 C 
ATOM      8  C   UNL     1       1.481   3.226  20.252  0.00  0.00    +0.000 C 
ATOM      9  C   UNL     1       1.383   2.563  21.631  0.00  0.00    +0.000 C 
ENDBRANCH   6   8
ENDBRANCH   1   6
BRANCH   4  10
ATOM     10  C   UNL     1       4.598   6.677  16.544  0.00  0.00    +0.000 C 
BRANCH  10  11
ATOM     11  N   UNL     1       6.020   6.487  16.237  0.00  0.00    +0.000 NA
ATOM     12  C   UNL     1       6.331   5.403  15.296  0.00  0.00    +0.000 C 
ATOM     13  C   UNL     1       6.900   4.120  15.923  0.00  0.00    +0.000 C 
ATOM     14  O   UNL     1       7.994   4.417  16.796  0.00  0.00    +0.000 OA
ATOM     15  C   UNL     1       7.532   5.232  17.877  0.00  0.00    +0.000 C 
ATOM     16  C   UNL     1       6.942   6.561  17.375  0.00  0.00    +0.000 C 
ENDBRANCH  10  11
ENDBRANCH   4  10
TORSDOF 4
ENDMDL
MODEL 5
REMARK VINA RESULT:      -6.1      2.746      6.269
REMARK  Name = 
REMARK  6 active torsions:
REMARK  status: ('A' for Active; 'I' for Inactive)
REMARK    1  A    between atoms: C_1  and  C_2
REMARK    2  A    between atoms: C_2  and  C_3
REMARK    3  A    between atoms: C_2  and  C_4
REMARK    4  A    between atoms: C_4  and  C_5
REMARK    5  A    between atoms: C_8  and  C_9
REMARK    6  A    between atoms: C_9  and  N_10
REMARK                            x       y       z     vdW  Elec       q    Type
REMARK                         _______ _______ _______ _____ _____    ______ ____
ROOT
ATOM      1  C   UNL     1       3.571   4.085  19.332  0.00  0.00    +0.000 A 
ATOM      2  N   UNL     1       3.311   5.195  20.037  0.00  0.00    +0.000 NA
ATOM      3  O   UNL     1       3.610   6.219  19.137  0.00  0.00    +0.000 OA
ATOM      4  C   UNL     1       4.016   5.614  17.980  0.00  0.00    +0.000 A 
ATOM      5  N   UNL     1       4.009   4.304  18.051  0.00  0.00    +0.000 NA
ENDROOT
BRANCH   1   6
ATOM      6  C   UNL     1       3.305   2.720  19.849  0.00  0.00    +0.000 C 
BRANCH   6   8
ATOM      7  C   UNL     1       1.298   2.790  21.340  0.00  0.00    +0.000 C 
ATOM      8  C   UNL     1       1.815   2.351  19.967  0.00  0.00    +0.000 C 
ATOM      9  C   UNL     1       0.951   2.991  18.874  0.00  0.00    +0.000 C 
ENDBRANCH   6   8
ENDBRANCH   1   6
BRANCH   4  10
ATOM     10  C   UNL     1       4.382   6.517  16.856  0.00  0.00    +0.000 C 
BRANCH  10  11
ATOM     11  N   UNL     1       5.757   6.433  16.351  0.00  0.00    +0.000 NA
ATOM     12  C   UNL     1       5.979   5.474  15.260  0.00  0.00    +0.000 C 
ATOM     13  C   UNL     1       6.669   4.160  15.660  0.00  0.00    +0.000 C 
ATOM     14  O   UNL     1       7.857   4.413  16.416  0.00  0.00    +0.000 OA
ATOM     15  C   UNL     1       7.513   5.082  17.633  0.00  0.00    +0.000 C 
ATOM     16  C   UNL     1       6.817   6.426  17.365  0.00  0.00    +0.000 C 
ENDBRANCH  10  11
ENDBRANCH   4  10
TORSDOF 4
ENDMDL
MODEL 6
REMARK VINA RESULT:      -6.1      3.752      4.715
REMARK  Name = 
REMARK  6 active torsions:
REMARK  status: ('A' for Active; 'I' for Inactive)
REMARK    1  A    between atoms: C_1  and  C_2
REMARK    2  A    between atoms: C_2  and  C_3
REMARK    3  A    between atoms: C_2  and  C_4
REMARK    4  A    between atoms: C_4  and  C_5
REMARK    5  A    between atoms: C_8  and  C_9
REMARK    6  A    between atoms: C_9  and  N_10
REMARK                            x       y       z     vdW  Elec       q    Type
REMARK                         _______ _______ _______ _____ _____    ______ ____
ROOT
ATOM      1  C   UNL     1       5.984   4.269  17.568  0.00  0.00    +0.000 A 
ATOM      2  N   UNL     1       5.858   4.006  18.876  0.00  0.00    +0.000 NA
ATOM      3  O   UNL     1       4.646   3.318  18.946  0.00  0.00    +0.000 OA
ATOM      4  C   UNL     1       4.171   3.236  17.667  0.00  0.00    +0.000 A 
ATOM      5  N   UNL     1       4.958   3.806  16.785  0.00  0.00    +0.000 NA
ENDROOT
BRANCH   1   6
ATOM      6  C   UNL     1       7.187   4.915  16.986  0.00  0.00    +0.000 C 
BRANCH   6   8
ATOM      7  C   UNL     1       5.819   7.005  17.111  0.00  0.00    +0.000 C 
ATOM      8  C   UNL     1       7.243   6.444  17.152  0.00  0.00    +0.000 C 
ATOM      9  C   UNL     1       7.920   6.882  18.456  0.00  0.00    +0.000 C 
ENDBRANCH   6   8
ENDBRANCH   1   6
BRANCH   4  10
ATOM     10  C   UNL     1       2.877   2.524  17.487  0.00  0.00    +0.000 C 
BRANCH  10  11
ATOM     11  N   UNL     1       1.669   3.202  17.970  0.00  0.00    +0.000 NA
ATOM     12  C   UNL     1       1.785   4.654  18.161  0.00  0.00    +0.000 C 
ATOM     13  C   UNL     1       1.921   5.124  19.619  0.00  0.00    +0.000 C 
ATOM     14  O   UNL     1       0.905   4.544  20.442  0.00  0.00    +0.000 OA
ATOM     15  C   UNL     1       1.057   3.122  20.454  0.00  0.00    +0.000 C 
ATOM     16  C   UNL     1       0.933   2.525  19.042  0.00  0.00    +0.000 C 
ENDBRANCH  10  11
ENDBRANCH   4  10
TORSDOF 4
ENDMDL
MODEL 7
REMARK VINA RESULT:      -6.1      3.006      5.653
REMARK  Name = 
REMARK  6 active torsions:
REMARK  status: ('A' for Active; 'I' for Inactive)
REMARK    1  A    between atoms: C_1  and  C_2
REMARK    2  A    between atoms: C_2  and  C_3
REMARK    3  A    between atoms: C_2  and  C_4
REMARK    4  A    between atoms: C_4  and  C_5
REMARK    5  A    between atoms: C_8  and  C_9
REMARK    6  A    between atoms: C_9  and  N_10
REMARK                            x       y       z     vdW  Elec       q    Type
REMARK                         _______ _______ _______ _____ _____    ______ ____
ROOT
ATOM      1  C   UNL     1       3.878   3.593  19.612  0.00  0.00    +0.000 A 
ATOM      2  N   UNL     1       3.362   4.812  19.822  0.00  0.00    +0.000 NA
ATOM      3  O   UNL     1       4.459   5.656  19.639  0.00  0.00    +0.000 OA
ATOM      4  C   UNL     1       5.522   4.852  19.332  0.00  0.00    +0.000 A 
ATOM      5  N   UNL     1       5.214   3.576  19.305  0.00  0.00    +0.000 NA
ENDROOT
BRANCH   1   6
ATOM      6  C   UNL     1       3.054   2.358  19.604  0.00  0.00    +0.000 C 
BRANCH   6   8
ATOM      7  C   UNL     1       0.695   2.560  18.796  0.00  0.00    +0.000 C 
ATOM      8  C   UNL     1       2.128   2.208  18.383  0.00  0.00    +0.000 C 
ATOM      9  C   UNL     1       2.543   3.092  17.202  0.00  0.00    +0.000 C 
ENDBRANCH   6   8
ENDBRANCH   1   6
BRANCH   4  10
ATOM     10  C   UNL     1       6.817   5.538  19.079  0.00  0.00    +0.000 C 
BRANCH  10  11
ATOM     11  N   UNL     1       7.127   5.886  17.688  0.00  0.00    +0.000 NA
ATOM     12  C   UNL     1       6.351   6.994  17.118  0.00  0.00    +0.000 C 
ATOM     13  C   UNL     1       5.227   6.591  16.149  0.00  0.00    +0.000 C 
ATOM     14  O   UNL     1       5.711   5.691  15.148  0.00  0.00    +0.000 OA
ATOM     15  C   UNL     1       6.168   4.487  15.770  0.00  0.00    +0.000 C 
ATOM     16  C   UNL     1       7.308   4.759  16.766  0.00  0.00    +0.000 C 
ENDBRANCH  10  11
ENDBRANCH   4  10
TORSDOF 4
ENDMDL
MODEL 8
REMARK VINA RESULT:      -6.1      1.229      1.736
REMARK  Name = 
REMARK  6 active torsions:
REMARK  status: ('A' for Active; 'I' for Inactive)
REMARK    1  A    between atoms: C_1  and  C_2
REMARK    2  A    between atoms: C_2  and  C_3
REMARK    3  A    between atoms: C_2  and  C_4
REMARK    4  A    between atoms: C_4  and  C_5
REMARK    5  A    between atoms: C_8  and  C_9
REMARK    6  A    between atoms: C_9  and  N_10
REMARK                            x       y       z     vdW  Elec       q    Type
REMARK                         _______ _______ _______ _____ _____    ______ ____
ROOT
ATOM      1  C   UNL     1       6.531   4.489  14.063  0.00  0.00    +0.000 A 
ATOM      2  N   UNL     1       7.484   5.130  14.754  0.00  0.00    +0.000 NA
ATOM      3  O   UNL     1       6.991   5.119  16.060  0.00  0.00    +0.000 OA
ATOM      4  C   UNL     1       5.790   4.466  16.017  0.00  0.00    +0.000 A 
ATOM      5  N   UNL     1       5.465   4.061  14.812  0.00  0.00    +0.000 NA
ENDROOT
BRANCH   1   6
ATOM      6  C   UNL     1       6.659   4.167  12.620  0.00  0.00    +0.000 C 
BRANCH   6   8
ATOM      7  C   UNL     1       4.642   3.260  11.450  0.00  0.00    +0.000 C 
ATOM      8  C   UNL     1       5.935   2.882  12.179  0.00  0.00    +0.000 C 
ATOM      9  C   UNL     1       6.789   1.996  11.265  0.00  0.00    +0.000 C 
ENDBRANCH   6   8
ENDBRANCH   1   6
BRANCH   4  10
ATOM     10  C   UNL     1       5.072   4.318  17.311  0.00  0.00    +0.000 C 
BRANCH  10  11
ATOM     11  N   UNL     1       4.927   5.523  18.135  0.00  0.00    +0.000 NA
ATOM     12  C   UNL     1       4.495   5.301  19.521  0.00  0.00    +0.000 C 
ATOM     13  C   UNL     1       3.024   5.631  19.821  0.00  0.00    +0.000 C 
ATOM     14  O   UNL     1       2.683   6.937  19.345  0.00  0.00    +0.000 OA
ATOM     15  C   UNL     1       2.832   6.979  17.923  0.00  0.00    +0.000 C 
ATOM     16  C   UNL     1       4.276   6.670  17.493  0.00  0.00    +0.000 C 
ENDBRANCH  10  11
ENDBRANCH   4  10
TORSDOF 4
ENDMDL
MODEL 9
REMARK VINA RESULT:      -6.0      3.073      5.777
REMARK  Name = 
REMARK  6 active torsions:
REMARK  status: ('A' for Active; 'I' for Inactive)
REMARK    1  A    between atoms: C_1  and  C_2
REMARK    2  A    between atoms: C_2  and  C_3
REMARK    3  A    between atoms: C_2  and  C_4
REMARK    4  A    between atoms: C_4  and  C_5
REMARK    5  A    between atoms: C_8  and  C_9
REMARK    6  A    between atoms: C_9  and  N_10
REMARK                            x       y       z     vdW  Elec       q    Type
REMARK                         _______ _______ _______ _____ _____    ______ ____
ROOT
ATOM      1  C   UNL     1       3.706   2.763  18.679  0.00  0.00    +0.000 A 
ATOM      2  N   UNL     1       4.422   2.184  19.652  0.00  0.00    +0.000 NA
ATOM      3  O   UNL     1       5.399   3.138  19.938  0.00  0.00    +0.000 OA
ATOM      4  C   UNL     1       5.165   4.197  19.105  0.00  0.00    +0.000 A 
ATOM      5  N   UNL     1       4.135   4.013  18.313  0.00  0.00    +0.000 NA
ENDROOT
BRANCH   1   6
ATOM      6  C   UNL     1       2.478   2.156  18.109  0.00  0.00    +0.000 C 
BRANCH   6   8
ATOM      7  C   UNL     1       0.979   3.119  19.865  0.00  0.00    +0.000 C 
ATOM      8  C   UNL     1       1.186   2.957  18.356  0.00  0.00    +0.000 C 
ATOM      9  C   UNL     1       1.203   4.340  17.698  0.00  0.00    +0.000 C 
ENDBRANCH   6   8
ENDBRANCH   1   6
BRANCH   4  10
ATOM     10  C   UNL     1       6.086   5.358  19.237  0.00  0.00    +0.000 C 
BRANCH  10  11
ATOM     11  N   UNL     1       6.800   5.784  18.028  0.00  0.00    +0.000 NA
ATOM     12  C   UNL     1       6.134   6.817  17.224  0.00  0.00    +0.000 C 
ATOM     13  C   UNL     1       5.453   6.323  15.937  0.00  0.00    +0.000 C 
ATOM     14  O   UNL     1       6.345   5.517  15.161  0.00  0.00    +0.000 OA
ATOM     15  C   UNL     1       6.704   4.351  15.908  0.00  0.00    +0.000 C 
ATOM     16  C   UNL     1       7.407   4.716  17.227  0.00  0.00    +0.000 C 
ENDBRANCH  10  11
ENDBRANCH   4  10
TORSDOF 4
ENDMDL
