MODEL 1
REMARK VINA RESULT:      -8.6      0.000      0.000
REMARK  Name = 
REMARK  10 active torsions:
REMARK  status: ('A' for Active; 'I' for Inactive)
REMARK    1  A    between atoms: CG1_1  and  CB_2
REMARK    2  A    between atoms: CB_2  and  CG2_3
REMARK    3  A    between atoms: CB_2  and  CA_4
REMARK    4  A    between atoms: CA_4  and  N_5
REMARK    5  A    between atoms: CA_4  and  C_28
REMARK    6  A    between atoms: C_6  and  C_8
REMARK    7  A    between atoms: C_10  and  O_11
REMARK    8  A    between atoms: C_19  and  O_20
REMARK    9  A    between atoms: C_23  and  O_24
REMARK   10  A    between atoms: C_28  and  OXT_30
REMARK                            x       y       z     vdW  Elec       q    Type
REMARK                         _______ _______ _______ _____ _____    ______ ____
ROOT
ATOM      1  C   UNK A   0       2.042   7.345  19.847  0.00  0.00    +0.000 A 
ATOM      2  C   UNK A   0       2.180   8.055  18.658  0.00  0.00    +0.000 A 
ATOM      3  C   UNK A   0       1.589   9.314  18.542  0.00  0.00    +0.000 A 
ATOM      4  C   UNK A   0       0.846   9.879  19.601  0.00  0.00    +0.000 A 
ATOM      5  C   UNK A   0       0.738   9.162  20.790  0.00  0.00    +0.000 A 
ATOM      6  C   UNK A   0       1.330   7.900  20.913  0.00  0.00    +0.000 A 
ATOM      7  C   UNK A   0      -0.013   9.696  21.938  0.00  0.00    +0.000 C 
ATOM      8  O   UNK A   0      -0.049   9.073  22.993  0.00  0.00    +0.000 OA
ATOM      9  C   UNK A   0      -0.711  10.988  21.813  0.00  0.00    +0.000 A 
ATOM     10  C   UNK A   0      -1.445  11.464  22.915  0.00  0.00    +0.000 A 
ATOM     11  C   UNK A   0      -2.117  12.679  22.826  0.00  0.00    +0.000 A 
ATOM     12  C   UNK A   0      -2.068  13.421  21.645  0.00  0.00    +0.000 A 
ATOM     13 CL   UNK A   0      -2.898  14.935  21.515  0.00  0.00    +0.000 Cl
ATOM     14  C   UNK A   0      -1.334  12.941  20.549  0.00  0.00    +0.000 A 
ATOM     15  C   UNK A   0      -0.642  11.719  20.624  0.00  0.00    +0.000 A 
ATOM     16  C   UNK A   0       0.154  11.189  19.481  0.00  0.00    +0.000 C 
ATOM     17  O   UNK A   0       0.252  11.843  18.446  0.00  0.00    +0.000 OA
ENDROOT
BRANCH   1  19
ATOM     18  N   VAL A   1       3.430   5.573  18.942  0.00  0.00    +0.000 N 
ATOM     19  C   UNK A   0       2.588   5.968  19.958  0.00  0.00    +0.000 C 
ATOM     20  O   UNK A   0       2.300   5.271  20.923  0.00  0.00    +0.000 OA
ATOM     21  H   VAL A   1       3.555   6.160  18.122  0.00  0.00    +0.000 HD
BRANCH  18  22
ATOM     22  CA  VAL A   1       4.168   4.308  18.990  0.00  0.00    +0.000 C 
BRANCH  22  24
ATOM     23  CG1 VAL A   1       2.257   3.681  17.387  0.00  0.00    +0.000 C 
ATOM     24  CB  VAL A   1       3.613   3.281  17.978  0.00  0.00    +0.000 C 
ATOM     25  CG2 VAL A   1       3.541   1.853  18.525  0.00  0.00    +0.000 C 
ENDBRANCH  22  24
BRANCH  22  26
ATOM     26  C   VAL A   1       5.690   4.567  18.900  0.00  0.00    +0.000 C 
ATOM     27  O   VAL A   1       6.347   5.151  19.747  0.00  0.00    +0.000 OA
BRANCH  26  28
ATOM     28  OXT VAL A   1       6.259   4.041  17.786  0.00  0.00    +0.000 OA
ATOM     29  HXT VAL A   1       5.639   3.600  17.172  0.00  0.00    +0.000 HD
ENDBRANCH  26  28
ENDBRANCH  22  26
ENDBRANCH  18  22
ENDBRANCH   1  19
BRANCH   3  30
ATOM     30  O   UNK A   0       1.750   9.989  17.365  0.00  0.00    +0.000 OA
ATOM     31  H   UNK A   0       1.528  10.930  17.458  0.00  0.00    +0.000 HD
ENDBRANCH   3  30
BRANCH  11  32
ATOM     32  O   UNK A   0      -2.829  13.147  23.894  0.00  0.00    +0.000 OA
ATOM     33  H   UNK A   0      -3.680  12.683  23.963  0.00  0.00    +0.000 HD
ENDBRANCH  11  32
BRANCH  14  34
ATOM     34  O   UNK A   0      -1.311  13.685  19.398  0.00  0.00    +0.000 OA
ATOM     35  H   UNK A   0      -0.409  13.680  19.031  0.00  0.00    +0.000 HD
ENDBRANCH  14  34
TORSDOF 8
ENDMDL
MODEL 2
REMARK VINA RESULT:      -8.3      1.424      1.671
REMARK  Name = 
REMARK  10 active torsions:
REMARK  status: ('A' for Active; 'I' for Inactive)
REMARK    1  A    between atoms: CG1_1  and  CB_2
REMARK    2  A    between atoms: CB_2  and  CG2_3
REMARK    3  A    between atoms: CB_2  and  CA_4
REMARK    4  A    between atoms: CA_4  and  N_5
REMARK    5  A    between atoms: CA_4  and  C_28
REMARK    6  A    between atoms: C_6  and  C_8
REMARK    7  A    between atoms: C_10  and  O_11
REMARK    8  A    between atoms: C_19  and  O_20
REMARK    9  A    between atoms: C_23  and  O_24
REMARK   10  A    between atoms: C_28  and  OXT_30
REMARK                            x       y       z     vdW  Elec       q    Type
REMARK                         _______ _______ _______ _____ _____    ______ ____
ROOT
ATOM      1  C   UNK A   0       2.367   7.345  19.522  0.00  0.00    +0.000 A 
ATOM      2  C   UNK A   0       2.413   8.126  18.371  0.00  0.00    +0.000 A 
ATOM      3  C   UNK A   0       1.715   9.334  18.337  0.00  0.00    +0.000 A 
ATOM      4  C   UNK A   0       0.954   9.776  19.441  0.00  0.00    +0.000 A 
ATOM      5  C   UNK A   0       0.938   8.991  20.591  0.00  0.00    +0.000 A 
ATOM      6  C   UNK A   0       1.638   7.780  20.632  0.00  0.00    +0.000 A 
ATOM      7  C   UNK A   0       0.174   9.397  21.782  0.00  0.00    +0.000 C 
ATOM      8  O   UNK A   0       0.219   8.719  22.802  0.00  0.00    +0.000 OA
ATOM      9  C   UNK A   0      -0.634  10.629  21.743  0.00  0.00    +0.000 A 
ATOM     10  C   UNK A   0      -1.377  10.981  22.884  0.00  0.00    +0.000 A 
ATOM     11  C   UNK A   0      -2.152  12.137  22.876  0.00  0.00    +0.000 A 
ATOM     12  C   UNK A   0      -2.196  12.941  21.737  0.00  0.00    +0.000 A 
ATOM     13 CL   UNK A   0      -3.155  14.383  21.707  0.00  0.00    +0.000 Cl
ATOM     14  C   UNK A   0      -1.453  12.585  20.601  0.00  0.00    +0.000 A 
ATOM     15  C   UNK A   0      -0.658  11.425  20.595  0.00  0.00    +0.000 A 
ATOM     16  C   UNK A   0       0.150  11.026  19.407  0.00  0.00    +0.000 C 
ATOM     17  O   UNK A   0       0.166  11.740  18.408  0.00  0.00    +0.000 OA
ENDROOT
BRANCH   1  19
ATOM     18  N   VAL A   1       2.190   4.926  19.493  0.00  0.00    +0.000 N 
ATOM     19  C   UNK A   0       3.030   6.017  19.546  0.00  0.00    +0.000 C 
ATOM     20  O   UNK A   0       4.252   5.942  19.585  0.00  0.00    +0.000 OA
ATOM     21  H   VAL A   1       1.184   5.050  19.557  0.00  0.00    +0.000 HD
BRANCH  18  22
ATOM     22  CA  VAL A   1       2.697   3.559  19.350  0.00  0.00    +0.000 C 
BRANCH  22  24
ATOM     23  CG1 VAL A   1       0.399   2.434  19.093  0.00  0.00    +0.000 C 
ATOM     24  CB  VAL A   1       1.699   2.516  19.900  0.00  0.00    +0.000 C 
ATOM     25  CG2 VAL A   1       1.378   2.693  21.386  0.00  0.00    +0.000 C 
ENDBRANCH  22  24
BRANCH  22  26
ATOM     26  C   VAL A   1       3.180   3.310  17.901  0.00  0.00    +0.000 C 
ATOM     27  O   VAL A   1       2.448   3.247  16.926  0.00  0.00    +0.000 OA
BRANCH  26  28
ATOM     28  OXT VAL A   1       4.528   3.204  17.796  0.00  0.00    +0.000 OA
ATOM     29  HXT VAL A   1       4.849   2.362  17.415  0.00  0.00    +0.000 HD
ENDBRANCH  26  28
ENDBRANCH  22  26
ENDBRANCH  18  22
ENDBRANCH   1  19
BRANCH   3  30
ATOM     30  O   UNK A   0       1.788  10.082  17.196  0.00  0.00    +0.000 OA
ATOM     31  H   UNK A   0       2.657  10.503  17.098  0.00  0.00    +0.000 HD
ENDBRANCH   3  30
BRANCH  11  32
ATOM     32  O   UNK A   0      -2.874  12.485  23.983  0.00  0.00    +0.000 OA
ATOM     33  H   UNK A   0      -2.821  13.443  24.133  0.00  0.00    +0.000 HD
ENDBRANCH  11  32
BRANCH  14  34
ATOM     34  O   UNK A   0      -1.522  13.389  19.492  0.00  0.00    +0.000 OA
ATOM     35  H   UNK A   0      -2.435  13.391  19.155  0.00  0.00    +0.000 HD
ENDBRANCH  14  34
TORSDOF 8
ENDMDL
MODEL 3
REMARK VINA RESULT:      -8.1      1.574      2.070
REMARK  Name = 
REMARK  10 active torsions:
REMARK  status: ('A' for Active; 'I' for Inactive)
REMARK    1  A    between atoms: CG1_1  and  CB_2
REMARK    2  A    between atoms: CB_2  and  CG2_3
REMARK    3  A    between atoms: CB_2  and  CA_4
REMARK    4  A    between atoms: CA_4  and  N_5
REMARK    5  A    between atoms: CA_4  and  C_28
REMARK    6  A    between atoms: C_6  and  C_8
REMARK    7  A    between atoms: C_10  and  O_11
REMARK    8  A    between atoms: C_19  and  O_20
REMARK    9  A    between atoms: C_23  and  O_24
REMARK   10  A    between atoms: C_28  and  OXT_30
REMARK                            x       y       z     vdW  Elec       q    Type
REMARK                         _______ _______ _______ _____ _____    ______ ____
ROOT
ATOM      1  C   UNK A   0       2.312   7.342  19.494  0.00  0.00    +0.000 A 
ATOM      2  C   UNK A   0       2.385   8.146  18.360  0.00  0.00    +0.000 A 
ATOM      3  C   UNK A   0       1.713   9.369  18.345  0.00  0.00    +0.000 A 
ATOM      4  C   UNK A   0       0.952   9.804  19.451  0.00  0.00    +0.000 A 
ATOM      5  C   UNK A   0       0.908   8.996  20.584  0.00  0.00    +0.000 A 
ATOM      6  C   UNK A   0       1.583   7.770  20.606  0.00  0.00    +0.000 A 
ATOM      7  C   UNK A   0       0.143   9.394  21.777  0.00  0.00    +0.000 C 
ATOM      8  O   UNK A   0       0.164   8.693  22.783  0.00  0.00    +0.000 OA
ATOM      9  C   UNK A   0      -0.639  10.643  21.757  0.00  0.00    +0.000 A 
ATOM     10  C   UNK A   0      -1.385  10.987  22.898  0.00  0.00    +0.000 A 
ATOM     11  C   UNK A   0      -2.135  12.159  22.907  0.00  0.00    +0.000 A 
ATOM     12  C   UNK A   0      -2.151  12.988  21.785  0.00  0.00    +0.000 A 
ATOM     13 CL   UNK A   0      -3.080  14.450  21.777  0.00  0.00    +0.000 Cl
ATOM     14  C   UNK A   0      -1.405  12.639  20.649  0.00  0.00    +0.000 A 
ATOM     15  C   UNK A   0      -0.635  11.463  20.625  0.00  0.00    +0.000 A 
ATOM     16  C   UNK A   0       0.175  11.071  19.436  0.00  0.00    +0.000 C 
ATOM     17  O   UNK A   0       0.215  11.806  18.453  0.00  0.00    +0.000 OA
ENDROOT
BRANCH   1  19
ATOM     18  N   VAL A   1       2.088   4.931  19.360  0.00  0.00    +0.000 N 
ATOM     19  C   UNK A   0       2.947   6.000  19.496  0.00  0.00    +0.000 C 
ATOM     20  O   UNK A   0       4.164   5.897  19.589  0.00  0.00    +0.000 OA
ATOM     21  H   VAL A   1       1.083   5.074  19.382  0.00  0.00    +0.000 HD
BRANCH  18  22
ATOM     22  CA  VAL A   1       2.575   3.559  19.186  0.00  0.00    +0.000 C 
BRANCH  22  24
ATOM     23  CG1 VAL A   1       1.895   3.542  21.666  0.00  0.00    +0.000 C 
ATOM     24  CB  VAL A   1       2.526   2.761  20.509  0.00  0.00    +0.000 C 
ATOM     25  CG2 VAL A   1       3.882   2.198  20.940  0.00  0.00    +0.000 C 
ENDBRANCH  22  24
BRANCH  22  26
ATOM     26  C   VAL A   1       1.875   2.885  17.983  0.00  0.00    +0.000 C 
ATOM     27  O   VAL A   1       2.127   3.120  16.812  0.00  0.00    +0.000 OA
BRANCH  26  28
ATOM     28  OXT VAL A   1       0.956   1.956  18.349  0.00  0.00    +0.000 OA
ATOM     29  HXT VAL A   1       0.376   1.640  17.628  0.00  0.00    +0.000 HD
ENDBRANCH  26  28
ENDBRANCH  22  26
ENDBRANCH  18  22
ENDBRANCH   1  19
BRANCH   3  30
ATOM     30  O   UNK A   0       1.812  10.138  17.220  0.00  0.00    +0.000 OA
ATOM     31  H   UNK A   0       2.659  10.000  16.765  0.00  0.00    +0.000 HD
ENDBRANCH   3  30
BRANCH  11  32
ATOM     32  O   UNK A   0      -2.859  12.500  24.015  0.00  0.00    +0.000 OA
ATOM     33  H   UNK A   0      -3.727  12.850  23.757  0.00  0.00    +0.000 HD
ENDBRANCH  11  32
BRANCH  14  34
ATOM     34  O   UNK A   0      -1.448  13.467  19.556  0.00  0.00    +0.000 OA
ATOM     35  H   UNK A   0      -1.217  12.957  18.759  0.00  0.00    +0.000 HD
ENDBRANCH  14  34
TORSDOF 8
ENDMDL
MODEL 4
REMARK VINA RESULT:      -8.0      1.255      1.639
REMARK  Name = 
REMARK  10 active torsions:
REMARK  status: ('A' for Active; 'I' for Inactive)
REMARK    1  A    between atoms: CG1_1  and  CB_2
REMARK    2  A    between atoms: CB_2  and  CG2_3
REMARK    3  A    between atoms: CB_2  and  CA_4
REMARK    4  A    between atoms: CA_4  and  N_5
REMARK    5  A    between atoms: CA_4  and  C_28
REMARK    6  A    between atoms: C_6  and  C_8
REMARK    7  A    between atoms: C_10  and  O_11
REMARK    8  A    between atoms: C_19  and  O_20
REMARK    9  A    between atoms: C_23  and  O_24
REMARK   10  A    between atoms: C_28  and  OXT_30
REMARK                            x       y       z     vdW  Elec       q    Type
REMARK                         _______ _______ _______ _____ _____    ______ ____
ROOT
ATOM      1  C   UNK A   0       2.257   7.710  18.970  0.00  0.00    +0.000 A 
ATOM      2  C   UNK A   0       2.516   8.697  18.023  0.00  0.00    +0.000 A 
ATOM      3  C   UNK A   0       1.970   9.969  18.197  0.00  0.00    +0.000 A 
ATOM      4  C   UNK A   0       1.152  10.275  19.306  0.00  0.00    +0.000 A 
ATOM      5  C   UNK A   0       0.922   9.280  20.253  0.00  0.00    +0.000 A 
ATOM      6  C   UNK A   0       1.469   8.002  20.086  0.00  0.00    +0.000 A 
ATOM      7  C   UNK A   0       0.089   9.533  21.440  0.00  0.00    +0.000 C 
ATOM      8  O   UNK A   0      -0.055   8.660  22.288  0.00  0.00    +0.000 OA
ATOM      9  C   UNK A   0      -0.563  10.844  21.605  0.00  0.00    +0.000 A 
ATOM     10  C   UNK A   0      -1.378  11.052  22.732  0.00  0.00    +0.000 A 
ATOM     11  C   UNK A   0      -2.008  12.280  22.913  0.00  0.00    +0.000 A 
ATOM     12  C   UNK A   0      -1.837  13.299  21.976  0.00  0.00    +0.000 A 
ATOM     13 CL   UNK A   0      -2.614  14.833  22.184  0.00  0.00    +0.000 Cl
ATOM     14  C   UNK A   0      -1.023  13.086  20.853  0.00  0.00    +0.000 A 
ATOM     15  C   UNK A   0      -0.372  11.855  20.658  0.00  0.00    +0.000 A 
ATOM     16  C   UNK A   0       0.507  11.602  19.481  0.00  0.00    +0.000 C 
ATOM     17  O   UNK A   0       0.711  12.497  18.665  0.00  0.00    +0.000 OA
ENDROOT
BRANCH   1  19
ATOM     18  N   VAL A   1       3.882   6.210  17.973  0.00  0.00    +0.000 N 
ATOM     19  C   UNK A   0       2.755   6.327  18.757  0.00  0.00    +0.000 C 
ATOM     20  O   UNK A   0       2.184   5.382  19.286  0.00  0.00    +0.000 OA
ATOM     21  H   VAL A   1       4.254   7.019  17.486  0.00  0.00    +0.000 HD
BRANCH  18  22
ATOM     22  CA  VAL A   1       4.582   4.933  17.802  0.00  0.00    +0.000 C 
BRANCH  22  24
ATOM     23  CG1 VAL A   1       6.767   4.400  16.556  0.00  0.00    +0.000 C 
ATOM     24  CB  VAL A   1       5.309   4.856  16.440  0.00  0.00    +0.000 C 
ATOM     25  CG2 VAL A   1       5.230   6.148  15.625  0.00  0.00    +0.000 C 
ENDBRANCH  22  24
BRANCH  22  26
ATOM     26  C   VAL A   1       5.461   4.629  19.038  0.00  0.00    +0.000 C 
ATOM     27  O   VAL A   1       6.115   5.461  19.647  0.00  0.00    +0.000 OA
BRANCH  26  28
ATOM     28  OXT VAL A   1       5.413   3.329  19.424  0.00  0.00    +0.000 OA
ATOM     29  HXT VAL A   1       6.014   2.730  18.938  0.00  0.00    +0.000 HD
ENDBRANCH  26  28
ENDBRANCH  22  26
ENDBRANCH  18  22
ENDBRANCH   1  19
BRANCH   3  30
ATOM     30  O   UNK A   0       2.250  10.918  17.254  0.00  0.00    +0.000 OA
ATOM     31  H   UNK A   0       1.852  11.775  17.479  0.00  0.00    +0.000 HD
ENDBRANCH   3  30
BRANCH  11  32
ATOM     32  O   UNK A   0      -2.798  12.488  24.009  0.00  0.00    +0.000 OA
ATOM     33  H   UNK A   0      -3.076  11.639  24.391  0.00  0.00    +0.000 HD
ENDBRANCH  11  32
BRANCH  14  34
ATOM     34  O   UNK A   0      -0.880  14.102  19.943  0.00  0.00    +0.000 OA
ATOM     35  H   UNK A   0      -1.298  13.841  19.104  0.00  0.00    +0.000 HD
ENDBRANCH  14  34
TORSDOF 8
ENDMDL
MODEL 5
REMARK VINA RESULT:      -7.9      1.180      1.742
REMARK  Name = 
REMARK  10 active torsions:
REMARK  status: ('A' for Active; 'I' for Inactive)
REMARK    1  A    between atoms: CG1_1  and  CB_2
REMARK    2  A    between atoms: CB_2  and  CG2_3
REMARK    3  A    between atoms: CB_2  and  CA_4
REMARK    4  A    between atoms: CA_4  and  N_5
REMARK    5  A    between atoms: CA_4  and  C_28
REMARK    6  A    between atoms: C_6  and  C_8
REMARK    7  A    between atoms: C_10  and  O_11
REMARK    8  A    between atoms: C_19  and  O_20
REMARK    9  A    between atoms: C_23  and  O_24
REMARK   10  A    between atoms: C_28  and  OXT_30
REMARK                            x       y       z     vdW  Elec       q    Type
REMARK                         _______ _______ _______ _____ _____    ______ ____
ROOT
ATOM      1  C   UNK A   0       2.111   7.150  19.761  0.00  0.00    +0.000 A 
ATOM      2  C   UNK A   0       2.265   7.876  18.584  0.00  0.00    +0.000 A 
ATOM      3  C   UNK A   0       1.689   9.143  18.483  0.00  0.00    +0.000 A 
ATOM      4  C   UNK A   0       0.944   9.700  19.545  0.00  0.00    +0.000 A 
ATOM      5  C   UNK A   0       0.819   8.967  20.722  0.00  0.00    +0.000 A 
ATOM      6  C   UNK A   0       1.398   7.697  20.830  0.00  0.00    +0.000 A 
ATOM      7  C   UNK A   0       0.066   9.492  21.873  0.00  0.00    +0.000 C 
ATOM      8  O   UNK A   0       0.016   8.854  22.918  0.00  0.00    +0.000 OA
ATOM      9  C   UNK A   0      -0.618  10.793  21.762  0.00  0.00    +0.000 A 
ATOM     10  C   UNK A   0      -1.355  11.260  22.865  0.00  0.00    +0.000 A 
ATOM     11  C   UNK A   0      -2.013  12.484  22.789  0.00  0.00    +0.000 A 
ATOM     12  C   UNK A   0      -1.947  13.242  21.620  0.00  0.00    +0.000 A 
ATOM     13 CL   UNK A   0      -2.761  14.767  21.506  0.00  0.00    +0.000 Cl
ATOM     14  C   UNK A   0      -1.211  12.771  20.522  0.00  0.00    +0.000 A 
ATOM     15  C   UNK A   0      -0.532  11.541  20.584  0.00  0.00    +0.000 A 
ATOM     16  C   UNK A   0       0.266  11.019  19.439  0.00  0.00    +0.000 C 
ATOM     17  O   UNK A   0       0.379  11.688  18.415  0.00  0.00    +0.000 OA
ENDROOT
BRANCH   1  19
ATOM     18  N   VAL A   1       1.700   4.761  19.836  0.00  0.00    +0.000 N 
ATOM     19  C   UNK A   0       2.642   5.767  19.856  0.00  0.00    +0.000 C 
ATOM     20  O   UNK A   0       3.850   5.576  19.920  0.00  0.00    +0.000 OA
ATOM     21  H   VAL A   1       0.710   4.985  19.877  0.00  0.00    +0.000 HD
BRANCH  18  22
ATOM     22  CA  VAL A   1       2.074   3.346  19.763  0.00  0.00    +0.000 C 
BRANCH  22  24
ATOM     23  CG1 VAL A   1       2.476   3.616  17.237  0.00  0.00    +0.000 C 
ATOM     24  CB  VAL A   1       3.006   3.061  18.563  0.00  0.00    +0.000 C 
ATOM     25  CG2 VAL A   1       3.368   1.583  18.401  0.00  0.00    +0.000 C 
ENDBRANCH  22  24
BRANCH  22  26
ATOM     26  C   VAL A   1       2.593   2.852  21.133  0.00  0.00    +0.000 C 
ATOM     27  O   VAL A   1       3.734   2.476  21.350  0.00  0.00    +0.000 OA
BRANCH  26  28
ATOM     28  OXT VAL A   1       1.657   2.909  22.114  0.00  0.00    +0.000 OA
ATOM     29  HXT VAL A   1       1.723   2.208  22.792  0.00  0.00    +0.000 HD
ENDBRANCH  26  28
ENDBRANCH  22  26
ENDBRANCH  18  22
ENDBRANCH   1  19
BRANCH   3  30
ATOM     30  O   UNK A   0       1.865   9.834  17.317  0.00  0.00    +0.000 OA
ATOM     31  H   UNK A   0       2.011  10.780  17.479  0.00  0.00    +0.000 HD
ENDBRANCH   3  30
BRANCH  11  32
ATOM     32  O   UNK A   0      -2.728  12.944  23.859  0.00  0.00    +0.000 OA
ATOM     33  H   UNK A   0      -2.697  12.302  24.588  0.00  0.00    +0.000 HD
ENDBRANCH  11  32
BRANCH  14  34
ATOM     34  O   UNK A   0      -1.171  13.532  19.382  0.00  0.00    +0.000 OA
ATOM     35  H   UNK A   0      -0.256  13.823  19.224  0.00  0.00    +0.000 HD
ENDBRANCH  14  34
TORSDOF 8
ENDMDL
MODEL 6
REMARK VINA RESULT:      -7.8      0.957      1.105
REMARK  Name = 
REMARK  10 active torsions:
REMARK  status: ('A' for Active; 'I' for Inactive)
REMARK    1  A    between atoms: CG1_1  and  CB_2
REMARK    2  A    between atoms: CB_2  and  CG2_3
REMARK    3  A    between atoms: CB_2  and  CA_4
REMARK    4  A    between atoms: CA_4  and  N_5
REMARK    5  A    between atoms: CA_4  and  C_28
REMARK    6  A    between atoms: C_6  and  C_8
REMARK    7  A    between atoms: C_10  and  O_11
REMARK    8  A    between atoms: C_19  and  O_20
REMARK    9  A    between atoms: C_23  and  O_24
REMARK   10  A    between atoms: C_28  and  OXT_30
REMARK                            x       y       z     vdW  Elec       q    Type
REMARK                         _______ _______ _______ _____ _____    ______ ____
ROOT
ATOM      1  C   UNK A   0       2.206   7.497  19.412  0.00  0.00    +0.000 A 
ATOM      2  C   UNK A   0       2.342   8.354  18.324  0.00  0.00    +0.000 A 
ATOM      3  C   UNK A   0       1.721   9.603  18.357  0.00  0.00    +0.000 A 
ATOM      4  C   UNK A   0       0.948  10.012  19.465  0.00  0.00    +0.000 A 
ATOM      5  C   UNK A   0       0.842   9.149  20.552  0.00  0.00    +0.000 A 
ATOM      6  C   UNK A   0       1.465   7.896  20.526  0.00  0.00    +0.000 A 
ATOM      7  C   UNK A   0       0.062   9.516  21.746  0.00  0.00    +0.000 C 
ATOM      8  O   UNK A   0       0.027   8.764  22.714  0.00  0.00    +0.000 OA
ATOM      9  C   UNK A   0      -0.668  10.795  21.772  0.00  0.00    +0.000 A 
ATOM     10  C   UNK A   0      -1.430  11.111  22.912  0.00  0.00    +0.000 A 
ATOM     11  C   UNK A   0      -2.132  12.311  22.965  0.00  0.00    +0.000 A 
ATOM     12  C   UNK A   0      -2.085  13.197  21.887  0.00  0.00    +0.000 A 
ATOM     13 CL   UNK A   0      -2.953  14.695  21.934  0.00  0.00    +0.000 Cl
ATOM     14  C   UNK A   0      -1.324  12.877  20.753  0.00  0.00    +0.000 A 
ATOM     15  C   UNK A   0      -0.601  11.672  20.686  0.00  0.00    +0.000 A 
ATOM     16  C   UNK A   0       0.224  11.309  19.499  0.00  0.00    +0.000 C 
ATOM     17  O   UNK A   0       0.319  12.091  18.556  0.00  0.00    +0.000 OA
ENDROOT
BRANCH   1  19
ATOM     18  N   VAL A   1       2.973   5.607  18.097  0.00  0.00    +0.000 N 
ATOM     19  C   UNK A   0       2.786   6.131  19.358  0.00  0.00    +0.000 C 
ATOM     20  O   UNK A   0       3.088   5.552  20.395  0.00  0.00    +0.000 OA
ATOM     21  H   VAL A   1       2.616   6.096  17.281  0.00  0.00    +0.000 HD
BRANCH  18  22
ATOM     22  CA  VAL A   1       3.678   4.341  17.877  0.00  0.00    +0.000 C 
BRANCH  22  24
ATOM     23  CG1 VAL A   1       1.286   3.450  18.194  0.00  0.00    +0.000 C 
ATOM     24  CB  VAL A   1       2.695   3.168  17.662  0.00  0.00    +0.000 C 
ATOM     25  CG2 VAL A   1       3.201   1.832  18.210  0.00  0.00    +0.000 C 
ENDBRANCH  22  24
BRANCH  22  26
ATOM     26  C   VAL A   1       4.757   4.507  16.781  0.00  0.00    +0.000 C 
ATOM     27  O   VAL A   1       5.430   3.596  16.325  0.00  0.00    +0.000 OA
BRANCH  26  28
ATOM     28  OXT VAL A   1       4.870   5.781  16.328  0.00  0.00    +0.000 OA
ATOM     29  HXT VAL A   1       4.588   5.919  15.402  0.00  0.00    +0.000 HD
ENDBRANCH  26  28
ENDBRANCH  22  26
ENDBRANCH  18  22
ENDBRANCH   1  19
BRANCH   3  30
ATOM     30  O   UNK A   0       1.880  10.424  17.276  0.00  0.00    +0.000 OA
ATOM     31  H   UNK A   0       1.957  11.356  17.543  0.00  0.00    +0.000 HD
ENDBRANCH   3  30
BRANCH  11  32
ATOM     32  O   UNK A   0      -2.871  12.624  24.071  0.00  0.00    +0.000 OA
ATOM     33  H   UNK A   0      -3.819  12.519  23.885  0.00  0.00    +0.000 HD
ENDBRANCH  11  32
BRANCH  14  34
ATOM     34  O   UNK A   0      -1.304  13.761  19.705  0.00  0.00    +0.000 OA
ATOM     35  H   UNK A   0      -1.297  13.264  18.867  0.00  0.00    +0.000 HD
ENDBRANCH  14  34
TORSDOF 8
ENDMDL
MODEL 7
REMARK VINA RESULT:      -7.7      3.432      9.025
REMARK  Name = 
REMARK  10 active torsions:
REMARK  status: ('A' for Active; 'I' for Inactive)
REMARK    1  A    between atoms: CG1_1  and  CB_2
REMARK    2  A    between atoms: CB_2  and  CG2_3
REMARK    3  A    between atoms: CB_2  and  CA_4
REMARK    4  A    between atoms: CA_4  and  N_5
REMARK    5  A    between atoms: CA_4  and  C_28
REMARK    6  A    between atoms: C_6  and  C_8
REMARK    7  A    between atoms: C_10  and  O_11
REMARK    8  A    between atoms: C_19  and  O_20
REMARK    9  A    between atoms: C_23  and  O_24
REMARK   10  A    between atoms: C_28  and  OXT_30
REMARK                            x       y       z     vdW  Elec       q    Type
REMARK                         _______ _______ _______ _____ _____    ______ ____
ROOT
ATOM      1  C   UNK A   0       0.344   9.661  20.783  0.00  0.00    +0.000 A 
ATOM      2  C   UNK A   0       0.626  10.354  19.610  0.00  0.00    +0.000 A 
ATOM      3  C   UNK A   0       1.443   9.761  18.646  0.00  0.00    +0.000 A 
ATOM      4  C   UNK A   0       1.998   8.477  18.840  0.00  0.00    +0.000 A 
ATOM      5  C   UNK A   0       1.686   7.792  20.011  0.00  0.00    +0.000 A 
ATOM      6  C   UNK A   0       0.865   8.380  20.980  0.00  0.00    +0.000 A 
ATOM      7  C   UNK A   0       2.221   6.445  20.273  0.00  0.00    +0.000 C 
ATOM      8  O   UNK A   0       1.889   5.837  21.284  0.00  0.00    +0.000 OA
ATOM      9  C   UNK A   0       3.149   5.830  19.307  0.00  0.00    +0.000 A 
ATOM     10  C   UNK A   0       3.668   4.555  19.592  0.00  0.00    +0.000 A 
ATOM     11  C   UNK A   0       4.549   3.950  18.700  0.00  0.00    +0.000 A 
ATOM     12  C   UNK A   0       4.918   4.610  17.528  0.00  0.00    +0.000 A 
ATOM     13 CL   UNK A   0       6.014   3.874  16.405  0.00  0.00    +0.000 Cl
ATOM     14  C   UNK A   0       4.397   5.882  17.248  0.00  0.00    +0.000 A 
ATOM     15  C   UNK A   0       3.500   6.505  18.133  0.00  0.00    +0.000 A 
ATOM     16  C   UNK A   0       2.922   7.851  17.858  0.00  0.00    +0.000 C 
ATOM     17  O   UNK A   0       3.194   8.433  16.812  0.00  0.00    +0.000 OA
ENDROOT
BRANCH   1  19
ATOM     18  N   VAL A   1      -1.030  11.516  21.529  0.00  0.00    +0.000 N 
ATOM     19  C   UNK A   0      -0.450  10.310  21.857  0.00  0.00    +0.000 C 
ATOM     20  O   UNK A   0      -0.575   9.760  22.945  0.00  0.00    +0.000 OA
ATOM     21  H   VAL A   1      -0.812  11.966  20.645  0.00  0.00    +0.000 HD
BRANCH  18  22
ATOM     22  CA  VAL A   1      -1.968  12.198  22.425  0.00  0.00    +0.000 C 
BRANCH  22  24
ATOM     23  CG1 VAL A   1      -2.259  14.237  23.965  0.00  0.00    +0.000 C 
ATOM     24  CB  VAL A   1      -1.274  13.313  23.240  0.00  0.00    +0.000 C 
ATOM     25  CG2 VAL A   1      -0.281  14.145  22.426  0.00  0.00    +0.000 C 
ENDBRANCH  22  24
BRANCH  22  26
ATOM     26  C   VAL A   1      -3.233  12.636  21.651  0.00  0.00    +0.000 C 
ATOM     27  O   VAL A   1      -3.225  13.212  20.575  0.00  0.00    +0.000 OA
BRANCH  26  28
ATOM     28  OXT VAL A   1      -4.389  12.282  22.268  0.00  0.00    +0.000 OA
ATOM     29  HXT VAL A   1      -4.372  12.337  23.244  0.00  0.00    +0.000 HD
ENDBRANCH  26  28
ENDBRANCH  22  26
ENDBRANCH  18  22
ENDBRANCH   1  19
BRANCH   3  30
ATOM     30  O   UNK A   0       1.694  10.464  17.502  0.00  0.00    +0.000 OA
ATOM     31  H   UNK A   0       1.437  11.397  17.591  0.00  0.00    +0.000 HD
ENDBRANCH   3  30
BRANCH  11  32
ATOM     32  O   UNK A   0       5.054   2.710  18.972  0.00  0.00    +0.000 OA
ATOM     33  H   UNK A   0       5.998   2.673  18.745  0.00  0.00    +0.000 HD
ENDBRANCH  11  32
BRANCH  14  34
ATOM     34  O   UNK A   0       4.785   6.512  16.093  0.00  0.00    +0.000 OA
ATOM     35  H   UNK A   0       4.014   6.948  15.691  0.00  0.00    +0.000 HD
ENDBRANCH  14  34
TORSDOF 8
ENDMDL
MODEL 8
REMARK VINA RESULT:      -7.7      1.347      1.420
REMARK  Name = 
REMARK  10 active torsions:
REMARK  status: ('A' for Active; 'I' for Inactive)
REMARK    1  A    between atoms: CG1_1  and  CB_2
REMARK    2  A    between atoms: CB_2  and  CG2_3
REMARK    3  A    between atoms: CB_2  and  CA_4
REMARK    4  A    between atoms: CA_4  and  N_5
REMARK    5  A    between atoms: CA_4  and  C_28
REMARK    6  A    between atoms: C_6  and  C_8
REMARK    7  A    between atoms: C_10  and  O_11
REMARK    8  A    between atoms: C_19  and  O_20
REMARK    9  A    between atoms: C_23  and  O_24
REMARK   10  A    between atoms: C_28  and  OXT_30
REMARK                            x       y       z     vdW  Elec       q    Type
REMARK                         _______ _______ _______ _____ _____    ______ ____
ROOT
ATOM      1  C   UNK A   0       2.208   7.630  19.226  0.00  0.00    +0.000 A 
ATOM      2  C   UNK A   0       2.416   8.532  18.185  0.00  0.00    +0.000 A 
ATOM      3  C   UNK A   0       1.835   9.799  18.254  0.00  0.00    +0.000 A 
ATOM      4  C   UNK A   0       1.032  10.182  19.349  0.00  0.00    +0.000 A 
ATOM      5  C   UNK A   0       0.854   9.274  20.390  0.00  0.00    +0.000 A 
ATOM      6  C   UNK A   0       1.436   8.003  20.329  0.00  0.00    +0.000 A 
ATOM      7  C   UNK A   0       0.038   9.613  21.568  0.00  0.00    +0.000 C 
ATOM      8  O   UNK A   0      -0.060   8.819  22.497  0.00  0.00    +0.000 OA
ATOM      9  C   UNK A   0      -0.650  10.914  21.626  0.00  0.00    +0.000 A 
ATOM     10  C   UNK A   0      -1.446  11.203  22.749  0.00  0.00    +0.000 A 
ATOM     11  C   UNK A   0      -2.110  12.424  22.831  0.00  0.00    +0.000 A 
ATOM     12  C   UNK A   0      -1.991  13.355  21.800  0.00  0.00    +0.000 A 
ATOM     13 CL   UNK A   0      -2.811  14.879  21.884  0.00  0.00    +0.000 Cl
ATOM     14  C   UNK A   0      -1.196  13.062  20.682  0.00  0.00    +0.000 A 
ATOM     15  C   UNK A   0      -0.511  11.838  20.586  0.00  0.00    +0.000 A 
ATOM     16  C   UNK A   0       0.350  11.501  19.416  0.00  0.00    +0.000 C 
ATOM     17  O   UNK A   0       0.509  12.322  18.516  0.00  0.00    +0.000 OA
ENDROOT
BRANCH   1  19
ATOM     18  N   VAL A   1       3.001   5.621  20.329  0.00  0.00    +0.000 N 
ATOM     19  C   UNK A   0       2.745   6.249  19.130  0.00  0.00    +0.000 C 
ATOM     20  O   UNK A   0       2.910   5.730  18.033  0.00  0.00    +0.000 OA
ATOM     21  H   VAL A   1       2.933   6.135  21.202  0.00  0.00    +0.000 HD
BRANCH  18  22
ATOM     22  CA  VAL A   1       3.381   4.207  20.402  0.00  0.00    +0.000 C 
BRANCH  22  24
ATOM     23  CG1 VAL A   1       0.823   4.023  20.205  0.00  0.00    +0.000 C 
ATOM     24  CB  VAL A   1       2.144   3.282  20.440  0.00  0.00    +0.000 C 
ATOM     25  CG2 VAL A   1       2.046   2.435  21.711  0.00  0.00    +0.000 C 
ENDBRANCH  22  24
BRANCH  22  26
ATOM     26  C   VAL A   1       4.423   3.871  19.309  0.00  0.00    +0.000 C 
ATOM     27  O   VAL A   1       5.589   4.233  19.326  0.00  0.00    +0.000 OA
BRANCH  26  28
ATOM     28  OXT VAL A   1       3.929   3.084  18.321  0.00  0.00    +0.000 OA
ATOM     29  HXT VAL A   1       3.094   3.397  17.919  0.00  0.00    +0.000 HD
ENDBRANCH  26  28
ENDBRANCH  22  26
ENDBRANCH  18  22
ENDBRANCH   1  19
BRANCH   3  30
ATOM     30  O   UNK A   0       2.065  10.663  17.220  0.00  0.00    +0.000 OA
ATOM     31  H   UNK A   0       2.072  11.587  17.521  0.00  0.00    +0.000 HD
ENDBRANCH   3  30
BRANCH  11  32
ATOM     32  O   UNK A   0      -2.883  12.710  23.922  0.00  0.00    +0.000 OA
ATOM     33  H   UNK A   0      -2.602  12.177  24.684  0.00  0.00    +0.000 HD
ENDBRANCH  11  32
BRANCH  14  34
ATOM     34  O   UNK A   0      -1.104  13.992  19.678  0.00  0.00    +0.000 OA
ATOM     35  H   UNK A   0      -1.966  14.069  19.233  0.00  0.00    +0.000 HD
ENDBRANCH  14  34
TORSDOF 8
ENDMDL
MODEL 9
REMARK VINA RESULT:      -7.5      1.489      1.644
REMARK  Name = 
REMARK  10 active torsions:
REMARK  status: ('A' for Active; 'I' for Inactive)
REMARK    1  A    between atoms: CG1_1  and  CB_2
REMARK    2  A    between atoms: CB_2  and  CG2_3
REMARK    3  A    between atoms: CB_2  and  CA_4
REMARK    4  A    between atoms: CA_4  and  N_5
REMARK    5  A    between atoms: CA_4  and  C_28
REMARK    6  A    between atoms: C_6  and  C_8
REMARK    7  A    between atoms: C_10  and  O_11
REMARK    8  A    between atoms: C_19  and  O_20
REMARK    9  A    between atoms: C_23  and  O_24
REMARK   10  A    between atoms: C_28  and  OXT_30
REMARK                            x       y       z     vdW  Elec       q    Type
REMARK                         _______ _______ _______ _____ _____    ______ ____
ROOT
ATOM      1  C   UNK A   0       1.879   6.497  20.069  0.00  0.00    +0.000 A 
ATOM      2  C   UNK A   0       2.318   6.999  18.847  0.00  0.00    +0.000 A 
ATOM      3  C   UNK A   0       2.137   8.353  18.561  0.00  0.00    +0.000 A 
ATOM      4  C   UNK A   0       1.508   9.222  19.478  0.00  0.00    +0.000 A 
ATOM      5  C   UNK A   0       1.095   8.705  20.703  0.00  0.00    +0.000 A 
ATOM      6  C   UNK A   0       1.277   7.349  20.998  0.00  0.00    +0.000 A 
ATOM      7  C   UNK A   0       0.444   9.558  21.712  0.00  0.00    +0.000 C 
ATOM      8  O   UNK A   0       0.139   9.095  22.804  0.00  0.00    +0.000 OA
ATOM      9  C   UNK A   0       0.170  10.972  21.401  0.00  0.00    +0.000 A 
ATOM     10  C   UNK A   0      -0.479  11.759  22.369  0.00  0.00    +0.000 A 
ATOM     11  C   UNK A   0      -0.753  13.098  22.103  0.00  0.00    +0.000 A 
ATOM     12  C   UNK A   0      -0.389  13.655  20.877  0.00  0.00    +0.000 A 
ATOM     13 CL   UNK A   0      -0.723  15.319  20.527  0.00  0.00    +0.000 Cl
ATOM     14  C   UNK A   0       0.258  12.865  19.914  0.00  0.00    +0.000 A 
ATOM     15  C   UNK A   0       0.550  11.514  20.169  0.00  0.00    +0.000 A 
ATOM     16  C   UNK A   0       1.246  10.653  19.171  0.00  0.00    +0.000 C 
ATOM     17  O   UNK A   0       1.618  11.130  18.103  0.00  0.00    +0.000 OA
ENDROOT
BRANCH   1  19
ATOM     18  N   VAL A   1       2.807   4.324  19.518  0.00  0.00    +0.000 N 
ATOM     19  C   UNK A   0       1.983   5.044  20.356  0.00  0.00    +0.000 C 
ATOM     20  O   UNK A   0       1.377   4.562  21.305  0.00  0.00    +0.000 OA
ATOM     21  H   VAL A   1       3.207   4.762  18.694  0.00  0.00    +0.000 HD
BRANCH  18  22
ATOM     22  CA  VAL A   1       3.134   2.918  19.768  0.00  0.00    +0.000 C 
BRANCH  22  24
ATOM     23  CG1 VAL A   1       2.887   2.120  17.336  0.00  0.00    +0.000 C 
ATOM     24  CB  VAL A   1       2.405   1.976  18.784  0.00  0.00    +0.000 C 
ATOM     25  CG2 VAL A   1       0.880   2.086  18.838  0.00  0.00    +0.000 C 
ENDBRANCH  22  24
BRANCH  22  26
ATOM     26  C   VAL A   1       4.667   2.727  19.853  0.00  0.00    +0.000 C 
ATOM     27  O   VAL A   1       5.222   1.827  20.463  0.00  0.00    +0.000 OA
BRANCH  26  28
ATOM     28  OXT VAL A   1       5.362   3.647  19.138  0.00  0.00    +0.000 OA
ATOM     29  HXT VAL A   1       6.129   4.039  19.601  0.00  0.00    +0.000 HD
ENDBRANCH  26  28
ENDBRANCH  22  26
ENDBRANCH  18  22
ENDBRANCH   1  19
BRANCH   3  30
ATOM     30  O   UNK A   0       2.586   8.816  17.356  0.00  0.00    +0.000 OA
ATOM     31  H   UNK A   0       1.921   8.700  16.657  0.00  0.00    +0.000 HD
ENDBRANCH   3  30
BRANCH  11  32
ATOM     32  O   UNK A   0      -1.381  13.867  23.041  0.00  0.00    +0.000 OA
ATOM     33  H   UNK A   0      -2.036  14.448  22.619  0.00  0.00    +0.000 HD
ENDBRANCH  11  32
BRANCH  14  34
ATOM     34  O   UNK A   0       0.595  13.437  18.714  0.00  0.00    +0.000 OA
ATOM     35  H   UNK A   0       0.563  14.406  18.801  0.00  0.00    +0.000 HD
ENDBRANCH  14  34
TORSDOF 8
ENDMDL
