MODEL 1
REMARK VINA RESULT:      -7.6      0.000      0.000
REMARK  Name = 
REMARK  10 active torsions:
REMARK  status: ('A' for Active; 'I' for Inactive)
REMARK    1  A    between atoms: C_2  and  C_3
REMARK    2  A    between atoms: C_6  and  O_7
REMARK    3  A    between atoms: O_7  and  C_8
REMARK    4  A    between atoms: C_8  and  C_9
REMARK    5  A    between atoms: C_9  and  N_10
REMARK    6  A    between atoms: N_14  and  C_15
REMARK    7  A    between atoms: C_15  and  C_16
REMARK    8  A    between atoms: C_16  and  N_17
REMARK    9  A    between atoms: N_17  and  S_18
REMARK   10  A    between atoms: S_18  and  C_21
REMARK                            x       y       z     vdW  Elec       q    Type
REMARK                         _______ _______ _______ _____ _____    ______ ____
ROOT
ATOM      1  N   UNL     1       2.085   3.660  21.053  0.00  0.00    +0.000 NA
ATOM      2  C   UNL     1       0.966   3.167  20.231  0.00  0.00    +0.000 C 
ATOM      3  C   UNL     1       1.330   2.745  18.791  0.00  0.00    +0.000 C 
ATOM      4  C   UNL     1       1.871   3.838  17.830  0.00  0.00    +0.000 C 
ATOM      5  N   UNL     1       3.334   4.046  17.748  0.00  0.00    +0.000 NA
ATOM      6  C   UNL     1       4.173   3.084  18.491  0.00  0.00    +0.000 C 
ATOM      7  C   UNL     1       3.472   2.138  19.482  0.00  0.00    +0.000 C 
ATOM      8  C   UNL     1       3.216   2.714  20.902  0.00  0.00    +0.000 C 
ATOM      9  O   UNL     1       2.260   1.649  18.874  0.00  0.00    +0.000 OA
ENDROOT
BRANCH   1  10
ATOM     10  C   UNL     1       2.515   5.008  20.698  0.00  0.00    +0.000 C 
BRANCH  10  11
ATOM     11  C   UNL     1       1.480   6.117  20.782  0.00  0.00    +0.000 C 
BRANCH  11  12
ATOM     12  O   UNL     1       2.239   7.258  20.396  0.00  0.00    +0.000 OA
BRANCH  12  16
ATOM     13  C   UNL     1       0.211  10.563  19.111  0.00  0.00    +0.000 A 
ATOM     14  C   UNL     1       1.048   9.852  18.252  0.00  0.00    +0.000 A 
ATOM     15  C   UNL     1       1.707   8.738  18.734  0.00  0.00    +0.000 A 
ATOM     16  C   UNL     1       1.542   8.364  20.065  0.00  0.00    +0.000 A 
ATOM     17  C   UNL     1       0.694   9.060  20.920  0.00  0.00    +0.000 A 
ATOM     18  C   UNL     1       0.024  10.173  20.439  0.00  0.00    +0.000 A 
BRANCH  13  20
ATOM     19  N   UNL     1      -1.040  12.638  18.246  0.00  0.00    +0.000 NA
ATOM     20  C   UNL     1      -0.471  11.710  18.629  0.00  0.00    +0.000 C 
ENDBRANCH  13  20
ENDBRANCH  12  16
ENDBRANCH  11  12
ENDBRANCH  10  11
ENDBRANCH   1  10
BRANCH   5  21
ATOM     21  C   UNL     1       3.821   4.269  16.377  0.00  0.00    +0.000 C 
BRANCH  21  22
ATOM     22  C   UNL     1       4.539   5.621  16.217  0.00  0.00    +0.000 C 
BRANCH  22  23
ATOM     23  N   UNL     1       5.368   5.677  15.013  0.00  0.00    +0.000 NA
ATOM     24  H   UNL     1       5.412   6.558  14.502  0.00  0.00    +0.000 HD
BRANCH  23  25
ATOM     25  S   UNL     1       6.910   5.001  15.202  0.00  0.00    +0.000 S 
ATOM     26  O   UNL     1       6.711   3.566  15.275  0.00  0.00    +0.000 OA
ATOM     27  O   UNL     1       7.788   5.603  14.219  0.00  0.00    +0.000 OA
BRANCH  25  28
ATOM     28  C   UNL     1       7.373   5.564  16.817  0.00  0.00    +0.000 A 
ATOM     29  C   UNL     1       7.611   4.622  17.822  0.00  0.00    +0.000 A 
ATOM     30  C   UNL     1       8.031   5.053  19.080  0.00  0.00    +0.000 A 
ATOM     31  C   UNL     1       8.215   6.415  19.325  0.00  0.00    +0.000 A 
ATOM     32  C   UNL     1       7.966   7.353  18.321  0.00  0.00    +0.000 A 
ATOM     33  C   UNL     1       7.537   6.930  17.062  0.00  0.00    +0.000 A 
ENDBRANCH  25  28
ENDBRANCH  23  25
ENDBRANCH  22  23
ENDBRANCH  21  22
ENDBRANCH   5  21
TORSDOF 10
ENDMDL
MODEL 2
REMARK VINA RESULT:      -7.5      2.736      7.388
REMARK  Name = 
REMARK  10 active torsions:
REMARK  status: ('A' for Active; 'I' for Inactive)
REMARK    1  A    between atoms: C_2  and  C_3
REMARK    2  A    between atoms: C_6  and  O_7
REMARK    3  A    between atoms: O_7  and  C_8
REMARK    4  A    between atoms: C_8  and  C_9
REMARK    5  A    between atoms: C_9  and  N_10
REMARK    6  A    between atoms: N_14  and  C_15
REMARK    7  A    between atoms: C_15  and  C_16
REMARK    8  A    between atoms: C_16  and  N_17
REMARK    9  A    between atoms: N_17  and  S_18
REMARK   10  A    between atoms: S_18  and  C_21
REMARK                            x       y       z     vdW  Elec       q    Type
REMARK                         _______ _______ _______ _____ _____    ______ ____
ROOT
ATOM      1  N   UNL     1       3.530   2.419  18.565  0.00  0.00    +0.000 NA
ATOM      2  C   UNL     1       2.997   2.051  19.888  0.00  0.00    +0.000 C 
ATOM      3  C   UNL     1       1.991   3.049  20.504  0.00  0.00    +0.000 C 
ATOM      4  C   UNL     1       2.498   4.478  20.837  0.00  0.00    +0.000 C 
ATOM      5  N   UNL     1       2.359   5.535  19.810  0.00  0.00    +0.000 NA
ATOM      6  C   UNL     1       1.608   5.168  18.593  0.00  0.00    +0.000 C 
ATOM      7  C   UNL     1       1.276   3.681  18.377  0.00  0.00    +0.000 C 
ATOM      8  C   UNL     1       2.392   2.829  17.709  0.00  0.00    +0.000 C 
ATOM      9  O   UNL     1       0.847   3.116  19.631  0.00  0.00    +0.000 OA
ENDROOT
BRANCH   1  10
ATOM     10  C   UNL     1       4.522   3.486  18.616  0.00  0.00    +0.000 C 
BRANCH  10  11
ATOM     11  C   UNL     1       4.903   4.151  17.305  0.00  0.00    +0.000 C 
BRANCH  11  12
ATOM     12  O   UNL     1       6.324   4.150  17.375  0.00  0.00    +0.000 OA
BRANCH  12  16
ATOM     13  C   UNL     1       7.949   7.830  18.085  0.00  0.00    +0.000 A 
ATOM     14  C   UNL     1       7.087   7.618  17.009  0.00  0.00    +0.000 A 
ATOM     15  C   UNL     1       6.561   6.356  16.816  0.00  0.00    +0.000 A 
ATOM     16  C   UNL     1       6.916   5.323  17.678  0.00  0.00    +0.000 A 
ATOM     17  C   UNL     1       7.762   5.534  18.763  0.00  0.00    +0.000 A 
ATOM     18  C   UNL     1       8.286   6.800  18.966  0.00  0.00    +0.000 A 
BRANCH  13  20
ATOM     19  N   UNL     1       8.940  10.171  18.481  0.00  0.00    +0.000 NA
ATOM     20  C   UNL     1       8.499   9.121  18.294  0.00  0.00    +0.000 C 
ENDBRANCH  13  20
ENDBRANCH  12  16
ENDBRANCH  11  12
ENDBRANCH  10  11
ENDBRANCH   1  10
BRANCH   5  21
ATOM     21  C   UNL     1       1.937   6.835  20.357  0.00  0.00    +0.000 C 
BRANCH  21  22
ATOM     22  C   UNL     1       1.850   7.930  19.279  0.00  0.00    +0.000 C 
BRANCH  22  23
ATOM     23  N   UNL     1       1.242   9.162  19.781  0.00  0.00    +0.000 NA
ATOM     24  H   UNL     1       1.503   9.480  20.714  0.00  0.00    +0.000 HD
BRANCH  23  25
ATOM     25  S   UNL     1       1.256  10.443  18.672  0.00  0.00    +0.000 S 
ATOM     26  O   UNL     1       1.659  11.617  19.422  0.00  0.00    +0.000 OA
ATOM     27  O   UNL     1       1.972  10.007  17.490  0.00  0.00    +0.000 OA
BRANCH  25  28
ATOM     28  C   UNL     1      -0.463  10.620  18.277  0.00  0.00    +0.000 A 
ATOM     29  C   UNL     1      -1.133  11.783  18.665  0.00  0.00    +0.000 A 
ATOM     30  C   UNL     1      -2.470  11.955  18.310  0.00  0.00    +0.000 A 
ATOM     31  C   UNL     1      -3.127  10.971  17.569  0.00  0.00    +0.000 A 
ATOM     32  C   UNL     1      -2.457   9.806  17.193  0.00  0.00    +0.000 A 
ATOM     33  C   UNL     1      -1.120   9.622  17.552  0.00  0.00    +0.000 A 
ENDBRANCH  25  28
ENDBRANCH  23  25
ENDBRANCH  22  23
ENDBRANCH  21  22
ENDBRANCH   5  21
TORSDOF 10
ENDMDL
MODEL 3
REMARK VINA RESULT:      -7.4      2.771      7.235
REMARK  Name = 
REMARK  10 active torsions:
REMARK  status: ('A' for Active; 'I' for Inactive)
REMARK    1  A    between atoms: C_2  and  C_3
REMARK    2  A    between atoms: C_6  and  O_7
REMARK    3  A    between atoms: O_7  and  C_8
REMARK    4  A    between atoms: C_8  and  C_9
REMARK    5  A    between atoms: C_9  and  N_10
REMARK    6  A    between atoms: N_14  and  C_15
REMARK    7  A    between atoms: C_15  and  C_16
REMARK    8  A    between atoms: C_16  and  N_17
REMARK    9  A    between atoms: N_17  and  S_18
REMARK   10  A    between atoms: S_18  and  C_21
REMARK                            x       y       z     vdW  Elec       q    Type
REMARK                         _______ _______ _______ _____ _____    ______ ____
ROOT
ATOM      1  N   UNL     1       3.238   2.141  18.705  0.00  0.00    +0.000 NA
ATOM      2  C   UNL     1       2.250   1.862  19.761  0.00  0.00    +0.000 C 
ATOM      3  C   UNL     1       1.332   3.043  20.146  0.00  0.00    +0.000 C 
ATOM      4  C   UNL     1       1.994   4.305  20.763  0.00  0.00    +0.000 C 
ATOM      5  N   UNL     1       2.410   5.400  19.858  0.00  0.00    +0.000 NA
ATOM      6  C   UNL     1       2.023   5.257  18.440  0.00  0.00    +0.000 C 
ATOM      7  C   UNL     1       1.474   3.894  17.981  0.00  0.00    +0.000 C 
ATOM      8  C   UNL     1       2.540   2.831  17.594  0.00  0.00    +0.000 C 
ATOM      9  O   UNL     1       0.563   3.402  18.983  0.00  0.00    +0.000 OA
ENDROOT
BRANCH   1  10
ATOM     10  C   UNL     1       4.363   2.949  19.162  0.00  0.00    +0.000 C 
BRANCH  10  11
ATOM     11  C   UNL     1       5.122   3.747  18.116  0.00  0.00    +0.000 C 
BRANCH  11  12
ATOM     12  O   UNL     1       6.239   4.221  18.860  0.00  0.00    +0.000 OA
BRANCH  12  16
ATOM     13  C   UNL     1       7.818   7.918  18.132  0.00  0.00    +0.000 A 
ATOM     14  C   UNL     1       8.431   7.034  19.019  0.00  0.00    +0.000 A 
ATOM     15  C   UNL     1       7.860   5.794  19.227  0.00  0.00    +0.000 A 
ATOM     16  C   UNL     1       6.679   5.462  18.569  0.00  0.00    +0.000 A 
ATOM     17  C   UNL     1       6.074   6.333  17.670  0.00  0.00    +0.000 A 
ATOM     18  C   UNL     1       6.647   7.575  17.451  0.00  0.00    +0.000 A 
BRANCH  13  20
ATOM     19  N   UNL     1       8.866  10.229  17.715  0.00  0.00    +0.000 NA
ATOM     20  C   UNL     1       8.392   9.196  17.911  0.00  0.00    +0.000 C 
ENDBRANCH  13  20
ENDBRANCH  12  16
ENDBRANCH  11  12
ENDBRANCH  10  11
ENDBRANCH   1  10
BRANCH   5  21
ATOM     21  C   UNL     1       2.118   6.742  20.384  0.00  0.00    +0.000 C 
BRANCH  21  22
ATOM     22  C   UNL     1       2.016   7.805  19.275  0.00  0.00    +0.000 C 
BRANCH  22  23
ATOM     23  N   UNL     1       1.329   9.017  19.721  0.00  0.00    +0.000 NA
ATOM     24  H   UNL     1       1.551   9.379  20.648  0.00  0.00    +0.000 HD
BRANCH  23  25
ATOM     25  S   UNL     1       1.298  10.258  18.569  0.00  0.00    +0.000 S 
ATOM     26  O   UNL     1       1.846  11.429  19.228  0.00  0.00    +0.000 OA
ATOM     27  O   UNL     1       1.856   9.742  17.336  0.00  0.00    +0.000 OA
BRANCH  25  28
ATOM     28  C   UNL     1      -0.441  10.527  18.352  0.00  0.00    +0.000 A 
ATOM     29  C   UNL     1      -1.157   9.683  17.499  0.00  0.00    +0.000 A 
ATOM     30  C   UNL     1      -2.535   9.852  17.366  0.00  0.00    +0.000 A 
ATOM     31  C   UNL     1      -3.187  10.856  18.085  0.00  0.00    +0.000 A 
ATOM     32  C   UNL     1      -2.465  11.704  18.927  0.00  0.00    +0.000 A 
ATOM     33  C   UNL     1      -1.084  11.547  19.059  0.00  0.00    +0.000 A 
ENDBRANCH  25  28
ENDBRANCH  23  25
ENDBRANCH  22  23
ENDBRANCH  21  22
ENDBRANCH   5  21
TORSDOF 10
ENDMDL
MODEL 4
REMARK VINA RESULT:      -7.3      2.783      7.260
REMARK  Name = 
REMARK  10 active torsions:
REMARK  status: ('A' for Active; 'I' for Inactive)
REMARK    1  A    between atoms: C_2  and  C_3
REMARK    2  A    between atoms: C_6  and  O_7
REMARK    3  A    between atoms: O_7  and  C_8
REMARK    4  A    between atoms: C_8  and  C_9
REMARK    5  A    between atoms: C_9  and  N_10
REMARK    6  A    between atoms: N_14  and  C_15
REMARK    7  A    between atoms: C_15  and  C_16
REMARK    8  A    between atoms: C_16  and  N_17
REMARK    9  A    between atoms: N_17  and  S_18
REMARK   10  A    between atoms: S_18  and  C_21
REMARK                            x       y       z     vdW  Elec       q    Type
REMARK                         _______ _______ _______ _____ _____    ______ ____
ROOT
ATOM      1  N   UNL     1       3.030   2.143  19.211  0.00  0.00    +0.000 NA
ATOM      2  C   UNL     1       2.889   2.475  20.639  0.00  0.00    +0.000 C 
ATOM      3  C   UNL     1       2.308   3.872  20.946  0.00  0.00    +0.000 C 
ATOM      4  C   UNL     1       3.123   5.113  20.491  0.00  0.00    +0.000 C 
ATOM      5  N   UNL     1       2.844   5.692  19.157  0.00  0.00    +0.000 NA
ATOM      6  C   UNL     1       1.697   5.119  18.423  0.00  0.00    +0.000 C 
ATOM      7  C   UNL     1       1.073   3.822  18.970  0.00  0.00    +0.000 C 
ATOM      8  C   UNL     1       1.764   2.501  18.529  0.00  0.00    +0.000 C 
ATOM      9  O   UNL     1       0.975   3.925  20.404  0.00  0.00    +0.000 OA
ENDROOT
BRANCH   1  10
ATOM     10  C   UNL     1       4.149   2.820  18.567  0.00  0.00    +0.000 C 
BRANCH  10  11
ATOM     11  C   UNL     1       4.030   3.110  17.080  0.00  0.00    +0.000 C 
BRANCH  11  12
ATOM     12  O   UNL     1       5.386   3.346  16.717  0.00  0.00    +0.000 OA
BRANCH  12  16
ATOM     13  C   UNL     1       7.079   6.987  17.468  0.00  0.00    +0.000 A 
ATOM     14  C   UNL     1       7.693   5.807  17.885  0.00  0.00    +0.000 A 
ATOM     15  C   UNL     1       7.082   4.601  17.601  0.00  0.00    +0.000 A 
ATOM     16  C   UNL     1       5.862   4.589  16.931  0.00  0.00    +0.000 A 
ATOM     17  C   UNL     1       5.255   5.763  16.498  0.00  0.00    +0.000 A 
ATOM     18  C   UNL     1       5.868   6.975  16.771  0.00  0.00    +0.000 A 
BRANCH  13  20
ATOM     19  N   UNL     1       8.205   9.245  17.971  0.00  0.00    +0.000 NA
ATOM     20  C   UNL     1       7.694   8.233  17.754  0.00  0.00    +0.000 C 
ENDBRANCH  13  20
ENDBRANCH  12  16
ENDBRANCH  11  12
ENDBRANCH  10  11
ENDBRANCH   1  10
BRANCH   5  21
ATOM     21  C   UNL     1       2.837   7.163  19.144  0.00  0.00    +0.000 C 
BRANCH  21  22
ATOM     22  C   UNL     1       1.555   7.755  19.757  0.00  0.00    +0.000 C 
BRANCH  22  23
ATOM     23  N   UNL     1       1.733   8.151  21.154  0.00  0.00    +0.000 NA
ATOM     24  H   UNL     1       2.624   8.569  21.423  0.00  0.00    +0.000 HD
BRANCH  23  25
ATOM     25  S   UNL     1       0.430   9.019  21.799  0.00  0.00    +0.000 S 
ATOM     26  O   UNL     1      -0.716   8.133  21.726  0.00  0.00    +0.000 OA
ATOM     27  O   UNL     1       0.860   9.613  23.049  0.00  0.00    +0.000 OA
BRANCH  25  28
ATOM     28  C   UNL     1       0.197  10.301  20.597  0.00  0.00    +0.000 A 
ATOM     29  C   UNL     1      -0.856  10.192  19.684  0.00  0.00    +0.000 A 
ATOM     30  C   UNL     1      -1.081  11.222  18.772  0.00  0.00    +0.000 A 
ATOM     31  C   UNL     1      -0.260  12.352  18.779  0.00  0.00    +0.000 A 
ATOM     32  C   UNL     1       0.796  12.451  19.686  0.00  0.00    +0.000 A 
ATOM     33  C   UNL     1       1.034  11.420  20.597  0.00  0.00    +0.000 A 
ENDBRANCH  25  28
ENDBRANCH  23  25
ENDBRANCH  22  23
ENDBRANCH  21  22
ENDBRANCH   5  21
TORSDOF 10
ENDMDL
MODEL 5
REMARK VINA RESULT:      -7.3      2.737      7.489
REMARK  Name = 
REMARK  10 active torsions:
REMARK  status: ('A' for Active; 'I' for Inactive)
REMARK    1  A    between atoms: C_2  and  C_3
REMARK    2  A    between atoms: C_6  and  O_7
REMARK    3  A    between atoms: O_7  and  C_8
REMARK    4  A    between atoms: C_8  and  C_9
REMARK    5  A    between atoms: C_9  and  N_10
REMARK    6  A    between atoms: N_14  and  C_15
REMARK    7  A    between atoms: C_15  and  C_16
REMARK    8  A    between atoms: C_16  and  N_17
REMARK    9  A    between atoms: N_17  and  S_18
REMARK   10  A    between atoms: S_18  and  C_21
REMARK                            x       y       z     vdW  Elec       q    Type
REMARK                         _______ _______ _______ _____ _____    ______ ____
ROOT
ATOM      1  N   UNL     1       3.213   2.377  18.810  0.00  0.00    +0.000 NA
ATOM      2  C   UNL     1       3.024   2.746  20.223  0.00  0.00    +0.000 C 
ATOM      3  C   UNL     1       2.460   4.162  20.474  0.00  0.00    +0.000 C 
ATOM      4  C   UNL     1       3.316   5.375  20.021  0.00  0.00    +0.000 C 
ATOM      5  N   UNL     1       3.099   5.926  18.664  0.00  0.00    +0.000 NA
ATOM      6  C   UNL     1       1.971   5.357  17.900  0.00  0.00    +0.000 C 
ATOM      7  C   UNL     1       1.300   4.087  18.453  0.00  0.00    +0.000 C 
ATOM      8  C   UNL     1       1.981   2.742  18.071  0.00  0.00    +0.000 C 
ATOM      9  O   UNL     1       1.150   4.226  19.879  0.00  0.00    +0.000 OA
ENDROOT
BRANCH   1  10
ATOM     10  C   UNL     1       4.370   3.016  18.193  0.00  0.00    +0.000 C 
BRANCH  10  11
ATOM     11  C   UNL     1       4.332   3.232  16.690  0.00  0.00    +0.000 C 
BRANCH  11  12
ATOM     12  O   UNL     1       5.699   3.494  16.396  0.00  0.00    +0.000 OA
BRANCH  12  16
ATOM     13  C   UNL     1       7.313   7.089  17.475  0.00  0.00    +0.000 A 
ATOM     14  C   UNL     1       7.800   5.893  18.002  0.00  0.00    +0.000 A 
ATOM     15  C   UNL     1       7.223   4.704  17.600  0.00  0.00    +0.000 A 
ATOM     16  C   UNL     1       6.159   4.724  16.703  0.00  0.00    +0.000 A 
ATOM     17  C   UNL     1       5.683   5.914  16.161  0.00  0.00    +0.000 A 
ATOM     18  C   UNL     1       6.264   7.108  16.553  0.00  0.00    +0.000 A 
BRANCH  13  20
ATOM     19  N   UNL     1       8.355   9.319  18.222  0.00  0.00    +0.000 NA
ATOM     20  C   UNL     1       7.895   8.317  17.880  0.00  0.00    +0.000 C 
ENDBRANCH  13  20
ENDBRANCH  12  16
ENDBRANCH  11  12
ENDBRANCH  10  11
ENDBRANCH   1  10
BRANCH   5  21
ATOM     21  C   UNL     1       3.122   7.397  18.616  0.00  0.00    +0.000 C 
BRANCH  21  22
ATOM     22  C   UNL     1       1.761   8.022  18.970  0.00  0.00    +0.000 C 
BRANCH  22  23
ATOM     23  N   UNL     1       1.453   9.195  18.151  0.00  0.00    +0.000 NA
ATOM     24  H   UNL     1       0.891   9.058  17.312  0.00  0.00    +0.000 HD
BRANCH  23  25
ATOM     25  S   UNL     1       0.917  10.536  19.036  0.00  0.00    +0.000 S 
ATOM     26  O   UNL     1       0.927  10.127  20.427  0.00  0.00    +0.000 OA
ATOM     27  O   UNL     1       1.648  11.699  18.575  0.00  0.00    +0.000 OA
BRANCH  25  28
ATOM     28  C   UNL     1      -0.775  10.673  18.526  0.00  0.00    +0.000 A 
ATOM     29  C   UNL     1      -1.602  11.603  19.161  0.00  0.00    +0.000 A 
ATOM     30  C   UNL     1      -2.919  11.756  18.729  0.00  0.00    +0.000 A 
ATOM     31  C   UNL     1      -3.399  10.988  17.666  0.00  0.00    +0.000 A 
ATOM     32  C   UNL     1      -2.571  10.053  17.042  0.00  0.00    +0.000 A 
ATOM     33  C   UNL     1      -1.254   9.887  17.475  0.00  0.00    +0.000 A 
ENDBRANCH  25  28
ENDBRANCH  23  25
ENDBRANCH  22  23
ENDBRANCH  21  22
ENDBRANCH   5  21
TORSDOF 10
ENDMDL
MODEL 6
REMARK VINA RESULT:      -7.2      4.210      8.181
REMARK  Name = 
REMARK  10 active torsions:
REMARK  status: ('A' for Active; 'I' for Inactive)
REMARK    1  A    between atoms: C_2  and  C_3
REMARK    2  A    between atoms: C_6  and  O_7
REMARK    3  A    between atoms: O_7  and  C_8
REMARK    4  A    between atoms: C_8  and  C_9
REMARK    5  A    between atoms: C_9  and  N_10
REMARK    6  A    between atoms: N_14  and  C_15
REMARK    7  A    between atoms: C_15  and  C_16
REMARK    8  A    between atoms: C_16  and  N_17
REMARK    9  A    between atoms: N_17  and  S_18
REMARK   10  A    between atoms: S_18  and  C_21
REMARK                            x       y       z     vdW  Elec       q    Type
REMARK                         _______ _______ _______ _____ _____    ______ ____
ROOT
ATOM      1  N   UNL     1       7.721   6.020  17.245  0.00  0.00    +0.000 NA
ATOM      2  C   UNL     1       7.410   4.867  18.109  0.00  0.00    +0.000 C 
ATOM      3  C   UNL     1       5.919   4.474  18.187  0.00  0.00    +0.000 C 
ATOM      4  C   UNL     1       4.929   5.504  18.796  0.00  0.00    +0.000 C 
ATOM      5  N   UNL     1       4.253   6.457  17.886  0.00  0.00    +0.000 NA
ATOM      6  C   UNL     1       4.472   6.249  16.441  0.00  0.00    +0.000 C 
ATOM      7  C   UNL     1       5.571   5.257  16.019  0.00  0.00    +0.000 C 
ATOM      8  C   UNL     1       7.014   5.832  15.957  0.00  0.00    +0.000 C 
ATOM      9  O   UNL     1       5.493   4.093  16.866  0.00  0.00    +0.000 OA
ENDROOT
BRANCH   1  10
ATOM     10  C   UNL     1       7.349   7.301  17.834  0.00  0.00    +0.000 C 
BRANCH  10  11
ATOM     11  C   UNL     1       8.456   8.132  18.459  0.00  0.00    +0.000 C 
BRANCH  11  12
ATOM     12  O   UNL     1       8.136   9.442  18.002  0.00  0.00    +0.000 OA
BRANCH  12  16
ATOM     13  C   UNL     1      10.190  12.694  19.379  0.00  0.00    +0.000 A 
ATOM     14  C   UNL     1       9.489  12.741  18.175  0.00  0.00    +0.000 A 
ATOM     15  C   UNL     1       8.806  11.616  17.756  0.00  0.00    +0.000 A 
ATOM     16  C   UNL     1       8.851  10.458  18.527  0.00  0.00    +0.000 A 
ATOM     17  C   UNL     1       9.534  10.412  19.738  0.00  0.00    +0.000 A 
ATOM     18  C   UNL     1      10.213  11.541  20.167  0.00  0.00    +0.000 A 
BRANCH  13  20
ATOM     19  N   UNL     1      11.457  14.786  20.175  0.00  0.00    +0.000 NA
ATOM     20  C   UNL     1      10.897  13.842  19.820  0.00  0.00    +0.000 C 
ENDBRANCH  13  20
ENDBRANCH  12  16
ENDBRANCH  11  12
ENDBRANCH  10  11
ENDBRANCH   1  10
BRANCH   5  21
ATOM     21  C   UNL     1       2.834   6.674  18.211  0.00  0.00    +0.000 C 
BRANCH  21  22
ATOM     22  C   UNL     1       2.412   8.147  18.071  0.00  0.00    +0.000 C 
BRANCH  22  23
ATOM     23  N   UNL     1       1.720   8.647  19.258  0.00  0.00    +0.000 NA
ATOM     24  H   UNL     1       2.244   8.702  20.131  0.00  0.00    +0.000 HD
BRANCH  23  25
ATOM     25  S   UNL     1       0.823  10.060  18.994  0.00  0.00    +0.000 S 
ATOM     26  O   UNL     1       1.794  11.123  18.817  0.00  0.00    +0.000 OA
ATOM     27  O   UNL     1      -0.186   9.771  17.996  0.00  0.00    +0.000 OA
BRANCH  25  28
ATOM     28  C   UNL     1       0.035  10.306  20.563  0.00  0.00    +0.000 A 
ATOM     29  C   UNL     1       0.169   9.327  21.551  0.00  0.00    +0.000 A 
ATOM     30  C   UNL     1      -0.400   9.538  22.806  0.00  0.00    +0.000 A 
ATOM     31  C   UNL     1      -1.093  10.722  23.068  0.00  0.00    +0.000 A 
ATOM     32  C   UNL     1      -1.233  11.692  22.074  0.00  0.00    +0.000 A 
ATOM     33  C   UNL     1      -0.674  11.484  20.812  0.00  0.00    +0.000 A 
ENDBRANCH  25  28
ENDBRANCH  23  25
ENDBRANCH  22  23
ENDBRANCH  21  22
ENDBRANCH   5  21
TORSDOF 10
ENDMDL
MODEL 7
REMARK VINA RESULT:      -7.2      2.970      7.604
REMARK  Name = 
REMARK  10 active torsions:
REMARK  status: ('A' for Active; 'I' for Inactive)
REMARK    1  A    between atoms: C_2  and  C_3
REMARK    2  A    between atoms: C_6  and  O_7
REMARK    3  A    between atoms: O_7  and  C_8
REMARK    4  A    between atoms: C_8  and  C_9
REMARK    5  A    between atoms: C_9  and  N_10
REMARK    6  A    between atoms: N_14  and  C_15
REMARK    7  A    between atoms: C_15  and  C_16
REMARK    8  A    between atoms: C_16  and  N_17
REMARK    9  A    between atoms: N_17  and  S_18
REMARK   10  A    between atoms: S_18  and  C_21
REMARK                            x       y       z     vdW  Elec       q    Type
REMARK                         _______ _______ _______ _____ _____    ______ ____
ROOT
ATOM      1  N   UNL     1       3.283   3.081  20.163  0.00  0.00    +0.000 NA
ATOM      2  C   UNL     1       2.602   3.855  21.215  0.00  0.00    +0.000 C 
ATOM      3  C   UNL     1       1.734   5.033  20.721  0.00  0.00    +0.000 C 
ATOM      4  C   UNL     1       2.446   6.201  19.985  0.00  0.00    +0.000 C 
ATOM      5  N   UNL     1       2.559   6.142  18.510  0.00  0.00    +0.000 NA
ATOM      6  C   UNL     1       1.847   5.033  17.844  0.00  0.00    +0.000 C 
ATOM      7  C   UNL     1       1.289   3.905  18.730  0.00  0.00    +0.000 C 
ATOM      8  C   UNL     1       2.294   2.778  19.102  0.00  0.00    +0.000 C 
ATOM      9  O   UNL     1       0.684   4.492  19.898  0.00  0.00    +0.000 OA
ENDROOT
BRANCH   1  10
ATOM     10  C   UNL     1       4.432   3.770  19.588  0.00  0.00    +0.000 C 
BRANCH  10  11
ATOM     11  C   UNL     1       5.201   3.054  18.490  0.00  0.00    +0.000 C 
BRANCH  11  12
ATOM     12  O   UNL     1       5.212   4.029  17.454  0.00  0.00    +0.000 OA
BRANCH  12  16
ATOM     13  C   UNL     1       7.401   7.452  17.879  0.00  0.00    +0.000 A 
ATOM     14  C   UNL     1       6.281   7.411  17.049  0.00  0.00    +0.000 A 
ATOM     15  C   UNL     1       5.572   6.230  16.944  0.00  0.00    +0.000 A 
ATOM     16  C   UNL     1       6.000   5.106  17.645  0.00  0.00    +0.000 A 
ATOM     17  C   UNL     1       7.106   5.148  18.487  0.00  0.00    +0.000 A 
ATOM     18  C   UNL     1       7.815   6.332  18.603  0.00  0.00    +0.000 A 
BRANCH  13  20
ATOM     19  N   UNL     1       8.739   9.641  18.070  0.00  0.00    +0.000 NA
ATOM     20  C   UNL     1       8.139   8.658  17.994  0.00  0.00    +0.000 C 
ENDBRANCH  13  20
ENDBRANCH  12  16
ENDBRANCH  11  12
ENDBRANCH  10  11
ENDBRANCH   1  10
BRANCH   5  21
ATOM     21  C   UNL     1       2.320   7.436  17.850  0.00  0.00    +0.000 C 
BRANCH  21  22
ATOM     22  C   UNL     1       1.714   8.483  18.802  0.00  0.00    +0.000 C 
BRANCH  22  23
ATOM     23  N   UNL     1       0.943   9.505  18.093  0.00  0.00    +0.000 NA
ATOM     24  H   UNL     1       0.372   9.211  17.302  0.00  0.00    +0.000 HD
BRANCH  23  25
ATOM     25  S   UNL     1       0.087  10.556  19.109  0.00  0.00    +0.000 S 
ATOM     26  O   UNL     1      -0.093   9.844  20.360  0.00  0.00    +0.000 OA
ATOM     27  O   UNL     1       0.726  11.855  19.053  0.00  0.00    +0.000 OA
BRANCH  25  28
ATOM     28  C   UNL     1      -1.492  10.649  18.311  0.00  0.00    +0.000 A 
ATOM     29  C   UNL     1      -2.475  11.486  18.846  0.00  0.00    +0.000 A 
ATOM     30  C   UNL     1      -3.701  11.609  18.193  0.00  0.00    +0.000 A 
ATOM     31  C   UNL     1      -3.936  10.902  17.012  0.00  0.00    +0.000 A 
ATOM     32  C   UNL     1      -2.955  10.060  16.487  0.00  0.00    +0.000 A 
ATOM     33  C   UNL     1      -1.728   9.924  17.140  0.00  0.00    +0.000 A 
ENDBRANCH  25  28
ENDBRANCH  23  25
ENDBRANCH  22  23
ENDBRANCH  21  22
ENDBRANCH   5  21
TORSDOF 10
ENDMDL
MODEL 8
REMARK VINA RESULT:      -7.2      2.826      7.576
REMARK  Name = 
REMARK  10 active torsions:
REMARK  status: ('A' for Active; 'I' for Inactive)
REMARK    1  A    between atoms: C_2  and  C_3
REMARK    2  A    between atoms: C_6  and  O_7
REMARK    3  A    between atoms: O_7  and  C_8
REMARK    4  A    between atoms: C_8  and  C_9
REMARK    5  A    between atoms: C_9  and  N_10
REMARK    6  A    between atoms: N_14  and  C_15
REMARK    7  A    between atoms: C_15  and  C_16
REMARK    8  A    between atoms: C_16  and  N_17
REMARK    9  A    between atoms: N_17  and  S_18
REMARK   10  A    between atoms: S_18  and  C_21
REMARK                            x       y       z     vdW  Elec       q    Type
REMARK                         _______ _______ _______ _____ _____    ______ ____
ROOT
ATOM      1  N   UNL     1       2.712   1.828  18.908  0.00  0.00    +0.000 NA
ATOM      2  C   UNL     1       3.511   2.117  20.113  0.00  0.00    +0.000 C 
ATOM      3  C   UNL     1       3.229   3.476  20.791  0.00  0.00    +0.000 C 
ATOM      4  C   UNL     1       3.535   4.766  19.984  0.00  0.00    +0.000 C 
ATOM      5  N   UNL     1       2.453   5.363  19.168  0.00  0.00    +0.000 NA
ATOM      6  C   UNL     1       1.117   4.752  19.307  0.00  0.00    +0.000 C 
ATOM      7  C   UNL     1       1.016   3.412  20.059  0.00  0.00    +0.000 C 
ATOM      8  C   UNL     1       1.296   2.139  19.212  0.00  0.00    +0.000 C 
ATOM      9  O   UNL     1       1.857   3.474  21.228  0.00  0.00    +0.000 OA
ENDROOT
BRANCH   1  10
ATOM     10  C   UNL     1       3.145   2.576  17.734  0.00  0.00    +0.000 C 
BRANCH  10  11
ATOM     11  C   UNL     1       4.639   2.768  17.537  0.00  0.00    +0.000 C 
BRANCH  11  12
ATOM     12  O   UNL     1       4.677   3.751  16.509  0.00  0.00    +0.000 OA
BRANCH  12  16
ATOM     13  C   UNL     1       6.941   7.026  17.425  0.00  0.00    +0.000 A 
ATOM     14  C   UNL     1       7.368   5.740  17.753  0.00  0.00    +0.000 A 
ATOM     15  C   UNL     1       6.567   4.665  17.417  0.00  0.00    +0.000 A 
ATOM     16  C   UNL     1       5.349   4.888  16.782  0.00  0.00    +0.000 A 
ATOM     17  C   UNL     1       4.927   6.168  16.437  0.00  0.00    +0.000 A 
ATOM     18  C   UNL     1       5.730   7.248  16.764  0.00  0.00    +0.000 A 
BRANCH  13  20
ATOM     19  N   UNL     1       8.397   9.055  18.041  0.00  0.00    +0.000 NA
ATOM     20  C   UNL     1       7.752   8.139  17.767  0.00  0.00    +0.000 C 
ENDBRANCH  13  20
ENDBRANCH  12  16
ENDBRANCH  11  12
ENDBRANCH  10  11
ENDBRANCH   1  10
BRANCH   5  21
ATOM     21  C   UNL     1       2.406   6.833  19.238  0.00  0.00    +0.000 C 
BRANCH  21  22
ATOM     22  C   UNL     1       1.786   7.343  20.550  0.00  0.00    +0.000 C 
BRANCH  22  23
ATOM     23  N   UNL     1       1.314   8.724  20.448  0.00  0.00    +0.000 NA
ATOM     24  H   UNL     1       0.959   9.043  19.547  0.00  0.00    +0.000 HD
BRANCH  23  25
ATOM     25  S   UNL     1       0.295   9.204  21.712  0.00  0.00    +0.000 S 
ATOM     26  O   UNL     1      -0.635   8.108  21.914  0.00  0.00    +0.000 OA
ATOM     27  O   UNL     1       1.121   9.714  22.787  0.00  0.00    +0.000 OA
BRANCH  25  28
ATOM     28  C   UNL     1      -0.605  10.546  20.983  0.00  0.00    +0.000 A 
ATOM     29  C   UNL     1      -1.071  11.577  21.804  0.00  0.00    +0.000 A 
ATOM     30  C   UNL     1      -1.730  12.664  21.233  0.00  0.00    +0.000 A 
ATOM     31  C   UNL     1      -1.916  12.718  19.850  0.00  0.00    +0.000 A 
ATOM     32  C   UNL     1      -1.458  11.681  19.035  0.00  0.00    +0.000 A 
ATOM     33  C   UNL     1      -0.805  10.585  19.601  0.00  0.00    +0.000 A 
ENDBRANCH  25  28
ENDBRANCH  23  25
ENDBRANCH  22  23
ENDBRANCH  21  22
ENDBRANCH   5  21
TORSDOF 10
ENDMDL
MODEL 9
REMARK VINA RESULT:      -7.1      2.562      3.654
REMARK  Name = 
REMARK  10 active torsions:
REMARK  status: ('A' for Active; 'I' for Inactive)
REMARK    1  A    between atoms: C_2  and  C_3
REMARK    2  A    between atoms: C_6  and  O_7
REMARK    3  A    between atoms: O_7  and  C_8
REMARK    4  A    between atoms: C_8  and  C_9
REMARK    5  A    between atoms: C_9  and  N_10
REMARK    6  A    between atoms: N_14  and  C_15
REMARK    7  A    between atoms: C_15  and  C_16
REMARK    8  A    between atoms: C_16  and  N_17
REMARK    9  A    between atoms: N_17  and  S_18
REMARK   10  A    between atoms: S_18  and  C_21
REMARK                            x       y       z     vdW  Elec       q    Type
REMARK                         _______ _______ _______ _____ _____    ______ ____
ROOT
ATOM      1  N   UNL     1       1.420   4.357  20.873  0.00  0.00    +0.000 NA
ATOM      2  C   UNL     1       0.623   3.506  19.972  0.00  0.00    +0.000 C 
ATOM      3  C   UNL     1       1.413   2.793  18.853  0.00  0.00    +0.000 C 
ATOM      4  C   UNL     1       2.118   3.676  17.788  0.00  0.00    +0.000 C 
ATOM      5  N   UNL     1       3.523   4.079  18.021  0.00  0.00    +0.000 NA
ATOM      6  C   UNL     1       4.189   3.479  19.194  0.00  0.00    +0.000 C 
ATOM      7  C   UNL     1       3.311   2.718  20.204  0.00  0.00    +0.000 C 
ATOM      8  C   UNL     1       2.618   3.589  21.289  0.00  0.00    +0.000 C 
ATOM      9  O   UNL     1       2.364   1.911  19.477  0.00  0.00    +0.000 OA
ENDROOT
BRANCH   1  10
ATOM     10  C   UNL     1       1.826   5.620  20.268  0.00  0.00    +0.000 C 
BRANCH  10  11
ATOM     11  C   UNL     1       1.787   6.860  21.144  0.00  0.00    +0.000 C 
BRANCH  11  12
ATOM     12  O   UNL     1       1.354   7.857  20.224  0.00  0.00    +0.000 OA
BRANCH  12  16
ATOM     13  C   UNL     1      -0.410  11.041  22.078  0.00  0.00    +0.000 A 
ATOM     14  C   UNL     1      -0.274   9.815  22.727  0.00  0.00    +0.000 A 
ATOM     15  C   UNL     1       0.334   8.771  22.058  0.00  0.00    +0.000 A 
ATOM     16  C   UNL     1       0.775   8.956  20.750  0.00  0.00    +0.000 A 
ATOM     17  C   UNL     1       0.658  10.183  20.106  0.00  0.00    +0.000 A 
ATOM     18  C   UNL     1       0.056  11.236  20.776  0.00  0.00    +0.000 A 
BRANCH  13  20
ATOM     19  N   UNL     1      -1.560  12.997  23.292  0.00  0.00    +0.000 NA
ATOM     20  C   UNL     1      -1.035  12.122  22.753  0.00  0.00    +0.000 C 
ENDBRANCH  13  20
ENDBRANCH  12  16
ENDBRANCH  11  12
ENDBRANCH  10  11
ENDBRANCH   1  10
BRANCH   5  21
ATOM     21  C   UNL     1       4.360   4.020  16.812  0.00  0.00    +0.000 C 
BRANCH  21  22
ATOM     22  C   UNL     1       5.843   4.313  17.104  0.00  0.00    +0.000 C 
BRANCH  22  23
ATOM     23  N   UNL     1       6.715   3.963  15.983  0.00  0.00    +0.000 NA
ATOM     24  H   UNL     1       6.706   2.998  15.653  0.00  0.00    +0.000 HD
BRANCH  23  25
ATOM     25  S   UNL     1       6.650   5.053  14.688  0.00  0.00    +0.000 S 
ATOM     26  O   UNL     1       5.537   5.940  14.967  0.00  0.00    +0.000 OA
ATOM     27  O   UNL     1       7.989   5.555  14.455  0.00  0.00    +0.000 OA
BRANCH  25  28
ATOM     28  C   UNL     1       6.179   4.007  13.337  0.00  0.00    +0.000 A 
ATOM     29  C   UNL     1       4.825   3.881  13.015  0.00  0.00    +0.000 A 
ATOM     30  C   UNL     1       4.450   3.105  11.919  0.00  0.00    +0.000 A 
ATOM     31  C   UNL     1       5.425   2.466  11.150  0.00  0.00    +0.000 A 
ATOM     32  C   UNL     1       6.776   2.586  11.482  0.00  0.00    +0.000 A 
ATOM     33  C   UNL     1       7.159   3.353  12.583  0.00  0.00    +0.000 A 
ENDBRANCH  25  28
ENDBRANCH  23  25
ENDBRANCH  22  23
ENDBRANCH  21  22
ENDBRANCH   5  21
TORSDOF 10
ENDMDL
