MODEL 1
REMARK VINA RESULT:      -8.0      0.000      0.000
REMARK  Name = 
REMARK  5 active torsions:
REMARK  status: ('A' for Active; 'I' for Inactive)
REMARK    1  A    between atoms: C_2  and  C_11
REMARK    2  A    between atoms: N_3  and  C_4
REMARK    3  A    between atoms: C_4  and  C_5
REMARK    4  A    between atoms: C_13  and  C_14
REMARK    5  A    between atoms: C_18  and  O_19
REMARK                            x       y       z     vdW  Elec       q    Type
REMARK                         _______ _______ _______ _____ _____    ______ ____
ROOT
ATOM      1  C   UNL     1       5.835   5.663  17.476  0.00  0.00    +0.000 A 
ATOM      2  C   UNL     1       5.488   4.960  16.301  0.00  0.00    +0.000 A 
ATOM      3  C   UNL     1       6.535   5.154  15.435  0.00  0.00    +0.000 A 
ATOM      4  O   UNL     1       7.480   5.912  16.066  0.00  0.00    +0.000 OA
ATOM      5  N   UNL     1       7.040   6.244  17.350  0.00  0.00    +0.000 NA
ENDROOT
BRANCH   3   6
ATOM      6  C   UNL     1       6.776   4.743  14.057  0.00  0.00    +0.000 A 
ATOM      7  C   UNL     1       7.634   5.445  13.199  0.00  0.00    +0.000 A 
ATOM      8  C   UNL     1       7.813   5.028  11.871  0.00  0.00    +0.000 A 
ATOM      9  C   UNL     1       7.138   3.909  11.385  0.00  0.00    +0.000 A 
ATOM     10  C   UNL     1       6.291   3.210  12.234  0.00  0.00    +0.000 A 
ATOM     11  C   UNL     1       6.112   3.613  13.551  0.00  0.00    +0.000 A 
BRANCH  10  12
ATOM     12  O   UNL     1       5.602   2.110  11.814  0.00  0.00    +0.000 OA
ATOM     13  H   UNL     1       5.910   1.336  12.314  0.00  0.00    +0.000 HD
ENDBRANCH  10  12
ENDBRANCH   3   6
BRANCH   1  15
ATOM     14  O   UNL     1       5.392   5.406  19.767  0.00  0.00    +0.000 OA
ATOM     15  C   UNL     1       4.984   5.763  18.662  0.00  0.00    +0.000 C 
ATOM     16  N   UNL     1       3.710   6.242  18.466  0.00  0.00    +0.000 N 
ATOM     17  H   UNL     1       3.438   6.518  17.529  0.00  0.00    +0.000 HD
BRANCH  16  18
ATOM     18  C   UNL     1       2.767   6.317  19.556  0.00  0.00    +0.000 C 
BRANCH  18  19
ATOM     19  C   UNL     1       2.171   4.972  19.870  0.00  0.00    +0.000 A 
ATOM     20  C   UNL     1       2.214   4.457  21.173  0.00  0.00    +0.000 A 
ATOM     21  C   UNL     1       1.680   3.199  21.453  0.00  0.00    +0.000 A 
ATOM     22  C   UNL     1       1.097   2.444  20.436  0.00  0.00    +0.000 A 
ATOM     23  C   UNL     1       1.042   2.949  19.139  0.00  0.00    +0.000 A 
ATOM     24  C   UNL     1       1.579   4.205  18.855  0.00  0.00    +0.000 A 
ENDBRANCH  18  19
ENDBRANCH  16  18
ENDBRANCH   1  15
TORSDOF 5
ENDMDL
MODEL 2
REMARK VINA RESULT:      -8.0      4.089      7.960
REMARK  Name = 
REMARK  5 active torsions:
REMARK  status: ('A' for Active; 'I' for Inactive)
REMARK    1  A    between atoms: C_2  and  C_11
REMARK    2  A    between atoms: N_3  and  C_4
REMARK    3  A    between atoms: C_4  and  C_5
REMARK    4  A    between atoms: C_13  and  C_14
REMARK    5  A    between atoms: C_18  and  O_19
REMARK                            x       y       z     vdW  Elec       q    Type
REMARK                         _______ _______ _______ _____ _____    ______ ____
ROOT
ATOM      1  C   UNL     1       6.479   6.080  18.222  0.00  0.00    +0.000 A 
ATOM      2  C   UNL     1       5.066   6.067  18.197  0.00  0.00    +0.000 A 
ATOM      3  C   UNL     1       4.695   5.030  19.017  0.00  0.00    +0.000 A 
ATOM      4  O   UNL     1       5.826   4.465  19.533  0.00  0.00    +0.000 OA
ATOM      5  N   UNL     1       6.953   5.116  19.028  0.00  0.00    +0.000 NA
ENDROOT
BRANCH   3   6
ATOM      6  C   UNL     1       3.402   4.460  19.377  0.00  0.00    +0.000 A 
ATOM      7  C   UNL     1       2.509   5.102  20.246  0.00  0.00    +0.000 A 
ATOM      8  C   UNL     1       1.286   4.503  20.585  0.00  0.00    +0.000 A 
ATOM      9  C   UNL     1       0.943   3.256  20.063  0.00  0.00    +0.000 A 
ATOM     10  C   UNL     1       1.823   2.620  19.198  0.00  0.00    +0.000 A 
ATOM     11  C   UNL     1       3.033   3.209  18.854  0.00  0.00    +0.000 A 
BRANCH  10  12
ATOM     12  O   UNL     1       1.544   1.399  18.659  0.00  0.00    +0.000 OA
ATOM     13  H   UNL     1       2.371   0.996  18.347  0.00  0.00    +0.000 HD
ENDBRANCH  10  12
ENDBRANCH   3   6
BRANCH   1  15
ATOM     14  O   UNL     1       7.709   6.713  16.326  0.00  0.00    +0.000 OA
ATOM     15  C   UNL     1       7.310   7.006  17.453  0.00  0.00    +0.000 C 
ATOM     16  N   UNL     1       7.640   8.191  18.067  0.00  0.00    +0.000 N 
ATOM     17  H   UNL     1       7.277   8.370  18.996  0.00  0.00    +0.000 HD
BRANCH  16  18
ATOM     18  C   UNL     1       8.511   9.146  17.423  0.00  0.00    +0.000 C 
BRANCH  18  19
ATOM     19  C   UNL     1       8.846  10.296  18.334  0.00  0.00    +0.000 A 
ATOM     20  C   UNL     1       8.781  11.617  17.872  0.00  0.00    +0.000 A 
ATOM     21  C   UNL     1       9.115  12.677  18.715  0.00  0.00    +0.000 A 
ATOM     22  C   UNL     1       9.517  12.428  20.027  0.00  0.00    +0.000 A 
ATOM     23  C   UNL     1       9.579  11.119  20.499  0.00  0.00    +0.000 A 
ATOM     24  C   UNL     1       9.248  10.057  19.657  0.00  0.00    +0.000 A 
ENDBRANCH  18  19
ENDBRANCH  16  18
ENDBRANCH   1  15
TORSDOF 5
ENDMDL
MODEL 3
REMARK VINA RESULT:      -8.0      4.323      6.393
REMARK  Name = 
REMARK  5 active torsions:
REMARK  status: ('A' for Active; 'I' for Inactive)
REMARK    1  A    between atoms: C_2  and  C_11
REMARK    2  A    between atoms: N_3  and  C_4
REMARK    3  A    between atoms: C_4  and  C_5
REMARK    4  A    between atoms: C_13  and  C_14
REMARK    5  A    between atoms: C_18  and  O_19
REMARK                            x       y       z     vdW  Elec       q    Type
REMARK                         _______ _______ _______ _____ _____    ______ ____
ROOT
ATOM      1  C   UNL     1       7.083   6.907  17.433  0.00  0.00    +0.000 A 
ATOM      2  C   UNL     1       7.282   8.296  17.262  0.00  0.00    +0.000 A 
ATOM      3  C   UNL     1       8.205   8.653  18.214  0.00  0.00    +0.000 A 
ATOM      4  O   UNL     1       8.565   7.531  18.905  0.00  0.00    +0.000 OA
ATOM      5  N   UNL     1       7.854   6.430  18.423  0.00  0.00    +0.000 NA
ENDROOT
BRANCH   3   6
ATOM      6  C   UNL     1       8.794   9.930  18.598  0.00  0.00    +0.000 A 
ATOM      7  C   UNL     1       9.420  10.131  19.836  0.00  0.00    +0.000 A 
ATOM      8  C   UNL     1       9.949  11.386  20.173  0.00  0.00    +0.000 A 
ATOM      9  C   UNL     1       9.859  12.453  19.280  0.00  0.00    +0.000 A 
ATOM     10  C   UNL     1       9.244  12.256  18.051  0.00  0.00    +0.000 A 
ATOM     11  C   UNL     1       8.722  11.015  17.708  0.00  0.00    +0.000 A 
BRANCH  10  12
ATOM     12  O   UNL     1       9.123  13.262  17.139  0.00  0.00    +0.000 OA
ATOM     13  H   UNL     1       9.605  13.016  16.333  0.00  0.00    +0.000 HD
ENDBRANCH  10  12
ENDBRANCH   3   6
BRANCH   1  15
ATOM     14  O   UNL     1       5.592   6.570  15.651  0.00  0.00    +0.000 OA
ATOM     15  C   UNL     1       6.143   6.105  16.649  0.00  0.00    +0.000 C 
ATOM     16  N   UNL     1       5.893   4.832  17.104  0.00  0.00    +0.000 N 
ATOM     17  H   UNL     1       6.382   4.511  17.932  0.00  0.00    +0.000 HD
BRANCH  16  18
ATOM     18  C   UNL     1       4.933   3.980  16.443  0.00  0.00    +0.000 C 
BRANCH  18  19
ATOM     19  C   UNL     1       3.765   3.661  17.336  0.00  0.00    +0.000 A 
ATOM     20  C   UNL     1       3.617   2.383  17.892  0.00  0.00    +0.000 A 
ATOM     21  C   UNL     1       2.520   2.087  18.701  0.00  0.00    +0.000 A 
ATOM     22  C   UNL     1       1.560   3.064  18.963  0.00  0.00    +0.000 A 
ATOM     23  C   UNL     1       1.700   4.340  18.422  0.00  0.00    +0.000 A 
ATOM     24  C   UNL     1       2.795   4.638  17.610  0.00  0.00    +0.000 A 
ENDBRANCH  18  19
ENDBRANCH  16  18
ENDBRANCH   1  15
TORSDOF 5
ENDMDL
MODEL 4
REMARK VINA RESULT:      -8.0      0.052      1.031
REMARK  Name = 
REMARK  5 active torsions:
REMARK  status: ('A' for Active; 'I' for Inactive)
REMARK    1  A    between atoms: C_2  and  C_11
REMARK    2  A    between atoms: N_3  and  C_4
REMARK    3  A    between atoms: C_4  and  C_5
REMARK    4  A    between atoms: C_13  and  C_14
REMARK    5  A    between atoms: C_18  and  O_19
REMARK                            x       y       z     vdW  Elec       q    Type
REMARK                         _______ _______ _______ _____ _____    ______ ____
ROOT
ATOM      1  C   UNL     1       5.809   5.685  17.485  0.00  0.00    +0.000 A 
ATOM      2  C   UNL     1       5.495   4.937  16.328  0.00  0.00    +0.000 A 
ATOM      3  C   UNL     1       6.518   5.180  15.446  0.00  0.00    +0.000 A 
ATOM      4  O   UNL     1       7.419   6.010  16.051  0.00  0.00    +0.000 OA
ATOM      5  N   UNL     1       6.973   6.338  17.333  0.00  0.00    +0.000 NA
ENDROOT
BRANCH   3   6
ATOM      6  C   UNL     1       6.769   4.758  14.073  0.00  0.00    +0.000 A 
ATOM      7  C   UNL     1       7.647   5.442  13.221  0.00  0.00    +0.000 A 
ATOM      8  C   UNL     1       7.836   5.015  11.898  0.00  0.00    +0.000 A 
ATOM      9  C   UNL     1       7.151   3.904  11.410  0.00  0.00    +0.000 A 
ATOM     10  C   UNL     1       6.283   3.221  12.252  0.00  0.00    +0.000 A 
ATOM     11  C   UNL     1       6.094   3.635  13.565  0.00  0.00    +0.000 A 
BRANCH  10  12
ATOM     12  O   UNL     1       5.583   2.130  11.831  0.00  0.00    +0.000 OA
ATOM     13  H   UNL     1       5.131   2.348  11.000  0.00  0.00    +0.000 HD
ENDBRANCH  10  12
ENDBRANCH   3   6
BRANCH   1  15
ATOM     14  O   UNL     1       5.380   5.361  19.771  0.00  0.00    +0.000 OA
ATOM     15  C   UNL     1       4.966   5.753  18.679  0.00  0.00    +0.000 C 
ATOM     16  N   UNL     1       3.694   6.245  18.506  0.00  0.00    +0.000 N 
ATOM     17  H   UNL     1       3.417   6.551  17.581  0.00  0.00    +0.000 HD
BRANCH  16  18
ATOM     18  C   UNL     1       2.759   6.293  19.605  0.00  0.00    +0.000 C 
BRANCH  18  19
ATOM     19  C   UNL     1       2.180   4.937  19.903  0.00  0.00    +0.000 A 
ATOM     20  C   UNL     1       1.569   4.182  18.893  0.00  0.00    +0.000 A 
ATOM     21  C   UNL     1       1.014   2.935  19.181  0.00  0.00    +0.000 A 
ATOM     22  C   UNL     1       1.064   2.429  20.480  0.00  0.00    +0.000 A 
ATOM     23  C   UNL     1       1.676   3.168  21.491  0.00  0.00    +0.000 A 
ATOM     24  C   UNL     1       2.228   4.417  21.206  0.00  0.00    +0.000 A 
ENDBRANCH  18  19
ENDBRANCH  16  18
ENDBRANCH   1  15
TORSDOF 5
ENDMDL
MODEL 5
REMARK VINA RESULT:      -7.9      4.166      7.972
REMARK  Name = 
REMARK  5 active torsions:
REMARK  status: ('A' for Active; 'I' for Inactive)
REMARK    1  A    between atoms: C_2  and  C_11
REMARK    2  A    between atoms: N_3  and  C_4
REMARK    3  A    between atoms: C_4  and  C_5
REMARK    4  A    between atoms: C_13  and  C_14
REMARK    5  A    between atoms: C_18  and  O_19
REMARK                            x       y       z     vdW  Elec       q    Type
REMARK                         _______ _______ _______ _____ _____    ______ ____
ROOT
ATOM      1  C   UNL     1       6.549   6.199  18.343  0.00  0.00    +0.000 A 
ATOM      2  C   UNL     1       5.144   6.084  18.242  0.00  0.00    +0.000 A 
ATOM      3  C   UNL     1       4.793   5.097  19.129  0.00  0.00    +0.000 A 
ATOM      4  O   UNL     1       5.926   4.657  19.753  0.00  0.00    +0.000 OA
ATOM      5  N   UNL     1       7.036   5.342  19.255  0.00  0.00    +0.000 NA
ENDROOT
BRANCH   3   6
ATOM      6  C   UNL     1       3.521   4.469  19.467  0.00  0.00    +0.000 A 
ATOM      7  C   UNL     1       2.580   5.076  20.310  0.00  0.00    +0.000 A 
ATOM      8  C   UNL     1       1.380   4.422  20.628  0.00  0.00    +0.000 A 
ATOM      9  C   UNL     1       1.107   3.157  20.112  0.00  0.00    +0.000 A 
ATOM     10  C   UNL     1       2.035   2.555  19.273  0.00  0.00    +0.000 A 
ATOM     11  C   UNL     1       3.223   3.197  18.948  0.00  0.00    +0.000 A 
BRANCH  10  12
ATOM     12  O   UNL     1       1.826   1.317  18.740  0.00  0.00    +0.000 OA
ATOM     13  H   UNL     1       0.872   1.189  18.606  0.00  0.00    +0.000 HD
ENDBRANCH  10  12
ENDBRANCH   3   6
BRANCH   1  15
ATOM     14  O   UNL     1       7.727   6.808  16.406  0.00  0.00    +0.000 OA
ATOM     15  C   UNL     1       7.363   7.113  17.542  0.00  0.00    +0.000 C 
ATOM     16  N   UNL     1       7.718   8.301  18.136  0.00  0.00    +0.000 N 
ATOM     17  H   UNL     1       7.384   8.490  19.074  0.00  0.00    +0.000 HD
BRANCH  16  18
ATOM     18  C   UNL     1       8.575   9.245  17.458  0.00  0.00    +0.000 C 
BRANCH  18  19
ATOM     19  C   UNL     1       8.943  10.401  18.349  0.00  0.00    +0.000 A 
ATOM     20  C   UNL     1       9.334  10.184  19.677  0.00  0.00    +0.000 A 
ATOM     21  C   UNL     1       9.652  11.262  20.504  0.00  0.00    +0.000 A 
ATOM     22  C   UNL     1       9.583  12.565  20.014  0.00  0.00    +0.000 A 
ATOM     23  C   UNL     1       9.202  12.792  18.693  0.00  0.00    +0.000 A 
ATOM     24  C   UNL     1       8.880  11.716  17.865  0.00  0.00    +0.000 A 
ENDBRANCH  18  19
ENDBRANCH  16  18
ENDBRANCH   1  15
TORSDOF 5
ENDMDL
MODEL 6
REMARK VINA RESULT:      -7.9      4.524      6.397
REMARK  Name = 
REMARK  5 active torsions:
REMARK  status: ('A' for Active; 'I' for Inactive)
REMARK    1  A    between atoms: C_2  and  C_11
REMARK    2  A    between atoms: N_3  and  C_4
REMARK    3  A    between atoms: C_4  and  C_5
REMARK    4  A    between atoms: C_13  and  C_14
REMARK    5  A    between atoms: C_18  and  O_19
REMARK                            x       y       z     vdW  Elec       q    Type
REMARK                         _______ _______ _______ _____ _____    ______ ____
ROOT
ATOM      1  C   UNL     1       7.483   6.893  18.080  0.00  0.00    +0.000 A 
ATOM      2  C   UNL     1       8.336   7.603  18.954  0.00  0.00    +0.000 A 
ATOM      3  C   UNL     1       8.496   8.841  18.383  0.00  0.00    +0.000 A 
ATOM      4  O   UNL     1       7.755   8.885  17.236  0.00  0.00    +0.000 OA
ATOM      5  N   UNL     1       7.121   7.657  17.036  0.00  0.00    +0.000 NA
ENDROOT
BRANCH   3   6
ATOM      6  C   UNL     1       9.285  10.011  18.750  0.00  0.00    +0.000 A 
ATOM      7  C   UNL     1       9.371  10.481  20.068  0.00  0.00    +0.000 A 
ATOM      8  C   UNL     1      10.121  11.628  20.370  0.00  0.00    +0.000 A 
ATOM      9  C   UNL     1      10.790  12.320  19.361  0.00  0.00    +0.000 A 
ATOM     10  C   UNL     1      10.710  11.855  18.055  0.00  0.00    +0.000 A 
ATOM     11  C   UNL     1       9.974  10.717  17.749  0.00  0.00    +0.000 A 
BRANCH  10  12
ATOM     12  O   UNL     1      11.340  12.491  17.026  0.00  0.00    +0.000 OA
ATOM     13  H   UNL     1      11.094  13.430  17.040  0.00  0.00    +0.000 HD
ENDBRANCH  10  12
ENDBRANCH   3   6
BRANCH   1  15
ATOM     14  O   UNL     1       7.880   4.581  18.183  0.00  0.00    +0.000 OA
ATOM     15  C   UNL     1       7.069   5.503  18.276  0.00  0.00    +0.000 C 
ATOM     16  N   UNL     1       5.736   5.289  18.537  0.00  0.00    +0.000 N 
ATOM     17  H   UNL     1       5.122   6.093  18.601  0.00  0.00    +0.000 HD
BRANCH  16  18
ATOM     18  C   UNL     1       5.211   3.952  18.681  0.00  0.00    +0.000 C 
BRANCH  18  19
ATOM     19  C   UNL     1       3.913   3.943  19.440  0.00  0.00    +0.000 A 
ATOM     20  C   UNL     1       3.300   5.143  19.823  0.00  0.00    +0.000 A 
ATOM     21  C   UNL     1       2.107   5.128  20.548  0.00  0.00    +0.000 A 
ATOM     22  C   UNL     1       1.516   3.914  20.896  0.00  0.00    +0.000 A 
ATOM     23  C   UNL     1       2.113   2.714  20.515  0.00  0.00    +0.000 A 
ATOM     24  C   UNL     1       3.307   2.727  19.793  0.00  0.00    +0.000 A 
ENDBRANCH  18  19
ENDBRANCH  16  18
ENDBRANCH   1  15
TORSDOF 5
ENDMDL
MODEL 7
REMARK VINA RESULT:      -7.9      4.526      6.511
REMARK  Name = 
REMARK  5 active torsions:
REMARK  status: ('A' for Active; 'I' for Inactive)
REMARK    1  A    between atoms: C_2  and  C_11
REMARK    2  A    between atoms: N_3  and  C_4
REMARK    3  A    between atoms: C_4  and  C_5
REMARK    4  A    between atoms: C_13  and  C_14
REMARK    5  A    between atoms: C_18  and  O_19
REMARK                            x       y       z     vdW  Elec       q    Type
REMARK                         _______ _______ _______ _____ _____    ______ ____
ROOT
ATOM      1  C   UNL     1       7.495   6.811  18.020  0.00  0.00    +0.000 A 
ATOM      2  C   UNL     1       8.314   7.561  18.894  0.00  0.00    +0.000 A 
ATOM      3  C   UNL     1       8.424   8.802  18.318  0.00  0.00    +0.000 A 
ATOM      4  O   UNL     1       7.687   8.809  17.168  0.00  0.00    +0.000 OA
ATOM      5  N   UNL     1       7.106   7.554  16.971  0.00  0.00    +0.000 NA
ENDROOT
BRANCH   3   6
ATOM      6  C   UNL     1       9.161  10.006  18.684  0.00  0.00    +0.000 A 
ATOM      7  C   UNL     1       9.827  10.799  17.740  0.00  0.00    +0.000 A 
ATOM      8  C   UNL     1      10.547  11.935  18.141  0.00  0.00    +0.000 A 
ATOM      9  C   UNL     1      10.610  12.290  19.488  0.00  0.00    +0.000 A 
ATOM     10  C   UNL     1       9.948  11.509  20.425  0.00  0.00    +0.000 A 
ATOM     11  C   UNL     1       9.229  10.386  20.035  0.00  0.00    +0.000 A 
BRANCH  10  12
ATOM     12  O   UNL     1       9.976  11.804  21.756  0.00  0.00    +0.000 OA
ATOM     13  H   UNL     1      10.736  11.355  22.162  0.00  0.00    +0.000 HD
ENDBRANCH  10  12
ENDBRANCH   3   6
BRANCH   1  15
ATOM     14  O   UNL     1       7.963   4.510  18.028  0.00  0.00    +0.000 OA
ATOM     15  C   UNL     1       7.140   5.406  18.221  0.00  0.00    +0.000 C 
ATOM     16  N   UNL     1       5.845   5.147  18.601  0.00  0.00    +0.000 N 
ATOM     17  H   UNL     1       5.218   5.931  18.743  0.00  0.00    +0.000 HD
BRANCH  16  18
ATOM     18  C   UNL     1       5.372   3.792  18.762  0.00  0.00    +0.000 C 
BRANCH  18  19
ATOM     19  C   UNL     1       3.869   3.726  18.775  0.00  0.00    +0.000 A 
ATOM     20  C   UNL     1       3.190   3.097  19.827  0.00  0.00    +0.000 A 
ATOM     21  C   UNL     1       1.797   3.018  19.821  0.00  0.00    +0.000 A 
ATOM     22  C   UNL     1       1.069   3.566  18.765  0.00  0.00    +0.000 A 
ATOM     23  C   UNL     1       1.733   4.200  17.717  0.00  0.00    +0.000 A 
ATOM     24  C   UNL     1       3.127   4.277  17.719  0.00  0.00    +0.000 A 
ENDBRANCH  18  19
ENDBRANCH  16  18
ENDBRANCH   1  15
TORSDOF 5
ENDMDL
MODEL 8
REMARK VINA RESULT:      -7.9      4.355      6.521
REMARK  Name = 
REMARK  5 active torsions:
REMARK  status: ('A' for Active; 'I' for Inactive)
REMARK    1  A    between atoms: C_2  and  C_11
REMARK    2  A    between atoms: N_3  and  C_4
REMARK    3  A    between atoms: C_4  and  C_5
REMARK    4  A    between atoms: C_13  and  C_14
REMARK    5  A    between atoms: C_18  and  O_19
REMARK                            x       y       z     vdW  Elec       q    Type
REMARK                         _______ _______ _______ _____ _____    ______ ____
ROOT
ATOM      1  C   UNL     1       7.247   6.810  17.431  0.00  0.00    +0.000 A 
ATOM      2  C   UNL     1       7.393   8.189  17.161  0.00  0.00    +0.000 A 
ATOM      3  C   UNL     1       8.211   8.672  18.153  0.00  0.00    +0.000 A 
ATOM      4  O   UNL     1       8.563   7.631  18.964  0.00  0.00    +0.000 OA
ATOM      5  N   UNL     1       7.952   6.457  18.519  0.00  0.00    +0.000 NA
ENDROOT
BRANCH   3   6
ATOM      6  C   UNL     1       8.702  10.006  18.475  0.00  0.00    +0.000 A 
ATOM      7  C   UNL     1       8.610  11.082  17.581  0.00  0.00    +0.000 A 
ATOM      8  C   UNL     1       9.122  12.342  17.925  0.00  0.00    +0.000 A 
ATOM      9  C   UNL     1       9.732  12.543  19.162  0.00  0.00    +0.000 A 
ATOM     10  C   UNL     1       9.820  11.481  20.052  0.00  0.00    +0.000 A 
ATOM     11  C   UNL     1       9.312  10.231  19.721  0.00  0.00    +0.000 A 
BRANCH  10  12
ATOM     12  O   UNL     1      10.408  11.616  21.275  0.00  0.00    +0.000 OA
ATOM     13  H   UNL     1      10.998  12.387  21.258  0.00  0.00    +0.000 HD
ENDBRANCH  10  12
ENDBRANCH   3   6
BRANCH   1  15
ATOM     14  O   UNL     1       6.105   6.167  15.484  0.00  0.00    +0.000 OA
ATOM     15  C   UNL     1       6.420   5.897  16.643  0.00  0.00    +0.000 C 
ATOM     16  N   UNL     1       5.995   4.751  17.274  0.00  0.00    +0.000 N 
ATOM     17  H   UNL     1       6.291   4.589  18.230  0.00  0.00    +0.000 HD
BRANCH  16  18
ATOM     18  C   UNL     1       5.120   3.815  16.609  0.00  0.00    +0.000 C 
BRANCH  18  19
ATOM     19  C   UNL     1       3.809   3.670  17.332  0.00  0.00    +0.000 A 
ATOM     20  C   UNL     1       3.330   2.404  17.698  0.00  0.00    +0.000 A 
ATOM     21  C   UNL     1       2.103   2.274  18.348  0.00  0.00    +0.000 A 
ATOM     22  C   UNL     1       1.341   3.406  18.639  0.00  0.00    +0.000 A 
ATOM     23  C   UNL     1       1.810   4.669  18.286  0.00  0.00    +0.000 A 
ATOM     24  C   UNL     1       3.036   4.802  17.633  0.00  0.00    +0.000 A 
ENDBRANCH  18  19
ENDBRANCH  16  18
ENDBRANCH   1  15
TORSDOF 5
ENDMDL
MODEL 9
REMARK VINA RESULT:      -7.9      4.504      6.548
REMARK  Name = 
REMARK  5 active torsions:
REMARK  status: ('A' for Active; 'I' for Inactive)
REMARK    1  A    between atoms: C_2  and  C_11
REMARK    2  A    between atoms: N_3  and  C_4
REMARK    3  A    between atoms: C_4  and  C_5
REMARK    4  A    between atoms: C_13  and  C_14
REMARK    5  A    between atoms: C_18  and  O_19
REMARK                            x       y       z     vdW  Elec       q    Type
REMARK                         _______ _______ _______ _____ _____    ______ ____
ROOT
ATOM      1  C   UNL     1       7.486   6.767  18.026  0.00  0.00    +0.000 A 
ATOM      2  C   UNL     1       8.276   7.548  18.901  0.00  0.00    +0.000 A 
ATOM      3  C   UNL     1       8.397   8.771  18.291  0.00  0.00    +0.000 A 
ATOM      4  O   UNL     1       7.692   8.739  17.120  0.00  0.00    +0.000 OA
ATOM      5  N   UNL     1       7.124   7.476  16.945  0.00  0.00    +0.000 NA
ENDROOT
BRANCH   3   6
ATOM      6  C   UNL     1       9.116   9.990  18.640  0.00  0.00    +0.000 A 
ATOM      7  C   UNL     1       9.712  10.817  17.678  0.00  0.00    +0.000 A 
ATOM      8  C   UNL     1      10.418  11.967  18.064  0.00  0.00    +0.000 A 
ATOM      9  C   UNL     1      10.540  12.302  19.411  0.00  0.00    +0.000 A 
ATOM     10  C   UNL     1       9.947  11.487  20.366  0.00  0.00    +0.000 A 
ATOM     11  C   UNL     1       9.242  10.350  19.993  0.00  0.00    +0.000 A 
BRANCH  10  12
ATOM     12  O   UNL     1      10.034  11.762  21.699  0.00  0.00    +0.000 OA
ATOM     13  H   UNL     1      10.795  12.346  21.851  0.00  0.00    +0.000 HD
ENDBRANCH  10  12
ENDBRANCH   3   6
BRANCH   1  15
ATOM     14  O   UNL     1       7.898   4.457  17.938  0.00  0.00    +0.000 OA
ATOM     15  C   UNL     1       7.133   5.367  18.260  0.00  0.00    +0.000 C 
ATOM     16  N   UNL     1       5.901   5.129  18.823  0.00  0.00    +0.000 N 
ATOM     17  H   UNL     1       5.320   5.924  19.065  0.00  0.00    +0.000 HD
BRANCH  16  18
ATOM     18  C   UNL     1       5.426   3.782  19.035  0.00  0.00    +0.000 C 
BRANCH  18  19
ATOM     19  C   UNL     1       3.940   3.676  18.823  0.00  0.00    +0.000 A 
ATOM     20  C   UNL     1       3.299   4.459  17.854  0.00  0.00    +0.000 A 
ATOM     21  C   UNL     1       1.917   4.373  17.678  0.00  0.00    +0.000 A 
ATOM     22  C   UNL     1       1.164   3.505  18.468  0.00  0.00    +0.000 A 
ATOM     23  C   UNL     1       1.792   2.717  19.429  0.00  0.00    +0.000 A 
ATOM     24  C   UNL     1       3.173   2.803  19.609  0.00  0.00    +0.000 A 
ENDBRANCH  18  19
ENDBRANCH  16  18
ENDBRANCH   1  15
TORSDOF 5
ENDMDL
