MODEL 1
REMARK VINA RESULT:      -7.3      0.000      0.000
REMARK  Name = 
REMARK  5 active torsions:
REMARK  status: ('A' for Active; 'I' for Inactive)
REMARK    1  A    between atoms: C_1  and  O_2
REMARK    2  A    between atoms: O_2  and  C_3
REMARK    3  A    between atoms: C_6  and  N_7
REMARK    4  A    between atoms: C_10  and  S_11
REMARK    5  A    between atoms: S_11  and  C_14
REMARK                            x       y       z     vdW  Elec       q    Type
REMARK                         _______ _______ _______ _____ _____    ______ ____
ROOT
ATOM      1  C   UNL     1       7.760   8.790  17.723  0.00  0.00    +0.000 A 
ATOM      2  C   UNL     1       8.509   8.179  18.719  0.00  0.00    +0.000 A 
ATOM      3  C   UNL     1       8.372   6.805  18.905  0.00  0.00    +0.000 A 
ATOM      4  C   UNL     1       7.483   6.100  18.085  0.00  0.00    +0.000 A 
ATOM      5  C   UNL     1       6.732   6.795  17.165  0.00  0.00    +0.000 A 
ATOM      6  N   UNL     1       6.855   8.137  16.967  0.00  0.00    +0.000 NA
ENDROOT
BRANCH   4   7
ATOM      7  N   UNL     1       7.392   4.676  18.245  0.00  0.00    +0.000 N 
ATOM      8  O   UNL     1       8.275   3.992  17.720  0.00  0.00    +0.000 OA
ATOM      9  O   UNL     1       6.486   4.257  18.974  0.00  0.00    +0.000 OA
ENDBRANCH   4   7
BRANCH   5  10
ATOM     10  S   UNL     1       5.564   6.041  16.049  0.00  0.00    +0.000 S 
ATOM     11  O   UNL     1       5.038   7.055  15.153  0.00  0.00    +0.000 OA
ATOM     12  O   UNL     1       6.227   4.869  15.504  0.00  0.00    +0.000 OA
BRANCH  10  13
ATOM     13  C   UNL     1       4.181   5.495  17.028  0.00  0.00    +0.000 A 
ATOM     14  C   UNL     1       3.558   6.398  17.896  0.00  0.00    +0.000 A 
ATOM     15  C   UNL     1       2.578   5.931  18.774  0.00  0.00    +0.000 A 
ATOM     16  C   UNL     1       2.228   4.579  18.771  0.00  0.00    +0.000 A 
ATOM     17 CL   UNL     1       1.083   3.992  19.913  0.00  0.00    +0.000 Cl
ATOM     18  C   UNL     1       2.814   3.695  17.865  0.00  0.00    +0.000 A 
ATOM     19  C   UNL     1       3.787   4.156  16.978  0.00  0.00    +0.000 A 
ENDBRANCH  10  13
ENDBRANCH   5  10
BRANCH   1  21
ATOM     20  C   UNL     1       9.008  10.657  18.349  0.00  0.00    +0.000 C 
ATOM     21  O   UNL     1       7.978  10.132  17.510  0.00  0.00    +0.000 OA
ENDBRANCH   1  21
TORSDOF 4
ENDMDL
MODEL 2
REMARK VINA RESULT:      -7.3      0.456      1.150
REMARK  Name = 
REMARK  5 active torsions:
REMARK  status: ('A' for Active; 'I' for Inactive)
REMARK    1  A    between atoms: C_1  and  O_2
REMARK    2  A    between atoms: O_2  and  C_3
REMARK    3  A    between atoms: C_6  and  N_7
REMARK    4  A    between atoms: C_10  and  S_11
REMARK    5  A    between atoms: S_11  and  C_14
REMARK                            x       y       z     vdW  Elec       q    Type
REMARK                         _______ _______ _______ _____ _____    ______ ____
ROOT
ATOM      1  C   UNL     1       7.801   8.804  17.746  0.00  0.00    +0.000 A 
ATOM      2  C   UNL     1       8.500   8.194  18.778  0.00  0.00    +0.000 A 
ATOM      3  C   UNL     1       8.354   6.819  18.958  0.00  0.00    +0.000 A 
ATOM      4  C   UNL     1       7.507   6.115  18.095  0.00  0.00    +0.000 A 
ATOM      5  C   UNL     1       6.801   6.809  17.139  0.00  0.00    +0.000 A 
ATOM      6  N   UNL     1       6.933   8.151  16.947  0.00  0.00    +0.000 NA
ENDROOT
BRANCH   4   7
ATOM      7  N   UNL     1       7.408   4.690  18.250  0.00  0.00    +0.000 N 
ATOM      8  O   UNL     1       8.256   4.001  17.676  0.00  0.00    +0.000 OA
ATOM      9  O   UNL     1       6.535   4.276  19.022  0.00  0.00    +0.000 OA
ENDBRANCH   4   7
BRANCH   5  10
ATOM     10  S   UNL     1       5.689   6.055  15.967  0.00  0.00    +0.000 S 
ATOM     11  O   UNL     1       5.011   7.096  15.216  0.00  0.00    +0.000 OA
ATOM     12  O   UNL     1       6.467   5.048  15.266  0.00  0.00    +0.000 OA
BRANCH  10  13
ATOM     13  C   UNL     1       4.421   5.229  16.904  0.00  0.00    +0.000 A 
ATOM     14  C   UNL     1       4.194   3.864  16.693  0.00  0.00    +0.000 A 
ATOM     15  C   UNL     1       3.101   3.254  17.312  0.00  0.00    +0.000 A 
ATOM     16  C   UNL     1       2.257   4.005  18.133  0.00  0.00    +0.000 A 
ATOM     17 CL   UNL     1       0.864   3.270  18.824  0.00  0.00    +0.000 Cl
ATOM     18  C   UNL     1       2.521   5.352  18.381  0.00  0.00    +0.000 A 
ATOM     19  C   UNL     1       3.616   5.967  17.775  0.00  0.00    +0.000 A 
ENDBRANCH  10  13
ENDBRANCH   5  10
BRANCH   1  21
ATOM     20  C   UNL     1       9.127  10.635  18.316  0.00  0.00    +0.000 C 
ATOM     21  O   UNL     1       8.028  10.147  17.545  0.00  0.00    +0.000 OA
ENDBRANCH   1  21
TORSDOF 4
ENDMDL
MODEL 3
REMARK VINA RESULT:      -7.3      3.033      4.414
REMARK  Name = 
REMARK  5 active torsions:
REMARK  status: ('A' for Active; 'I' for Inactive)
REMARK    1  A    between atoms: C_1  and  O_2
REMARK    2  A    between atoms: O_2  and  C_3
REMARK    3  A    between atoms: C_6  and  N_7
REMARK    4  A    between atoms: C_10  and  S_11
REMARK    5  A    between atoms: S_11  and  C_14
REMARK                            x       y       z     vdW  Elec       q    Type
REMARK                         _______ _______ _______ _____ _____    ______ ____
ROOT
ATOM      1  C   UNL     1       5.717   4.182  14.399  0.00  0.00    +0.000 A 
ATOM      2  C   UNL     1       6.978   4.761  14.395  0.00  0.00    +0.000 A 
ATOM      3  C   UNL     1       7.536   5.149  15.612  0.00  0.00    +0.000 A 
ATOM      4  C   UNL     1       6.800   4.943  16.784  0.00  0.00    +0.000 A 
ATOM      5  C   UNL     1       5.530   4.422  16.692  0.00  0.00    +0.000 A 
ATOM      6  N   UNL     1       4.970   4.035  15.512  0.00  0.00    +0.000 NA
ENDROOT
BRANCH   4   7
ATOM      7  N   UNL     1       7.406   5.292  18.039  0.00  0.00    +0.000 N 
ATOM      8  O   UNL     1       8.182   4.471  18.537  0.00  0.00    +0.000 OA
ATOM      9  O   UNL     1       7.172   6.426  18.472  0.00  0.00    +0.000 OA
ENDBRANCH   4   7
BRANCH   5  10
ATOM     10  S   UNL     1       4.473   4.099  18.091  0.00  0.00    +0.000 S 
ATOM     11  O   UNL     1       3.409   3.199  17.686  0.00  0.00    +0.000 OA
ATOM     12  O   UNL     1       5.356   3.730  19.184  0.00  0.00    +0.000 OA
BRANCH  10  13
ATOM     13  C   UNL     1       3.676   5.635  18.512  0.00  0.00    +0.000 A 
ATOM     14  C   UNL     1       2.939   5.720  19.698  0.00  0.00    +0.000 A 
ATOM     15  C   UNL     1       2.188   6.870  19.950  0.00  0.00    +0.000 A 
ATOM     16  C   UNL     1       2.188   7.918  19.025  0.00  0.00    +0.000 A 
ATOM     17 CL   UNL     1       1.195   9.295  19.298  0.00  0.00    +0.000 Cl
ATOM     18  C   UNL     1       2.968   7.847  17.871  0.00  0.00    +0.000 A 
ATOM     19  C   UNL     1       3.728   6.706  17.617  0.00  0.00    +0.000 A 
ENDBRANCH  10  13
ENDBRANCH   5  10
BRANCH   1  21
ATOM     20  C   UNL     1       6.269   3.413  12.269  0.00  0.00    +0.000 C 
ATOM     21  O   UNL     1       5.228   3.737  13.192  0.00  0.00    +0.000 OA
ENDBRANCH   1  21
TORSDOF 4
ENDMDL
MODEL 4
REMARK VINA RESULT:      -7.2      3.998      5.685
REMARK  Name = 
REMARK  5 active torsions:
REMARK  status: ('A' for Active; 'I' for Inactive)
REMARK    1  A    between atoms: C_1  and  O_2
REMARK    2  A    between atoms: O_2  and  C_3
REMARK    3  A    between atoms: C_6  and  N_7
REMARK    4  A    between atoms: C_10  and  S_11
REMARK    5  A    between atoms: S_11  and  C_14
REMARK                            x       y       z     vdW  Elec       q    Type
REMARK                         _______ _______ _______ _____ _____    ______ ____
ROOT
ATOM      1  C   UNL     1       2.655   6.974  19.096  0.00  0.00    +0.000 A 
ATOM      2  C   UNL     1       1.708   6.939  20.109  0.00  0.00    +0.000 A 
ATOM      3  C   UNL     1       1.487   5.734  20.773  0.00  0.00    +0.000 A 
ATOM      4  C   UNL     1       2.225   4.609  20.386  0.00  0.00    +0.000 A 
ATOM      5  C   UNL     1       3.097   4.715  19.328  0.00  0.00    +0.000 A 
ATOM      6  N   UNL     1       3.328   5.886  18.670  0.00  0.00    +0.000 NA
ENDROOT
BRANCH   4   7
ATOM      7  N   UNL     1       2.034   3.386  21.114  0.00  0.00    +0.000 N 
ATOM      8  O   UNL     1       2.672   3.248  22.162  0.00  0.00    +0.000 OA
ATOM      9  O   UNL     1       1.175   2.610  20.679  0.00  0.00    +0.000 OA
ENDBRANCH   4   7
BRANCH   5  10
ATOM     10  S   UNL     1       4.108   3.377  18.721  0.00  0.00    +0.000 S 
ATOM     11  O   UNL     1       5.063   3.000  19.748  0.00  0.00    +0.000 OA
ATOM     12  O   UNL     1       3.188   2.387  18.190  0.00  0.00    +0.000 OA
BRANCH  10  13
ATOM     13  C   UNL     1       5.075   4.021  17.373  0.00  0.00    +0.000 A 
ATOM     14  C   UNL     1       4.533   4.024  16.083  0.00  0.00    +0.000 A 
ATOM     15  C   UNL     1       5.346   4.383  15.005  0.00  0.00    +0.000 A 
ATOM     16  C   UNL     1       6.679   4.738  15.226  0.00  0.00    +0.000 A 
ATOM     17 CL   UNL     1       7.698   5.095  13.888  0.00  0.00    +0.000 Cl
ATOM     18  C   UNL     1       7.196   4.785  16.521  0.00  0.00    +0.000 A 
ATOM     19  C   UNL     1       6.388   4.437  17.603  0.00  0.00    +0.000 A 
ENDBRANCH  10  13
ENDBRANCH   5  10
BRANCH   1  21
ATOM     20  C   UNL     1       1.746   8.755  17.897  0.00  0.00    +0.000 C 
ATOM     21  O   UNL     1       2.907   8.196  18.515  0.00  0.00    +0.000 OA
ENDBRANCH   1  21
TORSDOF 4
ENDMDL
MODEL 5
REMARK VINA RESULT:      -7.1      3.585      5.743
REMARK  Name = 
REMARK  5 active torsions:
REMARK  status: ('A' for Active; 'I' for Inactive)
REMARK    1  A    between atoms: C_1  and  O_2
REMARK    2  A    between atoms: O_2  and  C_3
REMARK    3  A    between atoms: C_6  and  N_7
REMARK    4  A    between atoms: C_10  and  S_11
REMARK    5  A    between atoms: S_11  and  C_14
REMARK                            x       y       z     vdW  Elec       q    Type
REMARK                         _______ _______ _______ _____ _____    ______ ____
ROOT
ATOM      1  C   UNL     1       2.214   6.737  19.741  0.00  0.00    +0.000 A 
ATOM      2  C   UNL     1       1.246   6.167  20.556  0.00  0.00    +0.000 A 
ATOM      3  C   UNL     1       1.342   4.809  20.853  0.00  0.00    +0.000 A 
ATOM      4  C   UNL     1       2.406   4.078  20.314  0.00  0.00    +0.000 A 
ATOM      5  C   UNL     1       3.285   4.707  19.463  0.00  0.00    +0.000 A 
ATOM      6  N   UNL     1       3.208   6.034  19.164  0.00  0.00    +0.000 NA
ENDROOT
BRANCH   4   7
ATOM      7  N   UNL     1       2.532   2.692  20.672  0.00  0.00    +0.000 N 
ATOM      8  O   UNL     1       2.918   2.439  21.817  0.00  0.00    +0.000 OA
ATOM      9  O   UNL     1       2.154   1.866  19.833  0.00  0.00    +0.000 OA
ENDBRANCH   4   7
BRANCH   5  10
ATOM     10  S   UNL     1       4.689   3.913  18.702  0.00  0.00    +0.000 S 
ATOM     11  O   UNL     1       5.353   3.076  19.685  0.00  0.00    +0.000 OA
ATOM     12  O   UNL     1       4.199   3.328  17.466  0.00  0.00    +0.000 OA
BRANCH  10  13
ATOM     13  C   UNL     1       5.855   5.194  18.289  0.00  0.00    +0.000 A 
ATOM     14  C   UNL     1       6.998   5.359  19.079  0.00  0.00    +0.000 A 
ATOM     15  C   UNL     1       7.830   6.457  18.850  0.00  0.00    +0.000 A 
ATOM     16  C   UNL     1       7.517   7.368  17.839  0.00  0.00    +0.000 A 
ATOM     17 CL   UNL     1       8.496   8.765  17.617  0.00  0.00    +0.000 Cl
ATOM     18  C   UNL     1       6.406   7.167  17.020  0.00  0.00    +0.000 A 
ATOM     19  C   UNL     1       5.576   6.067  17.236  0.00  0.00    +0.000 A 
ENDBRANCH  10  13
ENDBRANCH   5  10
BRANCH   1  21
ATOM     20  C   UNL     1       2.259   8.443  18.152  0.00  0.00    +0.000 C 
ATOM     21  O   UNL     1       2.135   8.096  19.533  0.00  0.00    +0.000 OA
ENDBRANCH   1  21
TORSDOF 4
ENDMDL
MODEL 6
REMARK VINA RESULT:      -7.0      2.986      4.378
REMARK  Name = 
REMARK  5 active torsions:
REMARK  status: ('A' for Active; 'I' for Inactive)
REMARK    1  A    between atoms: C_1  and  O_2
REMARK    2  A    between atoms: O_2  and  C_3
REMARK    3  A    between atoms: C_6  and  N_7
REMARK    4  A    between atoms: C_10  and  S_11
REMARK    5  A    between atoms: S_11  and  C_14
REMARK                            x       y       z     vdW  Elec       q    Type
REMARK                         _______ _______ _______ _____ _____    ______ ____
ROOT
ATOM      1  C   UNL     1       5.657   4.184  14.449  0.00  0.00    +0.000 A 
ATOM      2  C   UNL     1       6.865   4.868  14.442  0.00  0.00    +0.000 A 
ATOM      3  C   UNL     1       7.418   5.253  15.662  0.00  0.00    +0.000 A 
ATOM      4  C   UNL     1       6.730   4.939  16.840  0.00  0.00    +0.000 A 
ATOM      5  C   UNL     1       5.507   4.317  16.753  0.00  0.00    +0.000 A 
ATOM      6  N   UNL     1       4.953   3.930  15.570  0.00  0.00    +0.000 NA
ENDROOT
BRANCH   4   7
ATOM      7  N   UNL     1       7.335   5.288  18.096  0.00  0.00    +0.000 N 
ATOM      8  O   UNL     1       8.161   4.497  18.562  0.00  0.00    +0.000 OA
ATOM      9  O   UNL     1       7.048   6.396  18.561  0.00  0.00    +0.000 OA
ENDBRANCH   4   7
BRANCH   5  10
ATOM     10  S   UNL     1       4.515   3.850  18.159  0.00  0.00    +0.000 S 
ATOM     11  O   UNL     1       3.596   2.797  17.765  0.00  0.00    +0.000 OA
ATOM     12  O   UNL     1       5.446   3.626  19.251  0.00  0.00    +0.000 OA
BRANCH  10  13
ATOM     13  C   UNL     1       3.497   5.251  18.572  0.00  0.00    +0.000 A 
ATOM     14  C   UNL     1       3.568   6.403  17.781  0.00  0.00    +0.000 A 
ATOM     15  C   UNL     1       2.889   7.552  18.193  0.00  0.00    +0.000 A 
ATOM     16  C   UNL     1       2.148   7.537  19.377  0.00  0.00    +0.000 A 
ATOM     17 CL   UNL     1       1.386   8.978  19.925  0.00  0.00    +0.000 Cl
ATOM     18  C   UNL     1       2.039   6.368  20.132  0.00  0.00    +0.000 A 
ATOM     19  C   UNL     1       2.706   5.214  19.722  0.00  0.00    +0.000 A 
ENDBRANCH  10  13
ENDBRANCH   5  10
BRANCH   1  21
ATOM     20  C   UNL     1       6.226   3.450  12.311  0.00  0.00    +0.000 C 
ATOM     21  O   UNL     1       5.178   3.748  13.234  0.00  0.00    +0.000 OA
ENDBRANCH   1  21
TORSDOF 4
ENDMDL
MODEL 7
REMARK VINA RESULT:      -6.9      3.955      5.597
REMARK  Name = 
REMARK  5 active torsions:
REMARK  status: ('A' for Active; 'I' for Inactive)
REMARK    1  A    between atoms: C_1  and  O_2
REMARK    2  A    between atoms: O_2  and  C_3
REMARK    3  A    between atoms: C_6  and  N_7
REMARK    4  A    between atoms: C_10  and  S_11
REMARK    5  A    between atoms: S_11  and  C_14
REMARK                            x       y       z     vdW  Elec       q    Type
REMARK                         _______ _______ _______ _____ _____    ______ ____
ROOT
ATOM      1  C   UNL     1       2.798   6.972  18.821  0.00  0.00    +0.000 A 
ATOM      2  C   UNL     1       1.847   7.093  19.824  0.00  0.00    +0.000 A 
ATOM      3  C   UNL     1       1.551   5.972  20.598  0.00  0.00    +0.000 A 
ATOM      4  C   UNL     1       2.220   4.773  20.329  0.00  0.00    +0.000 A 
ATOM      5  C   UNL     1       3.101   4.724  19.273  0.00  0.00    +0.000 A 
ATOM      6  N   UNL     1       3.406   5.809  18.508  0.00  0.00    +0.000 NA
ENDROOT
BRANCH   4   7
ATOM      7  N   UNL     1       1.952   3.639  21.169  0.00  0.00    +0.000 N 
ATOM      8  O   UNL     1       2.590   3.555  22.222  0.00  0.00    +0.000 OA
ATOM      9  O   UNL     1       1.037   2.889  20.812  0.00  0.00    +0.000 OA
ENDBRANCH   4   7
BRANCH   5  10
ATOM     10  S   UNL     1       4.031   3.275  18.808  0.00  0.00    +0.000 S 
ATOM     11  O   UNL     1       4.923   2.913  19.895  0.00  0.00    +0.000 OA
ATOM     12  O   UNL     1       3.059   2.314  18.319  0.00  0.00    +0.000 OA
BRANCH  10  13
ATOM     13  C   UNL     1       5.086   3.743  17.452  0.00  0.00    +0.000 A 
ATOM     14  C   UNL     1       6.354   4.270  17.722  0.00  0.00    +0.000 A 
ATOM     15  C   UNL     1       7.116   4.779  16.669  0.00  0.00    +0.000 A 
ATOM     16  C   UNL     1       6.611   4.750  15.366  0.00  0.00    +0.000 A 
ATOM     17 CL   UNL     1       7.516   5.456  14.086  0.00  0.00    +0.000 Cl
ATOM     18  C   UNL     1       5.369   4.174  15.098  0.00  0.00    +0.000 A 
ATOM     19  C   UNL     1       4.606   3.654  16.144  0.00  0.00    +0.000 A 
ENDBRANCH  10  13
ENDBRANCH   5  10
BRANCH   1  21
ATOM     20  C   UNL     1       2.008   8.988  17.956  0.00  0.00    +0.000 C 
ATOM     21  O   UNL     1       3.126   8.115  18.128  0.00  0.00    +0.000 OA
ENDBRANCH   1  21
TORSDOF 4
ENDMDL
MODEL 8
REMARK VINA RESULT:      -6.8      3.207      4.283
REMARK  Name = 
REMARK  5 active torsions:
REMARK  status: ('A' for Active; 'I' for Inactive)
REMARK    1  A    between atoms: C_1  and  O_2
REMARK    2  A    between atoms: O_2  and  C_3
REMARK    3  A    between atoms: C_6  and  N_7
REMARK    4  A    between atoms: C_10  and  S_11
REMARK    5  A    between atoms: S_11  and  C_14
REMARK                            x       y       z     vdW  Elec       q    Type
REMARK                         _______ _______ _______ _____ _____    ______ ____
ROOT
ATOM      1  C   UNL     1       6.146   4.234  15.050  0.00  0.00    +0.000 A 
ATOM      2  C   UNL     1       7.211   4.666  15.827  0.00  0.00    +0.000 A 
ATOM      3  C   UNL     1       7.034   4.763  17.205  0.00  0.00    +0.000 A 
ATOM      4  C   UNL     1       5.789   4.426  17.748  0.00  0.00    +0.000 A 
ATOM      5  C   UNL     1       4.766   4.068  16.899  0.00  0.00    +0.000 A 
ATOM      6  N   UNL     1       4.922   3.966  15.550  0.00  0.00    +0.000 NA
ENDROOT
BRANCH   4   7
ATOM      7  N   UNL     1       5.632   4.471  19.175  0.00  0.00    +0.000 N 
ATOM      8  O   UNL     1       5.470   3.396  19.759  0.00  0.00    +0.000 OA
ATOM      9  O   UNL     1       5.764   5.577  19.712  0.00  0.00    +0.000 OA
ENDBRANCH   4   7
BRANCH   5  10
ATOM     10  S   UNL     1       3.129   3.608  17.437  0.00  0.00    +0.000 S 
ATOM     11  O   UNL     1       2.244   3.571  16.287  0.00  0.00    +0.000 OA
ATOM     12  O   UNL     1       3.296   2.424  18.260  0.00  0.00    +0.000 OA
BRANCH  10  13
ATOM     13  C   UNL     1       2.527   4.927  18.470  0.00  0.00    +0.000 A 
ATOM     14  C   UNL     1       2.673   6.251  18.043  0.00  0.00    +0.000 A 
ATOM     15  C   UNL     1       2.343   7.288  18.919  0.00  0.00    +0.000 A 
ATOM     16  C   UNL     1       1.869   6.993  20.199  0.00  0.00    +0.000 A 
ATOM     17 CL   UNL     1       1.546   8.271  21.304  0.00  0.00    +0.000 Cl
ATOM     18  C   UNL     1       1.675   5.670  20.598  0.00  0.00    +0.000 A 
ATOM     19  C   UNL     1       1.993   4.629  19.726  0.00  0.00    +0.000 A 
ENDBRANCH  10  13
ENDBRANCH   5  10
BRANCH   1  21
ATOM     20  C   UNL     1       5.237   3.559  13.012  0.00  0.00    +0.000 C 
ATOM     21  O   UNL     1       6.377   4.073  13.703  0.00  0.00    +0.000 OA
ENDBRANCH   1  21
TORSDOF 4
ENDMDL
MODEL 9
REMARK VINA RESULT:      -6.6      3.259      4.124
REMARK  Name = 
REMARK  5 active torsions:
REMARK  status: ('A' for Active; 'I' for Inactive)
REMARK    1  A    between atoms: C_1  and  O_2
REMARK    2  A    between atoms: O_2  and  C_3
REMARK    3  A    between atoms: C_6  and  N_7
REMARK    4  A    between atoms: C_10  and  S_11
REMARK    5  A    between atoms: S_11  and  C_14
REMARK                            x       y       z     vdW  Elec       q    Type
REMARK                         _______ _______ _______ _____ _____    ______ ____
ROOT
ATOM      1  C   UNL     1       6.099   6.619  17.523  0.00  0.00    +0.000 A 
ATOM      2  C   UNL     1       6.931   5.508  17.512  0.00  0.00    +0.000 A 
ATOM      3  C   UNL     1       6.422   4.292  17.965  0.00  0.00    +0.000 A 
ATOM      4  C   UNL     1       5.098   4.243  18.415  0.00  0.00    +0.000 A 
ATOM      5  C   UNL     1       4.363   5.406  18.453  0.00  0.00    +0.000 A 
ATOM      6  N   UNL     1       4.843   6.602  18.012  0.00  0.00    +0.000 NA
ENDROOT
BRANCH   4   7
ATOM      7  N   UNL     1       4.564   2.975  18.825  0.00  0.00    +0.000 N 
ATOM      8  O   UNL     1       3.912   2.342  17.989  0.00  0.00    +0.000 OA
ATOM      9  O   UNL     1       4.880   2.578  19.952  0.00  0.00    +0.000 OA
ENDBRANCH   4   7
BRANCH   5  10
ATOM     10  S   UNL     1       2.668   5.505  18.996  0.00  0.00    +0.000 S 
ATOM     11  O   UNL     1       1.811   4.895  17.995  0.00  0.00    +0.000 OA
ATOM     12  O   UNL     1       2.653   5.008  20.360  0.00  0.00    +0.000 OA
BRANCH  10  13
ATOM     13  C   UNL     1       2.226   7.229  19.025  0.00  0.00    +0.000 A 
ATOM     14  C   UNL     1       1.784   7.802  20.223  0.00  0.00    +0.000 A 
ATOM     15  C   UNL     1       1.293   9.109  20.210  0.00  0.00    +0.000 A 
ATOM     16  C   UNL     1       1.254   9.827  19.013  0.00  0.00    +0.000 A 
ATOM     17 CL   UNL     1       0.568  11.403  18.986  0.00  0.00    +0.000 Cl
ATOM     18  C   UNL     1       1.747   9.268  17.833  0.00  0.00    +0.000 A 
ATOM     19  C   UNL     1       2.249   7.967  17.840  0.00  0.00    +0.000 A 
ENDBRANCH  10  13
ENDBRANCH   5  10
BRANCH   1  21
ATOM     20  C   UNL     1       7.814   8.194  17.637  0.00  0.00    +0.000 C 
ATOM     21  O   UNL     1       6.605   7.785  16.995  0.00  0.00    +0.000 OA
ENDBRANCH   1  21
TORSDOF 4
ENDMDL
