MODEL 1
REMARK VINA RESULT:      -9.3      0.000      0.000
REMARK  Name = 
REMARK  8 active torsions:
REMARK  status: ('A' for Active; 'I' for Inactive)
REMARK    1  A    between atoms: C_1  and  C_2
REMARK    2  A    between atoms: N_4  and  S_5
REMARK    3  A    between atoms: S_5  and  C_8
REMARK    4  A    between atoms: C_11  and  N_12
REMARK    5  A    between atoms: C_13  and  C_15
REMARK    6  A    between atoms: C_15  and  C_16
REMARK    7  A    between atoms: C_16  and  N_17
REMARK    8  A    between atoms: C_31  and  C_32
REMARK                            x       y       z     vdW  Elec       q    Type
REMARK                         _______ _______ _______ _____ _____    ______ ____
ROOT
ATOM      1  C   UNL     1       3.137   5.207  19.370  0.00  0.00    +0.000 A 
ATOM      2  C   UNL     1       2.348   5.014  20.498  0.00  0.00    +0.000 A 
ATOM      3  C   UNL     1       1.526   6.050  20.947  0.00  0.00    +0.000 A 
ATOM      4  C   UNL     1       1.490   7.296  20.310  0.00  0.00    +0.000 A 
ATOM      5  C   UNL     1       2.302   7.482  19.179  0.00  0.00    +0.000 A 
ATOM      6  C   UNL     1       3.132   6.444  18.715  0.00  0.00    +0.000 A 
ENDROOT
BRANCH   4   7
ATOM      7  N   UNL     1       0.699   8.382  20.768  0.00  0.00    +0.000 N 
ATOM      8  C   UNL     1       1.056   9.267  21.774  0.00  0.00    +0.000 C 
ATOM      9  O   UNL     1       2.048   9.158  22.493  0.00  0.00    +0.000 OA
ATOM     10  H   UNL     1      -0.178   8.543  20.285  0.00  0.00    +0.000 HD
BRANCH   8  11
ATOM     11  C   UNL     1       0.105  10.431  21.987  0.00  0.00    +0.000 C 
BRANCH  11  12
ATOM     12  C   UNL     1       0.365  11.453  20.869  0.00  0.00    +0.000 C 
BRANCH  12  13
ATOM     13  N   UNL     1      -0.606  11.476  19.789  0.00  0.00    +0.000 N 
ATOM     14  C   UNL     1      -1.908  11.858  19.951  0.00  0.00    +0.000 C 
ATOM     15  O   UNL     1      -2.451  12.349  20.923  0.00  0.00    +0.000 OA
ATOM     16  C   UNL     1      -2.612  11.487  18.728  0.00  0.00    +0.000 A 
ATOM     17  C   UNL     1      -3.926  11.700  18.365  0.00  0.00    +0.000 A 
ATOM     18  C   UNL     1      -4.345  11.166  17.144  0.00  0.00    +0.000 A 
ATOM     19  C   UNL     1      -3.456  10.426  16.337  0.00  0.00    +0.000 A 
ATOM     20  C   UNL     1      -2.127  10.225  16.730  0.00  0.00    +0.000 A 
ATOM     21  C   UNL     1      -1.730  10.784  17.931  0.00  0.00    +0.000 A 
ATOM     22  C   UNL     1      -0.447  10.747  18.634  0.00  0.00    +0.000 C 
ATOM     23  O   UNL     1       0.522  10.126  18.240  0.00  0.00    +0.000 OA
ENDBRANCH  12  13
ENDBRANCH  11  12
ENDBRANCH   8  11
ENDBRANCH   4   7
BRANCH   1  24
ATOM     24  S   UNL     1       4.181   3.875  18.796  0.00  0.00    +0.000 S 
ATOM     25  O   UNL     1       3.368   2.989  17.993  0.00  0.00    +0.000 OA
ATOM     26  O   UNL     1       4.914   3.388  19.946  0.00  0.00    +0.000 OA
BRANCH  24  30
ATOM     27  C   UNL     1       7.118   7.191  17.292  0.00  0.00    +0.000 C 
ATOM     28  C   UNL     1       7.527   5.722  17.382  0.00  0.00    +0.000 C 
ATOM     29  C   UNL     1       6.650   4.900  18.341  0.00  0.00    +0.000 C 
ATOM     30  N   UNL     1       5.295   4.664  17.765  0.00  0.00    +0.000 NA
ATOM     31  C   UNL     1       5.367   4.107  16.384  0.00  0.00    +0.000 C 
ATOM     32  C   UNL     1       6.300   4.929  15.484  0.00  0.00    +0.000 C 
ATOM     33  C   UNL     1       6.513   4.196  14.164  0.00  0.00    +0.000 C 
ATOM     34  O   UNL     1       7.593   5.108  16.084  0.00  0.00    +0.000 OA
ENDBRANCH  24  30
ENDBRANCH   1  24
TORSDOF 6
ENDMDL
MODEL 2
REMARK VINA RESULT:      -9.3      0.895      1.950
REMARK  Name = 
REMARK  8 active torsions:
REMARK  status: ('A' for Active; 'I' for Inactive)
REMARK    1  A    between atoms: C_1  and  C_2
REMARK    2  A    between atoms: N_4  and  S_5
REMARK    3  A    between atoms: S_5  and  C_8
REMARK    4  A    between atoms: C_11  and  N_12
REMARK    5  A    between atoms: C_13  and  C_15
REMARK    6  A    between atoms: C_15  and  C_16
REMARK    7  A    between atoms: C_16  and  N_17
REMARK    8  A    between atoms: C_31  and  C_32
REMARK                            x       y       z     vdW  Elec       q    Type
REMARK                         _______ _______ _______ _____ _____    ______ ____
ROOT
ATOM      1  C   UNL     1       2.835   5.628  18.928  0.00  0.00    +0.000 A 
ATOM      2  C   UNL     1       2.798   6.780  18.151  0.00  0.00    +0.000 A 
ATOM      3  C   UNL     1       2.274   7.956  18.692  0.00  0.00    +0.000 A 
ATOM      4  C   UNL     1       1.756   8.008  19.992  0.00  0.00    +0.000 A 
ATOM      5  C   UNL     1       1.787   6.833  20.761  0.00  0.00    +0.000 A 
ATOM      6  C   UNL     1       2.315   5.642  20.229  0.00  0.00    +0.000 A 
ENDROOT
BRANCH   4   7
ATOM      7  N   UNL     1       1.177   9.176  20.554  0.00  0.00    +0.000 N 
ATOM      8  C   UNL     1       0.051   9.204  21.363  0.00  0.00    +0.000 C 
ATOM      9  O   UNL     1      -0.672   8.239  21.602  0.00  0.00    +0.000 OA
ATOM     10  H   UNL     1       1.656  10.052  20.379  0.00  0.00    +0.000 HD
BRANCH   8  11
ATOM     11  C   UNL     1      -0.292  10.558  21.956  0.00  0.00    +0.000 C 
BRANCH  11  12
ATOM     12  C   UNL     1      -0.376  11.564  20.797  0.00  0.00    +0.000 C 
BRANCH  12  13
ATOM     13  N   UNL     1      -1.405  11.307  19.805  0.00  0.00    +0.000 N 
ATOM     14  C   UNL     1      -1.146  10.819  18.555  0.00  0.00    +0.000 C 
ATOM     15  O   UNL     1      -0.101  10.403  18.093  0.00  0.00    +0.000 OA
ATOM     16  C   UNL     1      -2.376  10.961  17.783  0.00  0.00    +0.000 A 
ATOM     17  C   UNL     1      -2.658  10.572  16.489  0.00  0.00    +0.000 A 
ATOM     18  C   UNL     1      -3.918  10.903  15.984  0.00  0.00    +0.000 A 
ATOM     19  C   UNL     1      -4.844  11.622  16.769  0.00  0.00    +0.000 A 
ATOM     20  C   UNL     1      -4.532  12.004  18.079  0.00  0.00    +0.000 A 
ATOM     21  C   UNL     1      -3.288  11.644  18.564  0.00  0.00    +0.000 A 
ATOM     22  C   UNL     1      -2.646  11.898  19.855  0.00  0.00    +0.000 C 
ATOM     23  O   UNL     1      -3.152  12.559  20.742  0.00  0.00    +0.000 OA
ENDBRANCH  12  13
ENDBRANCH  11  12
ENDBRANCH   8  11
ENDBRANCH   4   7
BRANCH   1  24
ATOM     24  S   UNL     1       3.513   4.127  18.234  0.00  0.00    +0.000 S 
ATOM     25  O   UNL     1       2.574   3.629  17.253  0.00  0.00    +0.000 OA
ATOM     26  O   UNL     1       3.944   3.305  19.346  0.00  0.00    +0.000 OA
BRANCH  24  30
ATOM     27  C   UNL     1       7.318   6.703  17.361  0.00  0.00    +0.000 C 
ATOM     28  C   UNL     1       7.359   5.176  17.395  0.00  0.00    +0.000 C 
ATOM     29  C   UNL     1       6.190   4.549  18.173  0.00  0.00    +0.000 C 
ATOM     30  N   UNL     1       4.912   4.668  17.413  0.00  0.00    +0.000 NA
ATOM     31  C   UNL     1       5.046   4.167  16.016  0.00  0.00    +0.000 C 
ATOM     32  C   UNL     1       6.261   4.779  15.304  0.00  0.00    +0.000 C 
ATOM     33  C   UNL     1       6.482   4.071  13.971  0.00  0.00    +0.000 C 
ATOM     34  O   UNL     1       7.463   4.618  16.074  0.00  0.00    +0.000 OA
ENDBRANCH  24  30
ENDBRANCH   1  24
TORSDOF 6
ENDMDL
MODEL 3
REMARK VINA RESULT:      -9.1      1.007      1.385
REMARK  Name = 
REMARK  8 active torsions:
REMARK  status: ('A' for Active; 'I' for Inactive)
REMARK    1  A    between atoms: C_1  and  C_2
REMARK    2  A    between atoms: N_4  and  S_5
REMARK    3  A    between atoms: S_5  and  C_8
REMARK    4  A    between atoms: C_11  and  N_12
REMARK    5  A    between atoms: C_13  and  C_15
REMARK    6  A    between atoms: C_15  and  C_16
REMARK    7  A    between atoms: C_16  and  N_17
REMARK    8  A    between atoms: C_31  and  C_32
REMARK                            x       y       z     vdW  Elec       q    Type
REMARK                         _______ _______ _______ _____ _____    ______ ____
ROOT
ATOM      1  C   UNL     1       2.778   5.762  18.902  0.00  0.00    +0.000 A 
ATOM      2  C   UNL     1       2.689   6.912  18.126  0.00  0.00    +0.000 A 
ATOM      3  C   UNL     1       2.121   8.065  18.672  0.00  0.00    +0.000 A 
ATOM      4  C   UNL     1       1.610   8.095  19.974  0.00  0.00    +0.000 A 
ATOM      5  C   UNL     1       1.694   6.922  20.742  0.00  0.00    +0.000 A 
ATOM      6  C   UNL     1       2.267   5.754  20.206  0.00  0.00    +0.000 A 
ENDROOT
BRANCH   4   7
ATOM      7  N   UNL     1       0.986   9.238  20.541  0.00  0.00    +0.000 N 
ATOM      8  C   UNL     1      -0.072   9.214  21.436  0.00  0.00    +0.000 C 
ATOM      9  O   UNL     1      -0.698   8.208  21.765  0.00  0.00    +0.000 OA
ATOM     10  H   UNL     1       1.381  10.140  20.299  0.00  0.00    +0.000 HD
BRANCH   8  11
ATOM     11  C   UNL     1      -0.473  10.561  22.009  0.00  0.00    +0.000 C 
BRANCH  11  12
ATOM     12  C   UNL     1      -0.250  11.616  20.913  0.00  0.00    +0.000 C 
BRANCH  12  13
ATOM     13  N   UNL     1      -1.365  11.840  20.009  0.00  0.00    +0.000 N 
ATOM     14  C   UNL     1      -2.591  12.285  20.416  0.00  0.00    +0.000 C 
ATOM     15  O   UNL     1      -2.940  12.684  21.511  0.00  0.00    +0.000 OA
ATOM     16  C   UNL     1      -3.497  12.119  19.285  0.00  0.00    +0.000 A 
ATOM     17  C   UNL     1      -4.828  12.463  19.159  0.00  0.00    +0.000 A 
ATOM     18  C   UNL     1      -5.466  12.117  17.966  0.00  0.00    +0.000 A 
ATOM     19  C   UNL     1      -4.773  11.426  16.951  0.00  0.00    +0.000 A 
ATOM     20  C   UNL     1      -3.422  11.088  17.104  0.00  0.00    +0.000 A 
ATOM     21  C   UNL     1      -2.806  11.464  18.284  0.00  0.00    +0.000 A 
ATOM     22  C   UNL     1      -1.441  11.253  18.768  0.00  0.00    +0.000 C 
ATOM     23  O   UNL     1      -0.598  10.623  18.158  0.00  0.00    +0.000 OA
ENDBRANCH  12  13
ENDBRANCH  11  12
ENDBRANCH   8  11
ENDBRANCH   4   7
BRANCH   1  24
ATOM     24  S   UNL     1       3.512   4.291  18.202  0.00  0.00    +0.000 S 
ATOM     25  O   UNL     1       2.616   3.789  17.184  0.00  0.00    +0.000 OA
ATOM     26  O   UNL     1       3.931   3.459  19.312  0.00  0.00    +0.000 OA
BRANCH  24  30
ATOM     27  C   UNL     1       7.300   6.947  17.509  0.00  0.00    +0.000 C 
ATOM     28  C   UNL     1       7.361   5.421  17.488  0.00  0.00    +0.000 C 
ATOM     29  C   UNL     1       6.184   4.750  18.216  0.00  0.00    +0.000 C 
ATOM     30  N   UNL     1       4.922   4.880  17.433  0.00  0.00    +0.000 NA
ATOM     31  C   UNL     1       5.094   4.432  16.021  0.00  0.00    +0.000 C 
ATOM     32  C   UNL     1       6.315   5.086  15.360  0.00  0.00    +0.000 C 
ATOM     33  C   UNL     1       6.575   4.430  14.008  0.00  0.00    +0.000 C 
ATOM     34  O   UNL     1       7.502   4.913  16.151  0.00  0.00    +0.000 OA
ENDBRANCH  24  30
ENDBRANCH   1  24
TORSDOF 6
ENDMDL
MODEL 4
REMARK VINA RESULT:      -8.8      1.296      2.073
REMARK  Name = 
REMARK  8 active torsions:
REMARK  status: ('A' for Active; 'I' for Inactive)
REMARK    1  A    between atoms: C_1  and  C_2
REMARK    2  A    between atoms: N_4  and  S_5
REMARK    3  A    between atoms: S_5  and  C_8
REMARK    4  A    between atoms: C_11  and  N_12
REMARK    5  A    between atoms: C_13  and  C_15
REMARK    6  A    between atoms: C_15  and  C_16
REMARK    7  A    between atoms: C_16  and  N_17
REMARK    8  A    between atoms: C_31  and  C_32
REMARK                            x       y       z     vdW  Elec       q    Type
REMARK                         _______ _______ _______ _____ _____    ______ ____
ROOT
ATOM      1  C   UNL     1       2.911   5.525  19.033  0.00  0.00    +0.000 A 
ATOM      2  C   UNL     1       2.976   6.691  18.280  0.00  0.00    +0.000 A 
ATOM      3  C   UNL     1       2.361   7.851  18.757  0.00  0.00    +0.000 A 
ATOM      4  C   UNL     1       1.652   7.872  19.964  0.00  0.00    +0.000 A 
ATOM      5  C   UNL     1       1.584   6.682  20.708  0.00  0.00    +0.000 A 
ATOM      6  C   UNL     1       2.202   5.508  20.240  0.00  0.00    +0.000 A 
ENDROOT
BRANCH   4   7
ATOM      7  N   UNL     1       0.979   9.022  20.453  0.00  0.00    +0.000 N 
ATOM      8  C   UNL     1       0.457  10.040  19.669  0.00  0.00    +0.000 C 
ATOM      9  O   UNL     1       0.615  10.150  18.455  0.00  0.00    +0.000 OA
ATOM     10  H   UNL     1       0.835   9.075  21.455  0.00  0.00    +0.000 HD
BRANCH   8  11
ATOM     11  C   UNL     1      -0.342  11.093  20.416  0.00  0.00    +0.000 C 
BRANCH  11  12
ATOM     12  C   UNL     1      -0.804  12.139  19.388  0.00  0.00    +0.000 C 
BRANCH  12  13
ATOM     13  N   UNL     1      -2.236  12.213  19.156  0.00  0.00    +0.000 N 
ATOM     14  C   UNL     1      -3.136  12.616  20.102  0.00  0.00    +0.000 C 
ATOM     15  O   UNL     1      -2.935  13.088  21.204  0.00  0.00    +0.000 OA
ATOM     16  C   UNL     1      -4.463  12.294  19.586  0.00  0.00    +0.000 A 
ATOM     17  C   UNL     1      -5.707  12.543  20.129  0.00  0.00    +0.000 A 
ATOM     18  C   UNL     1      -6.816  12.054  19.434  0.00  0.00    +0.000 A 
ATOM     19  C   UNL     1      -6.653  11.319  18.241  0.00  0.00    +0.000 A 
ATOM     20  C   UNL     1      -5.378  11.080  17.712  0.00  0.00    +0.000 A 
ATOM     21  C   UNL     1      -4.298  11.596  18.406  0.00  0.00    +0.000 A 
ATOM     22  C   UNL     1      -2.859  11.514  18.149  0.00  0.00    +0.000 C 
ATOM     23  O   UNL     1      -2.372  10.885  17.229  0.00  0.00    +0.000 OA
ENDBRANCH  12  13
ENDBRANCH  11  12
ENDBRANCH   8  11
ENDBRANCH   4   7
BRANCH   1  24
ATOM     24  S   UNL     1       3.706   4.045  18.422  0.00  0.00    +0.000 S 
ATOM     25  O   UNL     1       2.801   3.407  17.493  0.00  0.00    +0.000 OA
ATOM     26  O   UNL     1       4.223   3.337  19.575  0.00  0.00    +0.000 OA
BRANCH  24  30
ATOM     27  C   UNL     1       7.320   6.820  17.363  0.00  0.00    +0.000 C 
ATOM     28  C   UNL     1       7.452   5.300  17.425  0.00  0.00    +0.000 C 
ATOM     29  C   UNL     1       6.350   4.622  18.257  0.00  0.00    +0.000 C 
ATOM     30  N   UNL     1       5.042   4.649  17.541  0.00  0.00    +0.000 NA
ATOM     31  C   UNL     1       5.158   4.126  16.150  0.00  0.00    +0.000 C 
ATOM     32  C   UNL     1       6.309   4.793  15.383  0.00  0.00    +0.000 C 
ATOM     33  C   UNL     1       6.525   4.069  14.058  0.00  0.00    +0.000 C 
ATOM     34  O   UNL     1       7.544   4.720  16.114  0.00  0.00    +0.000 OA
ENDBRANCH  24  30
ENDBRANCH   1  24
TORSDOF 6
ENDMDL
MODEL 5
REMARK VINA RESULT:      -8.8      3.084      4.229
REMARK  Name = 
REMARK  8 active torsions:
REMARK  status: ('A' for Active; 'I' for Inactive)
REMARK    1  A    between atoms: C_1  and  C_2
REMARK    2  A    between atoms: N_4  and  S_5
REMARK    3  A    between atoms: S_5  and  C_8
REMARK    4  A    between atoms: C_11  and  N_12
REMARK    5  A    between atoms: C_13  and  C_15
REMARK    6  A    between atoms: C_15  and  C_16
REMARK    7  A    between atoms: C_16  and  N_17
REMARK    8  A    between atoms: C_31  and  C_32
REMARK                            x       y       z     vdW  Elec       q    Type
REMARK                         _______ _______ _______ _____ _____    ______ ____
ROOT
ATOM      1  C   UNL     1       2.739   6.199  18.833  0.00  0.00    +0.000 A 
ATOM      2  C   UNL     1       2.148   6.455  20.064  0.00  0.00    +0.000 A 
ATOM      3  C   UNL     1       1.585   7.709  20.308  0.00  0.00    +0.000 A 
ATOM      4  C   UNL     1       1.620   8.735  19.357  0.00  0.00    +0.000 A 
ATOM      5  C   UNL     1       2.231   8.467  18.121  0.00  0.00    +0.000 A 
ATOM      6  C   UNL     1       2.800   7.206  17.861  0.00  0.00    +0.000 A 
ENDROOT
BRANCH   4   7
ATOM      7  N   UNL     1       1.096  10.033  19.591  0.00  0.00    +0.000 N 
ATOM      8  C   UNL     1      -0.077  10.536  19.049  0.00  0.00    +0.000 C 
ATOM      9  O   UNL     1      -0.759   9.974  18.193  0.00  0.00    +0.000 OA
ATOM     10  H   UNL     1       1.605  10.620  20.243  0.00  0.00    +0.000 HD
BRANCH   8  11
ATOM     11  C   UNL     1      -0.500  11.901  19.561  0.00  0.00    +0.000 C 
BRANCH  11  12
ATOM     12  C   UNL     1      -0.133  12.934  18.483  0.00  0.00    +0.000 C 
BRANCH  12  13
ATOM     13  N   UNL     1       1.092  13.681  18.708  0.00  0.00    +0.000 N 
ATOM     14  C   UNL     1       1.126  15.026  18.945  0.00  0.00    +0.000 C 
ATOM     15  O   UNL     1       0.205  15.797  19.135  0.00  0.00    +0.000 OA
ATOM     16  C   UNL     1       2.522  15.437  18.844  0.00  0.00    +0.000 A 
ATOM     17  C   UNL     1       3.097  16.676  19.048  0.00  0.00    +0.000 A 
ATOM     18  C   UNL     1       4.469  16.789  18.810  0.00  0.00    +0.000 A 
ATOM     19  C   UNL     1       5.217  15.682  18.361  0.00  0.00    +0.000 A 
ATOM     20  C   UNL     1       4.609  14.436  18.162  0.00  0.00    +0.000 A 
ATOM     21  C   UNL     1       3.255  14.343  18.427  0.00  0.00    +0.000 A 
ATOM     22  C   UNL     1       2.324  13.220  18.306  0.00  0.00    +0.000 C 
ATOM     23  O   UNL     1       2.636  12.127  17.873  0.00  0.00    +0.000 OA
ENDBRANCH  12  13
ENDBRANCH  11  12
ENDBRANCH   8  11
ENDBRANCH   4   7
BRANCH   1  24
ATOM     24  S   UNL     1       3.452   4.590  18.522  0.00  0.00    +0.000 S 
ATOM     25  O   UNL     1       2.571   3.881  17.622  0.00  0.00    +0.000 OA
ATOM     26  O   UNL     1       3.817   4.035  19.809  0.00  0.00    +0.000 OA
BRANCH  24  30
ATOM     27  C   UNL     1       7.480   6.755  17.535  0.00  0.00    +0.000 C 
ATOM     28  C   UNL     1       7.381   5.235  17.656  0.00  0.00    +0.000 C 
ATOM     29  C   UNL     1       6.157   4.762  18.459  0.00  0.00    +0.000 C 
ATOM     30  N   UNL     1       4.897   4.954  17.683  0.00  0.00    +0.000 NA
ATOM     31  C   UNL     1       4.990   4.363  16.317  0.00  0.00    +0.000 C 
ATOM     32  C   UNL     1       6.257   4.820  15.582  0.00  0.00    +0.000 C 
ATOM     33  C   UNL     1       6.416   4.020  14.293  0.00  0.00    +0.000 C 
ATOM     34  O   UNL     1       7.437   4.596  16.370  0.00  0.00    +0.000 OA
ENDBRANCH  24  30
ENDBRANCH   1  24
TORSDOF 6
ENDMDL
MODEL 6
REMARK VINA RESULT:      -8.7      0.996      1.262
REMARK  Name = 
REMARK  8 active torsions:
REMARK  status: ('A' for Active; 'I' for Inactive)
REMARK    1  A    between atoms: C_1  and  C_2
REMARK    2  A    between atoms: N_4  and  S_5
REMARK    3  A    between atoms: S_5  and  C_8
REMARK    4  A    between atoms: C_11  and  N_12
REMARK    5  A    between atoms: C_13  and  C_15
REMARK    6  A    between atoms: C_15  and  C_16
REMARK    7  A    between atoms: C_16  and  N_17
REMARK    8  A    between atoms: C_31  and  C_32
REMARK                            x       y       z     vdW  Elec       q    Type
REMARK                         _______ _______ _______ _____ _____    ______ ____
ROOT
ATOM      1  C   UNL     1       2.784   5.963  18.950  0.00  0.00    +0.000 A 
ATOM      2  C   UNL     1       2.135   6.050  20.176  0.00  0.00    +0.000 A 
ATOM      3  C   UNL     1       1.485   7.235  20.526  0.00  0.00    +0.000 A 
ATOM      4  C   UNL     1       1.488   8.357  19.689  0.00  0.00    +0.000 A 
ATOM      5  C   UNL     1       2.160   8.260  18.459  0.00  0.00    +0.000 A 
ATOM      6  C   UNL     1       2.816   7.070  18.093  0.00  0.00    +0.000 A 
ENDROOT
BRANCH   4   7
ATOM      7  N   UNL     1       0.875   9.590  20.036  0.00  0.00    +0.000 N 
ATOM      8  C   UNL     1       0.940  10.196  21.281  0.00  0.00    +0.000 C 
ATOM      9  O   UNL     1       1.430   9.691  22.289  0.00  0.00    +0.000 OA
ATOM     10  H   UNL     1       0.388  10.081  19.294  0.00  0.00    +0.000 HD
BRANCH   8  11
ATOM     11  C   UNL     1       0.322  11.580  21.365  0.00  0.00    +0.000 C 
BRANCH  11  12
ATOM     12  C   UNL     1       0.127  12.090  19.928  0.00  0.00    +0.000 C 
BRANCH  12  13
ATOM     13  N   UNL     1      -1.242  12.118  19.443  0.00  0.00    +0.000 N 
ATOM     14  C   UNL     1      -2.272  12.710  20.118  0.00  0.00    +0.000 C 
ATOM     15  O   UNL     1      -2.239  13.400  21.120  0.00  0.00    +0.000 OA
ATOM     16  C   UNL     1      -3.504  12.293  19.459  0.00  0.00    +0.000 A 
ATOM     17  C   UNL     1      -4.812  12.653  19.718  0.00  0.00    +0.000 A 
ATOM     18  C   UNL     1      -5.806  12.034  18.957  0.00  0.00    +0.000 A 
ATOM     19  C   UNL     1      -5.474  11.069  17.983  0.00  0.00    +0.000 A 
ATOM     20  C   UNL     1      -4.139  10.722  17.741  0.00  0.00    +0.000 A 
ATOM     21  C   UNL     1      -3.171  11.367  18.490  0.00  0.00    +0.000 A 
ATOM     22  C   UNL     1      -1.714  11.229  18.507  0.00  0.00    +0.000 C 
ATOM     23  O   UNL     1      -1.104  10.422  17.830  0.00  0.00    +0.000 OA
ENDBRANCH  12  13
ENDBRANCH  11  12
ENDBRANCH   8  11
ENDBRANCH   4   7
BRANCH   1  24
ATOM     24  S   UNL     1       3.608   4.441  18.504  0.00  0.00    +0.000 S 
ATOM     25  O   UNL     1       2.755   3.730  17.578  0.00  0.00    +0.000 OA
ATOM     26  O   UNL     1       4.056   3.826  19.736  0.00  0.00    +0.000 OA
BRANCH  24  30
ATOM     27  C   UNL     1       7.369   7.043  17.519  0.00  0.00    +0.000 C 
ATOM     28  C   UNL     1       7.432   5.519  17.601  0.00  0.00    +0.000 C 
ATOM     29  C   UNL     1       6.278   4.899  18.407  0.00  0.00    +0.000 C 
ATOM     30  N   UNL     1       4.993   4.976  17.655  0.00  0.00    +0.000 NA
ATOM     31  C   UNL     1       5.124   4.433  16.273  0.00  0.00    +0.000 C 
ATOM     32  C   UNL     1       6.324   5.040  15.532  0.00  0.00    +0.000 C 
ATOM     33  C   UNL     1       6.545   4.293  14.221  0.00  0.00    +0.000 C 
ATOM     34  O   UNL     1       7.534   4.921  16.298  0.00  0.00    +0.000 OA
ENDBRANCH  24  30
ENDBRANCH   1  24
TORSDOF 6
ENDMDL
MODEL 7
REMARK VINA RESULT:      -8.7      1.146      2.054
REMARK  Name = 
REMARK  8 active torsions:
REMARK  status: ('A' for Active; 'I' for Inactive)
REMARK    1  A    between atoms: C_1  and  C_2
REMARK    2  A    between atoms: N_4  and  S_5
REMARK    3  A    between atoms: S_5  and  C_8
REMARK    4  A    between atoms: C_11  and  N_12
REMARK    5  A    between atoms: C_13  and  C_15
REMARK    6  A    between atoms: C_15  and  C_16
REMARK    7  A    between atoms: C_16  and  N_17
REMARK    8  A    between atoms: C_31  and  C_32
REMARK                            x       y       z     vdW  Elec       q    Type
REMARK                         _______ _______ _______ _____ _____    ______ ____
ROOT
ATOM      1  C   UNL     1       2.733   6.188  18.893  0.00  0.00    +0.000 A 
ATOM      2  C   UNL     1       2.164   6.365  20.148  0.00  0.00    +0.000 A 
ATOM      3  C   UNL     1       1.568   7.588  20.465  0.00  0.00    +0.000 A 
ATOM      4  C   UNL     1       1.548   8.659  19.564  0.00  0.00    +0.000 A 
ATOM      5  C   UNL     1       2.140   8.470  18.304  0.00  0.00    +0.000 A 
ATOM      6  C   UNL     1       2.740   7.242  17.971  0.00  0.00    +0.000 A 
ENDROOT
BRANCH   4   7
ATOM      7  N   UNL     1       0.990   9.927  19.873  0.00  0.00    +0.000 N 
ATOM      8  C   UNL     1       0.913  10.482  21.141  0.00  0.00    +0.000 C 
ATOM      9  O   UNL     1       1.201   9.903  22.186  0.00  0.00    +0.000 OA
ATOM     10  H   UNL     1       0.662  10.484  19.091  0.00  0.00    +0.000 HD
BRANCH   8  11
ATOM     11  C   UNL     1       0.401  11.911  21.197  0.00  0.00    +0.000 C 
BRANCH  11  12
ATOM     12  C   UNL     1      -0.151  12.260  19.806  0.00  0.00    +0.000 C 
BRANCH  12  13
ATOM     13  N   UNL     1      -1.555  11.964  19.586  0.00  0.00    +0.000 N 
ATOM     14  C   UNL     1      -2.014  11.189  18.558  0.00  0.00    +0.000 C 
ATOM     15  O   UNL     1      -1.385  10.526  17.755  0.00  0.00    +0.000 OA
ATOM     16  C   UNL     1      -3.462  11.355  18.517  0.00  0.00    +0.000 A 
ATOM     17  C   UNL     1      -4.399  10.751  17.703  0.00  0.00    +0.000 A 
ATOM     18  C   UNL     1      -5.727  11.161  17.846  0.00  0.00    +0.000 A 
ATOM     19  C   UNL     1      -6.076  12.165  18.772  0.00  0.00    +0.000 A 
ATOM     20  C   UNL     1      -5.106  12.762  19.586  0.00  0.00    +0.000 A 
ATOM     21  C   UNL     1      -3.802  12.321  19.443  0.00  0.00    +0.000 A 
ATOM     22  C   UNL     1      -2.565  12.739  20.106  0.00  0.00    +0.000 C 
ATOM     23  O   UNL     1      -2.506  13.643  20.917  0.00  0.00    +0.000 OA
ENDBRANCH  12  13
ENDBRANCH  11  12
ENDBRANCH   8  11
ENDBRANCH   4   7
BRANCH   1  24
ATOM     24  S   UNL     1       3.489   4.619  18.489  0.00  0.00    +0.000 S 
ATOM     25  O   UNL     1       2.633   3.948  17.536  0.00  0.00    +0.000 OA
ATOM     26  O   UNL     1       3.855   3.993  19.742  0.00  0.00    +0.000 OA
BRANCH  24  30
ATOM     27  C   UNL     1       7.445   6.972  17.657  0.00  0.00    +0.000 C 
ATOM     28  C   UNL     1       7.403   5.446  17.717  0.00  0.00    +0.000 C 
ATOM     29  C   UNL     1       6.185   4.897  18.480  0.00  0.00    +0.000 C 
ATOM     30  N   UNL     1       4.932   5.070  17.690  0.00  0.00    +0.000 NA
ATOM     31  C   UNL     1       5.069   4.537  16.305  0.00  0.00    +0.000 C 
ATOM     32  C   UNL     1       6.330   5.070  15.610  0.00  0.00    +0.000 C 
ATOM     33  C   UNL     1       6.540   4.327  14.295  0.00  0.00    +0.000 C 
ATOM     34  O   UNL     1       7.504   4.860  16.409  0.00  0.00    +0.000 OA
ENDBRANCH  24  30
ENDBRANCH   1  24
TORSDOF 6
ENDMDL
MODEL 8
REMARK VINA RESULT:      -8.7      3.015      4.433
REMARK  Name = 
REMARK  8 active torsions:
REMARK  status: ('A' for Active; 'I' for Inactive)
REMARK    1  A    between atoms: C_1  and  C_2
REMARK    2  A    between atoms: N_4  and  S_5
REMARK    3  A    between atoms: S_5  and  C_8
REMARK    4  A    between atoms: C_11  and  N_12
REMARK    5  A    between atoms: C_13  and  C_15
REMARK    6  A    between atoms: C_15  and  C_16
REMARK    7  A    between atoms: C_16  and  N_17
REMARK    8  A    between atoms: C_31  and  C_32
REMARK                            x       y       z     vdW  Elec       q    Type
REMARK                         _______ _______ _______ _____ _____    ______ ____
ROOT
ATOM      1  C   UNL     1       2.695   6.377  18.804  0.00  0.00    +0.000 A 
ATOM      2  C   UNL     1       2.184   6.686  20.058  0.00  0.00    +0.000 A 
ATOM      3  C   UNL     1       1.647   7.955  20.287  0.00  0.00    +0.000 A 
ATOM      4  C   UNL     1       1.632   8.943  19.296  0.00  0.00    +0.000 A 
ATOM      5  C   UNL     1       2.164   8.621  18.036  0.00  0.00    +0.000 A 
ATOM      6  C   UNL     1       2.705   7.345  17.792  0.00  0.00    +0.000 A 
ENDROOT
BRANCH   4   7
ATOM      7  N   UNL     1       1.134  10.255  19.511  0.00  0.00    +0.000 N 
ATOM      8  C   UNL     1      -0.175  10.661  19.302  0.00  0.00    +0.000 C 
ATOM      9  O   UNL     1      -1.055   9.976  18.785  0.00  0.00    +0.000 OA
ATOM     10  H   UNL     1       1.786  10.934  19.887  0.00  0.00    +0.000 HD
BRANCH   8  11
ATOM     11  C   UNL     1      -0.495  12.080  19.738  0.00  0.00    +0.000 C 
BRANCH  11  12
ATOM     12  C   UNL     1      -0.371  12.984  18.501  0.00  0.00    +0.000 C 
BRANCH  12  13
ATOM     13  N   UNL     1       0.780  13.869  18.472  0.00  0.00    +0.000 N 
ATOM     14  C   UNL     1       2.055  13.445  18.229  0.00  0.00    +0.000 C 
ATOM     15  O   UNL     1       2.448  12.348  17.880  0.00  0.00    +0.000 OA
ATOM     16  C   UNL     1       2.940  14.558  18.554  0.00  0.00    +0.000 A 
ATOM     17  C   UNL     1       4.311  14.664  18.433  0.00  0.00    +0.000 A 
ATOM     18  C   UNL     1       4.903  15.842  18.893  0.00  0.00    +0.000 A 
ATOM     19  C   UNL     1       4.123  16.864  19.473  0.00  0.00    +0.000 A 
ATOM     20  C   UNL     1       2.733  16.731  19.583  0.00  0.00    +0.000 A 
ATOM     21  C   UNL     1       2.168  15.566  19.099  0.00  0.00    +0.000 A 
ATOM     22  C   UNL     1       0.778  15.104  19.078  0.00  0.00    +0.000 C 
ATOM     23  O   UNL     1      -0.146  15.724  19.569  0.00  0.00    +0.000 OA
ENDBRANCH  12  13
ENDBRANCH  11  12
ENDBRANCH   8  11
ENDBRANCH   4   7
BRANCH   1  24
ATOM     24  S   UNL     1       3.374   4.750  18.513  0.00  0.00    +0.000 S 
ATOM     25  O   UNL     1       2.507   4.068  17.578  0.00  0.00    +0.000 OA
ATOM     26  O   UNL     1       3.676   4.181  19.810  0.00  0.00    +0.000 OA
BRANCH  24  30
ATOM     27  C   UNL     1       7.500   6.795  17.691  0.00  0.00    +0.000 C 
ATOM     28  C   UNL     1       7.350   5.278  17.792  0.00  0.00    +0.000 C 
ATOM     29  C   UNL     1       6.084   4.837  18.546  0.00  0.00    +0.000 C 
ATOM     30  N   UNL     1       4.859   5.075  17.730  0.00  0.00    +0.000 NA
ATOM     31  C   UNL     1       4.981   4.495  16.361  0.00  0.00    +0.000 C 
ATOM     32  C   UNL     1       6.288   4.919  15.676  0.00  0.00    +0.000 C 
ATOM     33  C   UNL     1       6.467   4.126  14.385  0.00  0.00    +0.000 C 
ATOM     34  O   UNL     1       7.431   4.649  16.502  0.00  0.00    +0.000 OA
ENDBRANCH  24  30
ENDBRANCH   1  24
TORSDOF 6
ENDMDL
MODEL 9
REMARK VINA RESULT:      -8.6      2.407      9.081
REMARK  Name = 
REMARK  8 active torsions:
REMARK  status: ('A' for Active; 'I' for Inactive)
REMARK    1  A    between atoms: C_1  and  C_2
REMARK    2  A    between atoms: N_4  and  S_5
REMARK    3  A    between atoms: S_5  and  C_8
REMARK    4  A    between atoms: C_11  and  N_12
REMARK    5  A    between atoms: C_13  and  C_15
REMARK    6  A    between atoms: C_15  and  C_16
REMARK    7  A    between atoms: C_16  and  N_17
REMARK    8  A    between atoms: C_31  and  C_32
REMARK                            x       y       z     vdW  Elec       q    Type
REMARK                         _______ _______ _______ _____ _____    ______ ____
ROOT
ATOM      1  C   UNL     1       0.894   9.987  19.658  0.00  0.00    +0.000 A 
ATOM      2  C   UNL     1       1.628   9.241  18.744  0.00  0.00    +0.000 A 
ATOM      3  C   UNL     1       2.049   7.954  19.088  0.00  0.00    +0.000 A 
ATOM      4  C   UNL     1       1.778   7.397  20.343  0.00  0.00    +0.000 A 
ATOM      5  C   UNL     1       1.047   8.168  21.262  0.00  0.00    +0.000 A 
ATOM      6  C   UNL     1       0.614   9.464  20.926  0.00  0.00    +0.000 A 
ENDROOT
BRANCH   4   7
ATOM      7  N   UNL     1       2.230   6.111  20.739  0.00  0.00    +0.000 N 
ATOM      8  C   UNL     1       1.474   4.949  20.705  0.00  0.00    +0.000 C 
ATOM      9  O   UNL     1       0.273   4.893  20.446  0.00  0.00    +0.000 OA
ATOM     10  H   UNL     1       3.198   6.037  21.030  0.00  0.00    +0.000 HD
BRANCH   8  11
ATOM     11  C   UNL     1       2.223   3.674  21.045  0.00  0.00    +0.000 C 
BRANCH  11  12
ATOM     12  C   UNL     1       2.435   2.896  19.736  0.00  0.00    +0.000 C 
BRANCH  12  13
ATOM     13  N   UNL     1       3.438   3.432  18.833  0.00  0.00    +0.000 N 
ATOM     14  C   UNL     1       4.777   3.433  19.103  0.00  0.00    +0.000 C 
ATOM     15  O   UNL     1       5.377   2.905  20.021  0.00  0.00    +0.000 OA
ATOM     16  C   UNL     1       5.410   4.287  18.104  0.00  0.00    +0.000 A 
ATOM     17  C   UNL     1       6.745   4.576  17.905  0.00  0.00    +0.000 A 
ATOM     18  C   UNL     1       7.055   5.494  16.898  0.00  0.00    +0.000 A 
ATOM     19  C   UNL     1       6.035   6.107  16.141  0.00  0.00    +0.000 A 
ATOM     20  C   UNL     1       4.688   5.796  16.365  0.00  0.00    +0.000 A 
ATOM     21  C   UNL     1       4.408   4.866  17.350  0.00  0.00    +0.000 A 
ATOM     22  C   UNL     1       3.135   4.341  17.846  0.00  0.00    +0.000 C 
ATOM     23  O   UNL     1       2.048   4.719  17.450  0.00  0.00    +0.000 OA
ENDBRANCH  12  13
ENDBRANCH  11  12
ENDBRANCH   8  11
ENDBRANCH   4   7
BRANCH   1  24
ATOM     24  S   UNL     1       0.352  11.630  19.209  0.00  0.00    +0.000 S 
ATOM     25  O   UNL     1       1.288  12.157  18.241  0.00  0.00    +0.000 OA
ATOM     26  O   UNL     1       0.072  12.333  20.444  0.00  0.00    +0.000 OA
BRANCH  24  30
ATOM     27  C   UNL     1      -2.594  10.518  15.750  0.00  0.00    +0.000 C 
ATOM     28  C   UNL     1      -2.664   9.854  17.124  0.00  0.00    +0.000 C 
ATOM     29  C   UNL     1      -1.355   9.962  17.925  0.00  0.00    +0.000 C 
ATOM     30  N   UNL     1      -1.139  11.352  18.419  0.00  0.00    +0.000 NA
ATOM     31  C   UNL     1      -2.333  11.879  19.139  0.00  0.00    +0.000 C 
ATOM     32  C   UNL     1      -3.620  11.694  18.322  0.00  0.00    +0.000 C 
ATOM     33  C   UNL     1      -4.827  12.039  19.188  0.00  0.00    +0.000 C 
ATOM     34  O   UNL     1      -3.782  10.334  17.890  0.00  0.00    +0.000 OA
ENDBRANCH  24  30
ENDBRANCH   1  24
TORSDOF 6
ENDMDL
