MODEL 1
REMARK VINA RESULT:      -6.2      0.000      0.000
REMARK  Name = 
REMARK  25 active torsions:
REMARK  status: ('A' for Active; 'I' for Inactive)
REMARK    1  A    between atoms: C_1  and  C_2
REMARK    2  A    between atoms: C_2  and  C_3
REMARK    3  A    between atoms: C_3  and  C_4
REMARK    4  A    between atoms: C_4  and  C_5
REMARK    5  A    between atoms: C_5  and  C_6
REMARK    6  A    between atoms: C_6  and  C_7
REMARK    7  A    between atoms: C_7  and  C_8
REMARK    8  A    between atoms: C_8  and  C_9
REMARK    9  A    between atoms: C_9  and  C_10
REMARK   10  A    between atoms: C_10  and  C_11
REMARK   11  A    between atoms: C_11  and  C_12
REMARK   12  A    between atoms: C_12  and  C_13
REMARK   13  A    between atoms: C_13  and  C_14
REMARK   14  A    between atoms: C_14  and  C_15
REMARK   15  A    between atoms: C_15  and  O_16
REMARK   16  A    between atoms: C_15  and  C_17
REMARK   17  A    between atoms: C_17  and  C_18
REMARK   18  A    between atoms: C_17  and  N_19
REMARK   19  A    between atoms: C_20  and  C_22
REMARK   20  A    between atoms: C_22  and  C_23
REMARK   21  A    between atoms: C_23  and  C_24
REMARK   22  A    between atoms: C_24  and  C_25
REMARK   23  A    between atoms: C_25  and  C_26
REMARK   24  A    between atoms: C_26  and  C_27
REMARK   25  A    between atoms: C_27  and  C_28
REMARK                            x       y       z     vdW  Elec       q    Type
REMARK                         _______ _______ _______ _____ _____    ______ ____
ROOT
ATOM      1  C   UNL     1       5.332   3.806  17.864  0.00  0.00    +0.000 C 
ENDROOT
BRANCH   1   2
ATOM      2  C   UNL     1       5.365   5.208  17.192  0.00  0.00    +0.000 C 
ATOM      3  C   UNL     1       4.063   5.966  17.448  0.00  0.00    +0.000 C 
BRANCH   2   4
ATOM      4  N   UNL     1       5.644   5.138  15.755  0.00  0.00    +0.000 N 
ATOM      5  C   UNL     1       6.917   4.824  15.306  0.00  0.00    +0.000 C 
ATOM      6  O   UNL     1       7.858   4.579  16.038  0.00  0.00    +0.000 OA
ATOM      7  H   UNL     1       4.902   5.330  15.095  0.00  0.00    +0.000 HD
BRANCH   5   8
ATOM      8  C   UNL     1       7.049   4.788  13.801  0.00  0.00    +0.000 C 
BRANCH   8   9
ATOM      9  C   UNL     1       5.858   4.083  13.175  0.00  0.00    +0.000 C 
BRANCH   9  10
ATOM     10  C   UNL     1       6.284   2.864  12.367  0.00  0.00    +0.000 C 
BRANCH  10  11
ATOM     11  C   UNL     1       5.193   2.482  11.368  0.00  0.00    +0.000 C 
BRANCH  11  12
ATOM     12  C   UNL     1       4.157   3.594  11.238  0.00  0.00    +0.000 C 
BRANCH  12  13
ATOM     13  C   UNL     1       3.087   3.237  10.210  0.00  0.00    +0.000 C 
ATOM     14  C   UNL     1       2.666   4.460   9.413  0.00  0.00    +0.000 C 
ENDBRANCH  12  13
ENDBRANCH  11  12
ENDBRANCH  10  11
ENDBRANCH   9  10
ENDBRANCH   8   9
ENDBRANCH   5   8
ENDBRANCH   2   4
ENDBRANCH   1   2
BRANCH   1  15
ATOM     15  O   UNL     1       5.956   3.817  19.150  0.00  0.00    +0.000 OA
ATOM     16  H   UNL     1       6.136   2.893  19.388  0.00  0.00    +0.000 HD
ENDBRANCH   1  15
BRANCH   1  17
ATOM     17  C   UNL     1       3.919   3.244  17.989  0.00  0.00    +0.000 C 
BRANCH  17  18
ATOM     18  C   UNL     1       3.537   2.901  19.430  0.00  0.00    +0.000 C 
BRANCH  18  19
ATOM     19  C   UNL     1       2.160   2.252  19.498  0.00  0.00    +0.000 C 
BRANCH  19  20
ATOM     20  C   UNL     1       1.172   3.154  20.225  0.00  0.00    +0.000 C 
BRANCH  20  21
ATOM     21  C   UNL     1       1.254   4.569  19.699  0.00  0.00    +0.000 C 
BRANCH  21  22
ATOM     22  C   UNL     1       1.596   5.520  20.834  0.00  0.00    +0.000 C 
BRANCH  22  23
ATOM     23  C   UNL     1       2.448   6.656  20.300  0.00  0.00    +0.000 C 
BRANCH  23  24
ATOM     24  C   UNL     1       1.625   7.927  20.187  0.00  0.00    +0.000 C 
BRANCH  24  25
ATOM     25  C   UNL     1       1.236   8.418  21.570  0.00  0.00    +0.000 C 
BRANCH  25  26
ATOM     26  C   UNL     1      -0.149   9.043  21.538  0.00  0.00    +0.000 C 
BRANCH  26  27
ATOM     27  C   UNL     1      -0.076  10.474  21.023  0.00  0.00    +0.000 C 
BRANCH  27  28
ATOM     28  C   UNL     1      -0.998  10.656  19.824  0.00  0.00    +0.000 C 
BRANCH  28  30
ATOM     29  C   UNL     1       1.077  11.369  18.614  0.00  0.00    +0.000 C 
ATOM     30  C   UNL     1      -0.215  10.577  18.518  0.00  0.00    +0.000 C 
ENDBRANCH  28  30
ENDBRANCH  27  28
ENDBRANCH  26  27
ENDBRANCH  25  26
ENDBRANCH  24  25
ENDBRANCH  23  24
ENDBRANCH  22  23
ENDBRANCH  21  22
ENDBRANCH  20  21
ENDBRANCH  19  20
ENDBRANCH  18  19
ENDBRANCH  17  18
ENDBRANCH   1  17
TORSDOF 22
ENDMDL
MODEL 2
REMARK VINA RESULT:      -6.0      3.166      5.903
REMARK  Name = 
REMARK  25 active torsions:
REMARK  status: ('A' for Active; 'I' for Inactive)
REMARK    1  A    between atoms: C_1  and  C_2
REMARK    2  A    between atoms: C_2  and  C_3
REMARK    3  A    between atoms: C_3  and  C_4
REMARK    4  A    between atoms: C_4  and  C_5
REMARK    5  A    between atoms: C_5  and  C_6
REMARK    6  A    between atoms: C_6  and  C_7
REMARK    7  A    between atoms: C_7  and  C_8
REMARK    8  A    between atoms: C_8  and  C_9
REMARK    9  A    between atoms: C_9  and  C_10
REMARK   10  A    between atoms: C_10  and  C_11
REMARK   11  A    between atoms: C_11  and  C_12
REMARK   12  A    between atoms: C_12  and  C_13
REMARK   13  A    between atoms: C_13  and  C_14
REMARK   14  A    between atoms: C_14  and  C_15
REMARK   15  A    between atoms: C_15  and  O_16
REMARK   16  A    between atoms: C_15  and  C_17
REMARK   17  A    between atoms: C_17  and  C_18
REMARK   18  A    between atoms: C_17  and  N_19
REMARK   19  A    between atoms: C_20  and  C_22
REMARK   20  A    between atoms: C_22  and  C_23
REMARK   21  A    between atoms: C_23  and  C_24
REMARK   22  A    between atoms: C_24  and  C_25
REMARK   23  A    between atoms: C_25  and  C_26
REMARK   24  A    between atoms: C_26  and  C_27
REMARK   25  A    between atoms: C_27  and  C_28
REMARK                            x       y       z     vdW  Elec       q    Type
REMARK                         _______ _______ _______ _____ _____    ______ ____
ROOT
ATOM      1  C   UNL     1       6.057   6.116  16.469  0.00  0.00    +0.000 C 
ENDROOT
BRANCH   1   2
ATOM      2  C   UNL     1       6.233   4.972  17.509  0.00  0.00    +0.000 C 
ATOM      3  C   UNL     1       7.669   4.450  17.506  0.00  0.00    +0.000 C 
BRANCH   2   4
ATOM      4  N   UNL     1       5.286   3.873  17.304  0.00  0.00    +0.000 N 
ATOM      5  C   UNL     1       4.752   3.201  18.391  0.00  0.00    +0.000 C 
ATOM      6  O   UNL     1       5.005   3.467  19.552  0.00  0.00    +0.000 OA
ATOM      7  H   UNL     1       5.033   3.604  16.362  0.00  0.00    +0.000 HD
BRANCH   5   8
ATOM      8  C   UNL     1       3.790   2.094  18.021  0.00  0.00    +0.000 C 
BRANCH   8   9
ATOM      9  C   UNL     1       2.770   1.879  19.126  0.00  0.00    +0.000 C 
BRANCH   9  10
ATOM     10  C   UNL     1       1.345   2.064  18.623  0.00  0.00    +0.000 C 
BRANCH  10  11
ATOM     11  C   UNL     1       0.875   3.496  18.878  0.00  0.00    +0.000 C 
BRANCH  11  12
ATOM     12  C   UNL     1       1.040   3.873  20.346  0.00  0.00    +0.000 C 
BRANCH  12  13
ATOM     13  C   UNL     1       2.064   4.991  20.519  0.00  0.00    +0.000 C 
ATOM     14  C   UNL     1       1.407   6.255  21.051  0.00  0.00    +0.000 C 
ENDBRANCH  12  13
ENDBRANCH  11  12
ENDBRANCH  10  11
ENDBRANCH   9  10
ENDBRANCH   8   9
ENDBRANCH   5   8
ENDBRANCH   2   4
ENDBRANCH   1   2
BRANCH   1  15
ATOM     15  O   UNL     1       6.404   5.692  15.148  0.00  0.00    +0.000 OA
ATOM     16  H   UNL     1       7.371   5.605  15.122  0.00  0.00    +0.000 HD
ENDBRANCH   1  15
BRANCH   1  17
ATOM     17  C   UNL     1       4.646   6.695  16.461  0.00  0.00    +0.000 C 
BRANCH  17  18
ATOM     18  C   UNL     1       4.073   6.894  17.866  0.00  0.00    +0.000 C 
BRANCH  18  19
ATOM     19  C   UNL     1       2.623   7.358  17.813  0.00  0.00    +0.000 C 
BRANCH  19  20
ATOM     20  C   UNL     1       2.542   8.878  17.796  0.00  0.00    +0.000 C 
BRANCH  20  21
ATOM     21  C   UNL     1       1.200   9.347  18.314  0.00  0.00    +0.000 C 
BRANCH  21  22
ATOM     22  C   UNL     1       1.238   9.442  19.829  0.00  0.00    +0.000 C 
BRANCH  22  23
ATOM     23  C   UNL     1      -0.029  10.114  20.325  0.00  0.00    +0.000 C 
BRANCH  23  24
ATOM     24  C   UNL     1      -0.227  11.449  19.629  0.00  0.00    +0.000 C 
BRANCH  24  25
ATOM     25  C   UNL     1      -1.684  11.618  19.235  0.00  0.00    +0.000 C 
BRANCH  25  26
ATOM     26  C   UNL     1      -1.821  11.654  17.722  0.00  0.00    +0.000 C 
BRANCH  26  27
ATOM     27  C   UNL     1      -1.994  10.246  17.168  0.00  0.00    +0.000 C 
BRANCH  27  28
ATOM     28  C   UNL     1      -3.465   9.962  16.889  0.00  0.00    +0.000 C 
BRANCH  28  30
ATOM     29  C   UNL     1      -3.150  10.136  14.409  0.00  0.00    +0.000 C 
ATOM     30  C   UNL     1      -3.920  10.656  15.610  0.00  0.00    +0.000 C 
ENDBRANCH  28  30
ENDBRANCH  27  28
ENDBRANCH  26  27
ENDBRANCH  25  26
ENDBRANCH  24  25
ENDBRANCH  23  24
ENDBRANCH  22  23
ENDBRANCH  21  22
ENDBRANCH  20  21
ENDBRANCH  19  20
ENDBRANCH  18  19
ENDBRANCH  17  18
ENDBRANCH   1  17
TORSDOF 22
ENDMDL
MODEL 3
REMARK VINA RESULT:      -5.8      6.154      8.711
REMARK  Name = 
REMARK  25 active torsions:
REMARK  status: ('A' for Active; 'I' for Inactive)
REMARK    1  A    between atoms: C_1  and  C_2
REMARK    2  A    between atoms: C_2  and  C_3
REMARK    3  A    between atoms: C_3  and  C_4
REMARK    4  A    between atoms: C_4  and  C_5
REMARK    5  A    between atoms: C_5  and  C_6
REMARK    6  A    between atoms: C_6  and  C_7
REMARK    7  A    between atoms: C_7  and  C_8
REMARK    8  A    between atoms: C_8  and  C_9
REMARK    9  A    between atoms: C_9  and  C_10
REMARK   10  A    between atoms: C_10  and  C_11
REMARK   11  A    between atoms: C_11  and  C_12
REMARK   12  A    between atoms: C_12  and  C_13
REMARK   13  A    between atoms: C_13  and  C_14
REMARK   14  A    between atoms: C_14  and  C_15
REMARK   15  A    between atoms: C_15  and  O_16
REMARK   16  A    between atoms: C_15  and  C_17
REMARK   17  A    between atoms: C_17  and  C_18
REMARK   18  A    between atoms: C_17  and  N_19
REMARK   19  A    between atoms: C_20  and  C_22
REMARK   20  A    between atoms: C_22  and  C_23
REMARK   21  A    between atoms: C_23  and  C_24
REMARK   22  A    between atoms: C_24  and  C_25
REMARK   23  A    between atoms: C_25  and  C_26
REMARK   24  A    between atoms: C_26  and  C_27
REMARK   25  A    between atoms: C_27  and  C_28
REMARK                            x       y       z     vdW  Elec       q    Type
REMARK                         _______ _______ _______ _____ _____    ______ ____
ROOT
ATOM      1  C   UNL     1       6.855   5.172  16.039  0.00  0.00    +0.000 C 
ENDROOT
BRANCH   1   2
ATOM      2  C   UNL     1       5.733   4.169  15.644  0.00  0.00    +0.000 C 
ATOM      3  C   UNL     1       5.620   4.051  14.124  0.00  0.00    +0.000 C 
BRANCH   2   4
ATOM      4  N   UNL     1       4.435   4.514  16.230  0.00  0.00    +0.000 N 
ATOM      5  C   UNL     1       3.865   3.696  17.192  0.00  0.00    +0.000 C 
ATOM      6  O   UNL     1       4.381   2.679  17.617  0.00  0.00    +0.000 OA
ATOM      7  H   UNL     1       3.956   5.349  15.919  0.00  0.00    +0.000 HD
BRANCH   5   8
ATOM      8  C   UNL     1       2.528   4.184  17.703  0.00  0.00    +0.000 C 
BRANCH   8   9
ATOM      9  C   UNL     1       2.645   4.654  19.142  0.00  0.00    +0.000 C 
BRANCH   9  10
ATOM     10  C   UNL     1       3.021   6.128  19.226  0.00  0.00    +0.000 C 
BRANCH  10  11
ATOM     11  C   UNL     1       2.157   6.950  18.269  0.00  0.00    +0.000 C 
BRANCH  11  12
ATOM     12  C   UNL     1       2.892   8.205  17.810  0.00  0.00    +0.000 C 
BRANCH  12  13
ATOM     13  C   UNL     1       1.975   9.424  17.836  0.00  0.00    +0.000 C 
ATOM     14  C   UNL     1       1.200   9.497  19.141  0.00  0.00    +0.000 C 
ENDBRANCH  12  13
ENDBRANCH  11  12
ENDBRANCH  10  11
ENDBRANCH   9  10
ENDBRANCH   8   9
ENDBRANCH   5   8
ENDBRANCH   2   4
ENDBRANCH   1   2
BRANCH   1  15
ATOM     15  O   UNL     1       7.711   5.476  14.936  0.00  0.00    +0.000 OA
ATOM     16  H   UNL     1       7.905   4.637  14.486  0.00  0.00    +0.000 HD
ENDBRANCH   1  15
BRANCH   1  17
ATOM     17  C   UNL     1       6.306   6.468  16.628  0.00  0.00    +0.000 C 
BRANCH  17  18
ATOM     18  C   UNL     1       6.669   6.657  18.102  0.00  0.00    +0.000 C 
BRANCH  18  19
ATOM     19  C   UNL     1       8.055   7.271  18.258  0.00  0.00    +0.000 C 
BRANCH  19  20
ATOM     20  C   UNL     1       8.045   8.737  17.847  0.00  0.00    +0.000 C 
BRANCH  20  21
ATOM     21  C   UNL     1       8.904   9.559  18.782  0.00  0.00    +0.000 C 
BRANCH  21  22
ATOM     22  C   UNL     1       9.043  10.972  18.242  0.00  0.00    +0.000 C 
BRANCH  22  23
ATOM     23  C   UNL     1      10.513  11.344  18.175  0.00  0.00    +0.000 C 
BRANCH  23  24
ATOM     24  C   UNL     1      11.042  11.663  19.562  0.00  0.00    +0.000 C 
BRANCH  24  25
ATOM     25  C   UNL     1      11.288  13.156  19.692  0.00  0.00    +0.000 C 
BRANCH  25  26
ATOM     26  C   UNL     1      11.411  13.792  18.316  0.00  0.00    +0.000 C 
BRANCH  26  27
ATOM     27  C   UNL     1      10.805  15.188  18.318  0.00  0.00    +0.000 C 
BRANCH  27  28
ATOM     28  C   UNL     1      11.543  16.087  19.302  0.00  0.00    +0.000 C 
BRANCH  28  30
ATOM     29  C   UNL     1      11.695  18.042  17.742  0.00  0.00    +0.000 C 
ATOM     30  C   UNL     1      11.177  17.551  19.082  0.00  0.00    +0.000 C 
ENDBRANCH  28  30
ENDBRANCH  27  28
ENDBRANCH  26  27
ENDBRANCH  25  26
ENDBRANCH  24  25
ENDBRANCH  23  24
ENDBRANCH  22  23
ENDBRANCH  21  22
ENDBRANCH  20  21
ENDBRANCH  19  20
ENDBRANCH  18  19
ENDBRANCH  17  18
ENDBRANCH   1  17
TORSDOF 22
ENDMDL
MODEL 4
REMARK VINA RESULT:      -5.8      1.588      2.753
REMARK  Name = 
REMARK  25 active torsions:
REMARK  status: ('A' for Active; 'I' for Inactive)
REMARK    1  A    between atoms: C_1  and  C_2
REMARK    2  A    between atoms: C_2  and  C_3
REMARK    3  A    between atoms: C_3  and  C_4
REMARK    4  A    between atoms: C_4  and  C_5
REMARK    5  A    between atoms: C_5  and  C_6
REMARK    6  A    between atoms: C_6  and  C_7
REMARK    7  A    between atoms: C_7  and  C_8
REMARK    8  A    between atoms: C_8  and  C_9
REMARK    9  A    between atoms: C_9  and  C_10
REMARK   10  A    between atoms: C_10  and  C_11
REMARK   11  A    between atoms: C_11  and  C_12
REMARK   12  A    between atoms: C_12  and  C_13
REMARK   13  A    between atoms: C_13  and  C_14
REMARK   14  A    between atoms: C_14  and  C_15
REMARK   15  A    between atoms: C_15  and  O_16
REMARK   16  A    between atoms: C_15  and  C_17
REMARK   17  A    between atoms: C_17  and  C_18
REMARK   18  A    between atoms: C_17  and  N_19
REMARK   19  A    between atoms: C_20  and  C_22
REMARK   20  A    between atoms: C_22  and  C_23
REMARK   21  A    between atoms: C_23  and  C_24
REMARK   22  A    between atoms: C_24  and  C_25
REMARK   23  A    between atoms: C_25  and  C_26
REMARK   24  A    between atoms: C_26  and  C_27
REMARK   25  A    between atoms: C_27  and  C_28
REMARK                            x       y       z     vdW  Elec       q    Type
REMARK                         _______ _______ _______ _____ _____    ______ ____
ROOT
ATOM      1  C   UNL     1       3.039   2.447  18.167  0.00  0.00    +0.000 C 
ENDROOT
BRANCH   1   2
ATOM      2  C   UNL     1       2.908   3.965  17.854  0.00  0.00    +0.000 C 
ATOM      3  C   UNL     1       1.442   4.360  17.677  0.00  0.00    +0.000 C 
BRANCH   2   4
ATOM      4  N   UNL     1       3.693   4.369  16.685  0.00  0.00    +0.000 N 
ATOM      5  C   UNL     1       4.553   5.453  16.763  0.00  0.00    +0.000 C 
ATOM      6  O   UNL     1       4.726   6.117  17.769  0.00  0.00    +0.000 OA
ATOM      7  H   UNL     1       3.595   3.856  15.819  0.00  0.00    +0.000 HD
BRANCH   5   8
ATOM      8  C   UNL     1       5.294   5.747  15.479  0.00  0.00    +0.000 C 
BRANCH   8   9
ATOM      9  C   UNL     1       6.758   5.362  15.606  0.00  0.00    +0.000 C 
BRANCH   9  10
ATOM     10  C   UNL     1       7.170   4.350  14.546  0.00  0.00    +0.000 C 
BRANCH  10  11
ATOM     11  C   UNL     1       5.990   4.037  13.626  0.00  0.00    +0.000 C 
BRANCH  11  12
ATOM     12  C   UNL     1       6.469   3.459  12.299  0.00  0.00    +0.000 C 
BRANCH  12  13
ATOM     13  C   UNL     1       5.435   2.508  11.702  0.00  0.00    +0.000 C 
ATOM     14  C   UNL     1       4.158   3.248  11.340  0.00  0.00    +0.000 C 
ENDBRANCH  12  13
ENDBRANCH  11  12
ENDBRANCH  10  11
ENDBRANCH   9  10
ENDBRANCH   8   9
ENDBRANCH   5   8
ENDBRANCH   2   4
ENDBRANCH   1   2
BRANCH   1  15
ATOM     15  O   UNL     1       4.405   2.036  18.250  0.00  0.00    +0.000 OA
ATOM     16  H   UNL     1       4.942   2.753  17.874  0.00  0.00    +0.000 HD
ENDBRANCH   1  15
BRANCH   1  17
ATOM     17  C   UNL     1       2.309   2.042  19.444  0.00  0.00    +0.000 C 
BRANCH  17  18
ATOM     18  C   UNL     1       2.811   2.788  20.682  0.00  0.00    +0.000 C 
BRANCH  18  19
ATOM     19  C   UNL     1       1.803   3.832  21.147  0.00  0.00    +0.000 C 
BRANCH  19  20
ATOM     20  C   UNL     1       2.349   5.239  20.942  0.00  0.00    +0.000 C 
BRANCH  20  21
ATOM     21  C   UNL     1       1.219   6.233  20.792  0.00  0.00    +0.000 C 
BRANCH  21  22
ATOM     22  C   UNL     1       1.784   7.635  20.650  0.00  0.00    +0.000 C 
BRANCH  22  23
ATOM     23  C   UNL     1       0.994   8.589  21.527  0.00  0.00    +0.000 C 
BRANCH  23  24
ATOM     24  C   UNL     1       0.980   9.980  20.918  0.00  0.00    +0.000 C 
BRANCH  24  25
ATOM     25  C   UNL     1       0.319   9.940  19.551  0.00  0.00    +0.000 C 
BRANCH  25  26
ATOM     26  C   UNL     1      -1.185  10.110  19.688  0.00  0.00    +0.000 C 
BRANCH  26  27
ATOM     27  C   UNL     1      -1.625  11.451  19.118  0.00  0.00    +0.000 C 
BRANCH  27  28
ATOM     28  C   UNL     1      -1.793  11.358  17.607  0.00  0.00    +0.000 C 
BRANCH  28  30
ATOM     29  C   UNL     1      -2.714   9.989  15.722  0.00  0.00    +0.000 C 
ATOM     30  C   UNL     1      -2.674  10.174  17.229  0.00  0.00    +0.000 C 
ENDBRANCH  28  30
ENDBRANCH  27  28
ENDBRANCH  26  27
ENDBRANCH  25  26
ENDBRANCH  24  25
ENDBRANCH  23  24
ENDBRANCH  22  23
ENDBRANCH  21  22
ENDBRANCH  20  21
ENDBRANCH  19  20
ENDBRANCH  18  19
ENDBRANCH  17  18
ENDBRANCH   1  17
TORSDOF 22
ENDMDL
MODEL 5
REMARK VINA RESULT:      -5.7      2.226      3.858
REMARK  Name = 
REMARK  25 active torsions:
REMARK  status: ('A' for Active; 'I' for Inactive)
REMARK    1  A    between atoms: C_1  and  C_2
REMARK    2  A    between atoms: C_2  and  C_3
REMARK    3  A    between atoms: C_3  and  C_4
REMARK    4  A    between atoms: C_4  and  C_5
REMARK    5  A    between atoms: C_5  and  C_6
REMARK    6  A    between atoms: C_6  and  C_7
REMARK    7  A    between atoms: C_7  and  C_8
REMARK    8  A    between atoms: C_8  and  C_9
REMARK    9  A    between atoms: C_9  and  C_10
REMARK   10  A    between atoms: C_10  and  C_11
REMARK   11  A    between atoms: C_11  and  C_12
REMARK   12  A    between atoms: C_12  and  C_13
REMARK   13  A    between atoms: C_13  and  C_14
REMARK   14  A    between atoms: C_14  and  C_15
REMARK   15  A    between atoms: C_15  and  O_16
REMARK   16  A    between atoms: C_15  and  C_17
REMARK   17  A    between atoms: C_17  and  C_18
REMARK   18  A    between atoms: C_17  and  N_19
REMARK   19  A    between atoms: C_20  and  C_22
REMARK   20  A    between atoms: C_22  and  C_23
REMARK   21  A    between atoms: C_23  and  C_24
REMARK   22  A    between atoms: C_24  and  C_25
REMARK   23  A    between atoms: C_25  and  C_26
REMARK   24  A    between atoms: C_26  and  C_27
REMARK   25  A    between atoms: C_27  and  C_28
REMARK                            x       y       z     vdW  Elec       q    Type
REMARK                         _______ _______ _______ _____ _____    ______ ____
ROOT
ATOM      1  C   UNL     1       4.151   4.171  18.858  0.00  0.00    +0.000 C 
ENDROOT
BRANCH   1   2
ATOM      2  C   UNL     1       3.476   4.085  17.459  0.00  0.00    +0.000 C 
ATOM      3  C   UNL     1       2.183   3.274  17.527  0.00  0.00    +0.000 C 
BRANCH   2   4
ATOM      4  N   UNL     1       4.371   3.539  16.434  0.00  0.00    +0.000 N 
ATOM      5  C   UNL     1       5.257   4.370  15.769  0.00  0.00    +0.000 C 
ATOM      6  O   UNL     1       5.368   5.564  15.983  0.00  0.00    +0.000 OA
ATOM      7  H   UNL     1       4.328   2.553  16.211  0.00  0.00    +0.000 HD
BRANCH   5   8
ATOM      8  C   UNL     1       6.115   3.664  14.743  0.00  0.00    +0.000 C 
BRANCH   8   9
ATOM      9  C   UNL     1       6.663   4.654  13.730  0.00  0.00    +0.000 C 
BRANCH   9  10
ATOM     10  C   UNL     1       6.770   4.040  12.341  0.00  0.00    +0.000 C 
BRANCH  10  11
ATOM     11  C   UNL     1       5.635   3.041  12.114  0.00  0.00    +0.000 C 
BRANCH  11  12
ATOM     12  C   UNL     1       4.331   3.761  11.788  0.00  0.00    +0.000 C 
BRANCH  12  13
ATOM     13  C   UNL     1       3.565   3.044  10.679  0.00  0.00    +0.000 C 
ATOM     14  C   UNL     1       3.067   4.030   9.635  0.00  0.00    +0.000 C 
ENDBRANCH  12  13
ENDBRANCH  11  12
ENDBRANCH  10  11
ENDBRANCH   9  10
ENDBRANCH   8   9
ENDBRANCH   5   8
ENDBRANCH   2   4
ENDBRANCH   1   2
BRANCH   1  15
ATOM     15  O   UNL     1       5.503   3.708  18.826  0.00  0.00    +0.000 OA
ATOM     16  H   UNL     1       5.990   4.287  18.217  0.00  0.00    +0.000 HD
ENDBRANCH   1  15
BRANCH   1  17
ATOM     17  C   UNL     1       4.110   5.577  19.447  0.00  0.00    +0.000 C 
BRANCH  17  18
ATOM     18  C   UNL     1       3.390   6.583  18.547  0.00  0.00    +0.000 C 
BRANCH  18  19
ATOM     19  C   UNL     1       2.342   7.371  19.323  0.00  0.00    +0.000 C 
BRANCH  19  20
ATOM     20  C   UNL     1       1.926   8.619  18.557  0.00  0.00    +0.000 C 
BRANCH  20  21
ATOM     21  C   UNL     1       0.900   9.409  19.339  0.00  0.00    +0.000 C 
BRANCH  21  22
ATOM     22  C   UNL     1       1.382  10.838  19.522  0.00  0.00    +0.000 C 
BRANCH  22  23
ATOM     23  C   UNL     1       0.486  11.777  18.735  0.00  0.00    +0.000 C 
BRANCH  23  24
ATOM     24  C   UNL     1      -0.975  11.453  18.991  0.00  0.00    +0.000 C 
BRANCH  24  25
ATOM     25  C   UNL     1      -1.743  11.452  17.681  0.00  0.00    +0.000 C 
BRANCH  25  26
ATOM     26  C   UNL     1      -2.194  10.042  17.335  0.00  0.00    +0.000 C 
BRANCH  26  27
ATOM     27  C   UNL     1      -3.692  10.012  17.066  0.00  0.00    +0.000 C 
BRANCH  27  28
ATOM     28  C   UNL     1      -4.304  11.386  17.313  0.00  0.00    +0.000 C 
BRANCH  28  30
ATOM     29  C   UNL     1      -6.585  10.993  18.272  0.00  0.00    +0.000 C 
ATOM     30  C   UNL     1      -5.151  11.386  18.580  0.00  0.00    +0.000 C 
ENDBRANCH  28  30
ENDBRANCH  27  28
ENDBRANCH  26  27
ENDBRANCH  25  26
ENDBRANCH  24  25
ENDBRANCH  23  24
ENDBRANCH  22  23
ENDBRANCH  21  22
ENDBRANCH  20  21
ENDBRANCH  19  20
ENDBRANCH  18  19
ENDBRANCH  17  18
ENDBRANCH   1  17
TORSDOF 22
ENDMDL
MODEL 6
REMARK VINA RESULT:      -5.7      2.386      8.741
REMARK  Name = 
REMARK  25 active torsions:
REMARK  status: ('A' for Active; 'I' for Inactive)
REMARK    1  A    between atoms: C_1  and  C_2
REMARK    2  A    between atoms: C_2  and  C_3
REMARK    3  A    between atoms: C_3  and  C_4
REMARK    4  A    between atoms: C_4  and  C_5
REMARK    5  A    between atoms: C_5  and  C_6
REMARK    6  A    between atoms: C_6  and  C_7
REMARK    7  A    between atoms: C_7  and  C_8
REMARK    8  A    between atoms: C_8  and  C_9
REMARK    9  A    between atoms: C_9  and  C_10
REMARK   10  A    between atoms: C_10  and  C_11
REMARK   11  A    between atoms: C_11  and  C_12
REMARK   12  A    between atoms: C_12  and  C_13
REMARK   13  A    between atoms: C_13  and  C_14
REMARK   14  A    between atoms: C_14  and  C_15
REMARK   15  A    between atoms: C_15  and  O_16
REMARK   16  A    between atoms: C_15  and  C_17
REMARK   17  A    between atoms: C_17  and  C_18
REMARK   18  A    between atoms: C_17  and  N_19
REMARK   19  A    between atoms: C_20  and  C_22
REMARK   20  A    between atoms: C_22  and  C_23
REMARK   21  A    between atoms: C_23  and  C_24
REMARK   22  A    between atoms: C_24  and  C_25
REMARK   23  A    between atoms: C_25  and  C_26
REMARK   24  A    between atoms: C_26  and  C_27
REMARK   25  A    between atoms: C_27  and  C_28
REMARK                            x       y       z     vdW  Elec       q    Type
REMARK                         _______ _______ _______ _____ _____    ______ ____
ROOT
ATOM      1  C   UNL     1       3.258   5.597  19.757  0.00  0.00    +0.000 C 
ENDROOT
BRANCH   1   2
ATOM      2  C   UNL     1       2.046   5.818  18.806  0.00  0.00    +0.000 C 
ATOM      3  C   UNL     1       1.955   4.696  17.772  0.00  0.00    +0.000 C 
BRANCH   2   4
ATOM      4  N   UNL     1       2.080   7.125  18.144  0.00  0.00    +0.000 N 
ATOM      5  C   UNL     1       1.846   8.280  18.871  0.00  0.00    +0.000 C 
ATOM      6  O   UNL     1       1.618   8.301  20.067  0.00  0.00    +0.000 OA
ATOM      7  H   UNL     1       2.266   7.174  17.150  0.00  0.00    +0.000 HD
BRANCH   5   8
ATOM      8  C   UNL     1       1.916   9.550  18.052  0.00  0.00    +0.000 C 
BRANCH   8   9
ATOM      9  C   UNL     1       0.717  10.438  18.338  0.00  0.00    +0.000 C 
BRANCH   9  10
ATOM     10  C   UNL     1      -0.579   9.815  17.838  0.00  0.00    +0.000 C 
BRANCH  10  11
ATOM     11  C   UNL     1      -1.779  10.456  18.535  0.00  0.00    +0.000 C 
BRANCH  11  12
ATOM     12  C   UNL     1      -3.063  10.211  17.750  0.00  0.00    +0.000 C 
BRANCH  12  13
ATOM     13  C   UNL     1      -2.762   9.778  16.318  0.00  0.00    +0.000 C 
ATOM     14  C   UNL     1      -3.170  10.854  15.325  0.00  0.00    +0.000 C 
ENDBRANCH  12  13
ENDBRANCH  11  12
ENDBRANCH  10  11
ENDBRANCH   9  10
ENDBRANCH   8   9
ENDBRANCH   5   8
ENDBRANCH   2   4
ENDBRANCH   1   2
BRANCH   1  15
ATOM     15  O   UNL     1       3.228   4.305  20.367  0.00  0.00    +0.000 OA
ATOM     16  H   UNL     1       2.403   3.876  20.086  0.00  0.00    +0.000 HD
ENDBRANCH   1  15
BRANCH   1  17
ATOM     17  C   UNL     1       4.600   5.799  19.059  0.00  0.00    +0.000 C 
BRANCH  17  18
ATOM     18  C   UNL     1       5.617   4.706  19.392  0.00  0.00    +0.000 C 
BRANCH  18  19
ATOM     19  C   UNL     1       6.992   5.038  18.823  0.00  0.00    +0.000 C 
BRANCH  19  20
ATOM     20  C   UNL     1       6.933   6.291  17.960  0.00  0.00    +0.000 C 
BRANCH  20  21
ATOM     21  C   UNL     1       7.340   5.979  16.538  0.00  0.00    +0.000 C 
BRANCH  21  22
ATOM     22  C   UNL     1       7.055   4.519  16.230  0.00  0.00    +0.000 C 
BRANCH  22  23
ATOM     23  C   UNL     1       5.612   4.370  15.786  0.00  0.00    +0.000 C 
BRANCH  23  24
ATOM     24  C   UNL     1       5.468   4.736  14.320  0.00  0.00    +0.000 C 
BRANCH  24  25
ATOM     25  C   UNL     1       6.630   4.164  13.526  0.00  0.00    +0.000 C 
BRANCH  25  26
ATOM     26  C   UNL     1       6.120   3.223  12.447  0.00  0.00    +0.000 C 
BRANCH  26  27
ATOM     27  C   UNL     1       4.741   3.655  11.971  0.00  0.00    +0.000 C 
BRANCH  27  28
ATOM     28  C   UNL     1       4.166   2.628  11.004  0.00  0.00    +0.000 C 
BRANCH  28  30
ATOM     29  C   UNL     1       3.073   4.380   9.585  0.00  0.00    +0.000 C 
ATOM     30  C   UNL     1       2.854   3.119  10.403  0.00  0.00    +0.000 C 
ENDBRANCH  28  30
ENDBRANCH  27  28
ENDBRANCH  26  27
ENDBRANCH  25  26
ENDBRANCH  24  25
ENDBRANCH  23  24
ENDBRANCH  22  23
ENDBRANCH  21  22
ENDBRANCH  20  21
ENDBRANCH  19  20
ENDBRANCH  18  19
ENDBRANCH  17  18
ENDBRANCH   1  17
TORSDOF 22
ENDMDL
MODEL 7
REMARK VINA RESULT:      -5.7      2.904      6.215
REMARK  Name = 
REMARK  25 active torsions:
REMARK  status: ('A' for Active; 'I' for Inactive)
REMARK    1  A    between atoms: C_1  and  C_2
REMARK    2  A    between atoms: C_2  and  C_3
REMARK    3  A    between atoms: C_3  and  C_4
REMARK    4  A    between atoms: C_4  and  C_5
REMARK    5  A    between atoms: C_5  and  C_6
REMARK    6  A    between atoms: C_6  and  C_7
REMARK    7  A    between atoms: C_7  and  C_8
REMARK    8  A    between atoms: C_8  and  C_9
REMARK    9  A    between atoms: C_9  and  C_10
REMARK   10  A    between atoms: C_10  and  C_11
REMARK   11  A    between atoms: C_11  and  C_12
REMARK   12  A    between atoms: C_12  and  C_13
REMARK   13  A    between atoms: C_13  and  C_14
REMARK   14  A    between atoms: C_14  and  C_15
REMARK   15  A    between atoms: C_15  and  O_16
REMARK   16  A    between atoms: C_15  and  C_17
REMARK   17  A    between atoms: C_17  and  C_18
REMARK   18  A    between atoms: C_17  and  N_19
REMARK   19  A    between atoms: C_20  and  C_22
REMARK   20  A    between atoms: C_22  and  C_23
REMARK   21  A    between atoms: C_23  and  C_24
REMARK   22  A    between atoms: C_24  and  C_25
REMARK   23  A    between atoms: C_25  and  C_26
REMARK   24  A    between atoms: C_26  and  C_27
REMARK   25  A    between atoms: C_27  and  C_28
REMARK                            x       y       z     vdW  Elec       q    Type
REMARK                         _______ _______ _______ _____ _____    ______ ____
ROOT
ATOM      1  C   UNL     1       5.892   6.229  17.305  0.00  0.00    +0.000 C 
ENDROOT
BRANCH   1   2
ATOM      2  C   UNL     1       6.358   4.773  17.015  0.00  0.00    +0.000 C 
ATOM      3  C   UNL     1       7.171   4.709  15.723  0.00  0.00    +0.000 C 
BRANCH   2   4
ATOM      4  N   UNL     1       5.243   3.824  16.968  0.00  0.00    +0.000 N 
ATOM      5  C   UNL     1       4.741   3.280  18.139  0.00  0.00    +0.000 C 
ATOM      6  O   UNL     1       5.159   3.546  19.252  0.00  0.00    +0.000 OA
ATOM      7  H   UNL     1       4.849   3.563  16.074  0.00  0.00    +0.000 HD
BRANCH   5   8
ATOM      8  C   UNL     1       3.592   2.319  17.931  0.00  0.00    +0.000 C 
BRANCH   8   9
ATOM      9  C   UNL     1       2.291   3.077  17.728  0.00  0.00    +0.000 C 
BRANCH   9  10
ATOM     10  C   UNL     1       1.159   2.488  18.559  0.00  0.00    +0.000 C 
BRANCH  10  11
ATOM     11  C   UNL     1       1.387   2.776  20.043  0.00  0.00    +0.000 C 
BRANCH  11  12
ATOM     12  C   UNL     1       0.905   4.176  20.409  0.00  0.00    +0.000 C 
BRANCH  12  13
ATOM     13  C   UNL     1       2.066   5.065  20.846  0.00  0.00    +0.000 C 
ATOM     14  C   UNL     1       1.667   6.531  20.827  0.00  0.00    +0.000 C 
ENDBRANCH  12  13
ENDBRANCH  11  12
ENDBRANCH  10  11
ENDBRANCH   9  10
ENDBRANCH   8   9
ENDBRANCH   5   8
ENDBRANCH   2   4
ENDBRANCH   1   2
BRANCH   1  15
ATOM     15  O   UNL     1       6.900   7.187  16.972  0.00  0.00    +0.000 OA
ATOM     16  H   UNL     1       6.699   7.997  17.469  0.00  0.00    +0.000 HD
ENDBRANCH   1  15
BRANCH   1  17
ATOM     17  C   UNL     1       4.594   6.587  16.587  0.00  0.00    +0.000 C 
BRANCH  17  18
ATOM     18  C   UNL     1       3.397   6.695  17.533  0.00  0.00    +0.000 C 
BRANCH  18  19
ATOM     19  C   UNL     1       3.163   8.137  17.968  0.00  0.00    +0.000 C 
BRANCH  19  20
ATOM     20  C   UNL     1       1.725   8.557  17.696  0.00  0.00    +0.000 C 
BRANCH  20  21
ATOM     21  C   UNL     1       1.491   9.982  18.149  0.00  0.00    +0.000 C 
BRANCH  21  22
ATOM     22  C   UNL     1       0.912   9.986  19.553  0.00  0.00    +0.000 C 
BRANCH  22  23
ATOM     23  C   UNL     1      -0.592  10.174  19.478  0.00  0.00    +0.000 C 
BRANCH  23  24
ATOM     24  C   UNL     1      -1.025  11.334  20.356  0.00  0.00    +0.000 C 
BRANCH  24  25
ATOM     25  C   UNL     1      -2.094  12.149  19.649  0.00  0.00    +0.000 C 
BRANCH  25  26
ATOM     26  C   UNL     1      -2.671  13.193  20.591  0.00  0.00    +0.000 C 
BRANCH  26  27
ATOM     27  C   UNL     1      -3.299  12.526  21.807  0.00  0.00    +0.000 C 
BRANCH  27  28
ATOM     28  C   UNL     1      -4.710  13.053  22.033  0.00  0.00    +0.000 C 
BRANCH  28  30
ATOM     29  C   UNL     1      -6.294  12.841  23.963  0.00  0.00    +0.000 C 
ATOM     30  C   UNL     1      -4.945  13.367  23.506  0.00  0.00    +0.000 C 
ENDBRANCH  28  30
ENDBRANCH  27  28
ENDBRANCH  26  27
ENDBRANCH  25  26
ENDBRANCH  24  25
ENDBRANCH  23  24
ENDBRANCH  22  23
ENDBRANCH  21  22
ENDBRANCH  20  21
ENDBRANCH  19  20
ENDBRANCH  18  19
ENDBRANCH  17  18
ENDBRANCH   1  17
TORSDOF 22
ENDMDL
MODEL 8
REMARK VINA RESULT:      -5.6      4.267      7.823
REMARK  Name = 
REMARK  25 active torsions:
REMARK  status: ('A' for Active; 'I' for Inactive)
REMARK    1  A    between atoms: C_1  and  C_2
REMARK    2  A    between atoms: C_2  and  C_3
REMARK    3  A    between atoms: C_3  and  C_4
REMARK    4  A    between atoms: C_4  and  C_5
REMARK    5  A    between atoms: C_5  and  C_6
REMARK    6  A    between atoms: C_6  and  C_7
REMARK    7  A    between atoms: C_7  and  C_8
REMARK    8  A    between atoms: C_8  and  C_9
REMARK    9  A    between atoms: C_9  and  C_10
REMARK   10  A    between atoms: C_10  and  C_11
REMARK   11  A    between atoms: C_11  and  C_12
REMARK   12  A    between atoms: C_12  and  C_13
REMARK   13  A    between atoms: C_13  and  C_14
REMARK   14  A    between atoms: C_14  and  C_15
REMARK   15  A    between atoms: C_15  and  O_16
REMARK   16  A    between atoms: C_15  and  C_17
REMARK   17  A    between atoms: C_17  and  C_18
REMARK   18  A    between atoms: C_17  and  N_19
REMARK   19  A    between atoms: C_20  and  C_22
REMARK   20  A    between atoms: C_22  and  C_23
REMARK   21  A    between atoms: C_23  and  C_24
REMARK   22  A    between atoms: C_24  and  C_25
REMARK   23  A    between atoms: C_25  and  C_26
REMARK   24  A    between atoms: C_26  and  C_27
REMARK   25  A    between atoms: C_27  and  C_28
REMARK                            x       y       z     vdW  Elec       q    Type
REMARK                         _______ _______ _______ _____ _____    ______ ____
ROOT
ATOM      1  C   UNL     1       5.690   5.294  18.204  0.00  0.00    +0.000 C 
ENDROOT
BRANCH   1   2
ATOM      2  C   UNL     1       7.070   5.639  17.574  0.00  0.00    +0.000 C 
ATOM      3  C   UNL     1       7.911   4.378  17.380  0.00  0.00    +0.000 C 
BRANCH   2   4
ATOM      4  N   UNL     1       7.812   6.636  18.351  0.00  0.00    +0.000 N 
ATOM      5  C   UNL     1       7.912   7.941  17.897  0.00  0.00    +0.000 C 
ATOM      6  O   UNL     1       7.402   8.348  16.868  0.00  0.00    +0.000 OA
ATOM      7  H   UNL     1       8.257   6.360  19.217  0.00  0.00    +0.000 HD
BRANCH   5   8
ATOM      8  C   UNL     1       8.705   8.852  18.806  0.00  0.00    +0.000 C 
BRANCH   8   9
ATOM      9  C   UNL     1       8.826  10.239  18.200  0.00  0.00    +0.000 C 
BRANCH   9  10
ATOM     10  C   UNL     1       9.964  11.032  18.828  0.00  0.00    +0.000 C 
BRANCH  10  11
ATOM     11  C   UNL     1       9.408  12.140  19.721  0.00  0.00    +0.000 C 
BRANCH  11  12
ATOM     12  C   UNL     1      10.233  12.282  20.996  0.00  0.00    +0.000 C 
BRANCH  12  13
ATOM     13  C   UNL     1       9.374  12.765  22.161  0.00  0.00    +0.000 C 
ATOM     14  C   UNL     1       8.330  11.726  22.536  0.00  0.00    +0.000 C 
ENDBRANCH  12  13
ENDBRANCH  11  12
ENDBRANCH  10  11
ENDBRANCH   9  10
ENDBRANCH   8   9
ENDBRANCH   5   8
ENDBRANCH   2   4
ENDBRANCH   1   2
BRANCH   1  15
ATOM     15  O   UNL     1       5.828   4.496  19.382  0.00  0.00    +0.000 OA
ATOM     16  H   UNL     1       6.778   4.413  19.561  0.00  0.00    +0.000 HD
ENDBRANCH   1  15
BRANCH   1  17
ATOM     17  C   UNL     1       4.862   6.534  18.525  0.00  0.00    +0.000 C 
BRANCH  17  18
ATOM     18  C   UNL     1       4.103   7.077  17.312  0.00  0.00    +0.000 C 
BRANCH  18  19
ATOM     19  C   UNL     1       3.039   8.085  17.731  0.00  0.00    +0.000 C 
BRANCH  19  20
ATOM     20  C   UNL     1       1.837   7.380  18.345  0.00  0.00    +0.000 C 
BRANCH  20  21
ATOM     21  C   UNL     1       1.930   7.385  19.854  0.00  0.00    +0.000 C 
BRANCH  21  22
ATOM     22  C   UNL     1       2.619   6.119  20.332  0.00  0.00    +0.000 C 
BRANCH  22  23
ATOM     23  C   UNL     1       1.606   5.219  21.013  0.00  0.00    +0.000 C 
BRANCH  23  24
ATOM     24  C   UNL     1       2.268   3.935  21.480  0.00  0.00    +0.000 C 
BRANCH  24  25
ATOM     25  C   UNL     1       1.439   2.737  21.048  0.00  0.00    +0.000 C 
BRANCH  25  26
ATOM     26  C   UNL     1       0.512   3.122  19.906  0.00  0.00    +0.000 C 
BRANCH  26  27
ATOM     27  C   UNL     1       1.019   2.548  18.591  0.00  0.00    +0.000 C 
BRANCH  27  28
ATOM     28  C   UNL     1       1.669   3.639  17.749  0.00  0.00    +0.000 C 
BRANCH  28  30
ATOM     29  C   UNL     1       3.633   2.103  18.003  0.00  0.00    +0.000 C 
ATOM     30  C   UNL     1       2.965   3.142  17.119  0.00  0.00    +0.000 C 
ENDBRANCH  28  30
ENDBRANCH  27  28
ENDBRANCH  26  27
ENDBRANCH  25  26
ENDBRANCH  24  25
ENDBRANCH  23  24
ENDBRANCH  22  23
ENDBRANCH  21  22
ENDBRANCH  20  21
ENDBRANCH  19  20
ENDBRANCH  18  19
ENDBRANCH  17  18
ENDBRANCH   1  17
TORSDOF 22
ENDMDL
MODEL 9
REMARK VINA RESULT:      -5.6      4.038      9.080
REMARK  Name = 
REMARK  25 active torsions:
REMARK  status: ('A' for Active; 'I' for Inactive)
REMARK    1  A    between atoms: C_1  and  C_2
REMARK    2  A    between atoms: C_2  and  C_3
REMARK    3  A    between atoms: C_3  and  C_4
REMARK    4  A    between atoms: C_4  and  C_5
REMARK    5  A    between atoms: C_5  and  C_6
REMARK    6  A    between atoms: C_6  and  C_7
REMARK    7  A    between atoms: C_7  and  C_8
REMARK    8  A    between atoms: C_8  and  C_9
REMARK    9  A    between atoms: C_9  and  C_10
REMARK   10  A    between atoms: C_10  and  C_11
REMARK   11  A    between atoms: C_11  and  C_12
REMARK   12  A    between atoms: C_12  and  C_13
REMARK   13  A    between atoms: C_13  and  C_14
REMARK   14  A    between atoms: C_14  and  C_15
REMARK   15  A    between atoms: C_15  and  O_16
REMARK   16  A    between atoms: C_15  and  C_17
REMARK   17  A    between atoms: C_17  and  C_18
REMARK   18  A    between atoms: C_17  and  N_19
REMARK   19  A    between atoms: C_20  and  C_22
REMARK   20  A    between atoms: C_22  and  C_23
REMARK   21  A    between atoms: C_23  and  C_24
REMARK   22  A    between atoms: C_24  and  C_25
REMARK   23  A    between atoms: C_25  and  C_26
REMARK   24  A    between atoms: C_26  and  C_27
REMARK   25  A    between atoms: C_27  and  C_28
REMARK                            x       y       z     vdW  Elec       q    Type
REMARK                         _______ _______ _______ _____ _____    ______ ____
ROOT
ATOM      1  C   UNL     1       2.031   8.102  19.920  0.00  0.00    +0.000 C 
ENDROOT
BRANCH   1   2
ATOM      2  C   UNL     1       0.975   9.134  20.410  0.00  0.00    +0.000 C 
ATOM      3  C   UNL     1      -0.001   8.489  21.393  0.00  0.00    +0.000 C 
BRANCH   2   4
ATOM      4  N   UNL     1       0.250   9.766  19.305  0.00  0.00    +0.000 N 
ATOM      5  C   UNL     1      -0.087  11.108  19.369  0.00  0.00    +0.000 C 
ATOM      6  O   UNL     1       0.193  11.840  20.301  0.00  0.00    +0.000 OA
ATOM      7  H   UNL     1      -0.011   9.211  18.500  0.00  0.00    +0.000 HD
BRANCH   5   8
ATOM      8  C   UNL     1      -0.832  11.617  18.156  0.00  0.00    +0.000 C 
BRANCH   8   9
ATOM      9  C   UNL     1      -2.273  11.939  18.508  0.00  0.00    +0.000 C 
BRANCH   9  10
ATOM     10  C   UNL     1      -3.208  10.784  18.174  0.00  0.00    +0.000 C 
BRANCH  10  11
ATOM     11  C   UNL     1      -3.998  11.092  16.903  0.00  0.00    +0.000 C 
BRANCH  11  12
ATOM     12  C   UNL     1      -5.167  12.025  17.197  0.00  0.00    +0.000 C 
BRANCH  12  13
ATOM     13  C   UNL     1      -5.759  11.753  18.578  0.00  0.00    +0.000 C 
ATOM     14  C   UNL     1      -6.813  10.659  18.513  0.00  0.00    +0.000 C 
ENDBRANCH  12  13
ENDBRANCH  11  12
ENDBRANCH  10  11
ENDBRANCH   9  10
ENDBRANCH   8   9
ENDBRANCH   5   8
ENDBRANCH   2   4
ENDBRANCH   1   2
BRANCH   1  15
ATOM     15  O   UNL     1       1.946   6.870  20.639  0.00  0.00    +0.000 OA
ATOM     16  H   UNL     1       1.158   6.404  20.314  0.00  0.00    +0.000 HD
ENDBRANCH   1  15
BRANCH   1  17
ATOM     17  C   UNL     1       1.934   7.824  18.423  0.00  0.00    +0.000 C 
BRANCH  17  18
ATOM     18  C   UNL     1       3.280   7.935  17.705  0.00  0.00    +0.000 C 
BRANCH  18  19
ATOM     19  C   UNL     1       3.791   6.566  17.271  0.00  0.00    +0.000 C 
BRANCH  19  20
ATOM     20  C   UNL     1       5.312   6.553  17.204  0.00  0.00    +0.000 C 
BRANCH  20  21
ATOM     21  C   UNL     1       5.864   5.298  17.842  0.00  0.00    +0.000 C 
BRANCH  21  22
ATOM     22  C   UNL     1       5.437   5.232  19.298  0.00  0.00    +0.000 C 
BRANCH  22  23
ATOM     23  C   UNL     1       4.428   4.113  19.477  0.00  0.00    +0.000 C 
BRANCH  23  24
ATOM     24  C   UNL     1       4.674   3.011  18.463  0.00  0.00    +0.000 C 
BRANCH  24  25
ATOM     25  C   UNL     1       3.355   2.375  18.057  0.00  0.00    +0.000 C 
BRANCH  25  26
ATOM     26  C   UNL     1       2.525   3.356  17.244  0.00  0.00    +0.000 C 
BRANCH  26  27
ATOM     27  C   UNL     1       1.304   3.804  18.035  0.00  0.00    +0.000 C 
BRANCH  27  28
ATOM     28  C   UNL     1       0.959   2.779  19.108  0.00  0.00    +0.000 C 
BRANCH  28  30
ATOM     29  C   UNL     1       1.663   2.668  21.510  0.00  0.00    +0.000 C 
ATOM     30  C   UNL     1       0.857   3.438  20.478  0.00  0.00    +0.000 C 
ENDBRANCH  28  30
ENDBRANCH  27  28
ENDBRANCH  26  27
ENDBRANCH  25  26
ENDBRANCH  24  25
ENDBRANCH  23  24
ENDBRANCH  22  23
ENDBRANCH  21  22
ENDBRANCH  20  21
ENDBRANCH  19  20
ENDBRANCH  18  19
ENDBRANCH  17  18
ENDBRANCH   1  17
TORSDOF 22
ENDMDL
