MODEL 1
REMARK VINA RESULT:      -7.5      0.000      0.000
REMARK  Name = 
REMARK  9 active torsions:
REMARK  status: ('A' for Active; 'I' for Inactive)
REMARK    1  A    between atoms: C_1  and  C_2
REMARK    2  A    between atoms: C_2  and  O_3
REMARK    3  A    between atoms: O_3  and  C_4
REMARK    4  A    between atoms: C_14  and  O_16
REMARK    5  A    between atoms: O_16  and  C_17
REMARK    6  A    between atoms: C_17  and  C_18
REMARK    7  A    between atoms: C_19  and  C_20
REMARK    8  A    between atoms: C_20  and  C_21
REMARK    9  A    between atoms: C_21  and  C_23
REMARK                            x       y       z     vdW  Elec       q    Type
REMARK                         _______ _______ _______ _____ _____    ______ ____
ROOT
ATOM      1  C   UNL     1       2.705   7.197  18.522  0.00  0.00    +0.000 C 
ATOM      2  O   UNL     1       1.744   7.054  19.268  0.00  0.00    +0.000 OA
ATOM      3  N   UNL     1       3.727   6.290  18.381  0.00  0.00    +0.000 N 
ATOM      4  C   UNL     1       3.778   5.045  19.042  0.00  0.00    +0.000 A 
ATOM      5  C   UNL     1       2.782   4.393  19.745  0.00  0.00    +0.000 A 
ATOM      6  C   UNL     1       3.071   3.140  20.287  0.00  0.00    +0.000 A 
ATOM      7  C   UNL     1       4.345   2.574  20.138  0.00  0.00    +0.000 A 
ATOM      8  C   UNL     1       5.353   3.254  19.451  0.00  0.00    +0.000 A 
ATOM      9  C   UNL     1       5.049   4.485  18.902  0.00  0.00    +0.000 A 
ATOM     10  N   UNL     1       5.868   5.359  18.164  0.00  0.00    +0.000 N 
ATOM     11  C   UNL     1       7.235   5.286  18.091  0.00  0.00    +0.000 C 
ATOM     12  O   UNL     1       7.928   4.418  18.610  0.00  0.00    +0.000 OA
ATOM     13  C   UNL     1       4.999   6.432  17.637  0.00  0.00    +0.000 C 
ENDROOT
BRANCH   1  14
ATOM     14  O   UNL     1       2.855   8.304  17.733  0.00  0.00    +0.000 OA
BRANCH  14  16
ATOM     15  C   UNL     1       2.099  10.596  18.096  0.00  0.00    +0.000 C 
ATOM     16  C   UNL     1       1.704   9.172  17.738  0.00  0.00    +0.000 C 
ENDBRANCH  14  16
ENDBRANCH   1  14
BRANCH  11  17
ATOM     17  O   UNL     1       7.769   6.377  17.463  0.00  0.00    +0.000 OA
BRANCH  17  18
ATOM     18  C   UNL     1       8.195   7.425  18.352  0.00  0.00    +0.000 C 
ATOM     19  C   UNL     1       7.907   8.756  17.678  0.00  0.00    +0.000 C 
ENDBRANCH  17  18
ENDBRANCH  11  17
BRANCH  13  20
ATOM     20  C   UNL     1       4.809   6.325  16.113  0.00  0.00    +0.000 C 
BRANCH  20  21
ATOM     21  C   UNL     1       4.883   4.893  15.599  0.00  0.00    +0.000 C 
ATOM     22  O   UNL     1       4.276   3.959  16.116  0.00  0.00    +0.000 OA
BRANCH  21  23
ATOM     23  C   UNL     1       5.733   4.622  14.418  0.00  0.00    +0.000 A 
ATOM     24  C   UNL     1       6.975   5.249  14.286  0.00  0.00    +0.000 A 
ATOM     25  C   UNL     1       7.749   5.021  13.149  0.00  0.00    +0.000 A 
ATOM     26  C   UNL     1       7.288   4.159  12.154  0.00  0.00    +0.000 A 
ATOM     27  C   UNL     1       6.065   3.505  12.302  0.00  0.00    +0.000 A 
ATOM     28  C   UNL     1       5.286   3.728  13.440  0.00  0.00    +0.000 A 
ENDBRANCH  21  23
ENDBRANCH  20  21
ENDBRANCH  13  20
TORSDOF 7
ENDMDL
MODEL 2
REMARK VINA RESULT:      -7.3      1.944      6.261
REMARK  Name = 
REMARK  9 active torsions:
REMARK  status: ('A' for Active; 'I' for Inactive)
REMARK    1  A    between atoms: C_1  and  C_2
REMARK    2  A    between atoms: C_2  and  O_3
REMARK    3  A    between atoms: O_3  and  C_4
REMARK    4  A    between atoms: C_14  and  O_16
REMARK    5  A    between atoms: O_16  and  C_17
REMARK    6  A    between atoms: C_17  and  C_18
REMARK    7  A    between atoms: C_19  and  C_20
REMARK    8  A    between atoms: C_20  and  C_21
REMARK    9  A    between atoms: C_21  and  C_23
REMARK                            x       y       z     vdW  Elec       q    Type
REMARK                         _______ _______ _______ _____ _____    ______ ____
ROOT
ATOM      1  C   UNL     1       6.183   4.907  15.066  0.00  0.00    +0.000 C 
ATOM      2  O   UNL     1       7.214   5.440  14.674  0.00  0.00    +0.000 OA
ATOM      3  N   UNL     1       5.841   4.747  16.387  0.00  0.00    +0.000 N 
ATOM      4  C   UNL     1       6.610   5.222  17.469  0.00  0.00    +0.000 A 
ATOM      5  C   UNL     1       7.680   6.097  17.455  0.00  0.00    +0.000 A 
ATOM      6  C   UNL     1       8.261   6.445  18.676  0.00  0.00    +0.000 A 
ATOM      7  C   UNL     1       7.783   5.900  19.876  0.00  0.00    +0.000 A 
ATOM      8  C   UNL     1       6.720   4.995  19.875  0.00  0.00    +0.000 A 
ATOM      9  C   UNL     1       6.139   4.674  18.663  0.00  0.00    +0.000 A 
ATOM     10  N   UNL     1       5.064   3.808  18.390  0.00  0.00    +0.000 N 
ATOM     11  C   UNL     1       4.561   2.877  19.262  0.00  0.00    +0.000 C 
ATOM     12  O   UNL     1       4.937   2.709  20.417  0.00  0.00    +0.000 OA
ATOM     13  C   UNL     1       4.710   3.986  16.967  0.00  0.00    +0.000 C 
ENDROOT
BRANCH   1  14
ATOM     14  O   UNL     1       5.247   4.410  14.203  0.00  0.00    +0.000 OA
BRANCH  14  16
ATOM     15  C   UNL     1       4.750   3.374  12.048  0.00  0.00    +0.000 C 
ATOM     16  C   UNL     1       5.817   3.709  13.079  0.00  0.00    +0.000 C 
ENDBRANCH  14  16
ENDBRANCH   1  14
BRANCH  11  17
ATOM     17  O   UNL     1       3.652   2.055  18.657  0.00  0.00    +0.000 OA
BRANCH  17  18
ATOM     18  C   UNL     1       2.449   1.838  19.416  0.00  0.00    +0.000 C 
ATOM     19  C   UNL     1       1.270   2.253  18.552  0.00  0.00    +0.000 C 
ENDBRANCH  17  18
ENDBRANCH  11  17
BRANCH  13  20
ATOM     20  C   UNL     1       3.361   4.706  16.793  0.00  0.00    +0.000 C 
BRANCH  20  21
ATOM     21  C   UNL     1       3.392   6.157  17.254  0.00  0.00    +0.000 C 
ATOM     22  O   UNL     1       3.964   7.050  16.635  0.00  0.00    +0.000 OA
BRANCH  21  23
ATOM     23  C   UNL     1       2.698   6.500  18.517  0.00  0.00    +0.000 A 
ATOM     24  C   UNL     1       2.368   5.498  19.434  0.00  0.00    +0.000 A 
ATOM     25  C   UNL     1       1.676   5.826  20.599  0.00  0.00    +0.000 A 
ATOM     26  C   UNL     1       1.326   7.152  20.852  0.00  0.00    +0.000 A 
ATOM     27  C   UNL     1       1.687   8.157  19.953  0.00  0.00    +0.000 A 
ATOM     28  C   UNL     1       2.382   7.835  18.786  0.00  0.00    +0.000 A 
ENDBRANCH  21  23
ENDBRANCH  20  21
ENDBRANCH  13  20
TORSDOF 7
ENDMDL
MODEL 3
REMARK VINA RESULT:      -7.1      5.266      8.960
REMARK  Name = 
REMARK  9 active torsions:
REMARK  status: ('A' for Active; 'I' for Inactive)
REMARK    1  A    between atoms: C_1  and  C_2
REMARK    2  A    between atoms: C_2  and  O_3
REMARK    3  A    between atoms: O_3  and  C_4
REMARK    4  A    between atoms: C_14  and  O_16
REMARK    5  A    between atoms: O_16  and  C_17
REMARK    6  A    between atoms: C_17  and  C_18
REMARK    7  A    between atoms: C_19  and  C_20
REMARK    8  A    between atoms: C_20  and  C_21
REMARK    9  A    between atoms: C_21  and  C_23
REMARK                            x       y       z     vdW  Elec       q    Type
REMARK                         _______ _______ _______ _____ _____    ______ ____
ROOT
ATOM      1  C   UNL     1      -2.564  11.533  18.456  0.00  0.00    +0.000 C 
ATOM      2  O   UNL     1      -3.767  11.750  18.367  0.00  0.00    +0.000 OA
ATOM      3  N   UNL     1      -1.784  11.891  19.529  0.00  0.00    +0.000 N 
ATOM      4  C   UNL     1      -2.276  12.511  20.695  0.00  0.00    +0.000 A 
ATOM      5  C   UNL     1      -3.586  12.678  21.104  0.00  0.00    +0.000 A 
ATOM      6  C   UNL     1      -3.818  13.304  22.330  0.00  0.00    +0.000 A 
ATOM      7  C   UNL     1      -2.749  13.769  23.109  0.00  0.00    +0.000 A 
ATOM      8  C   UNL     1      -1.431  13.621  22.673  0.00  0.00    +0.000 A 
ATOM      9  C   UNL     1      -1.212  12.982  21.467  0.00  0.00    +0.000 A 
ATOM     10  N   UNL     1       0.002  12.700  20.815  0.00  0.00    +0.000 N 
ATOM     11  C   UNL     1       1.211  13.271  21.118  0.00  0.00    +0.000 C 
ATOM     12  O   UNL     1       1.414  14.060  22.034  0.00  0.00    +0.000 OA
ATOM     13  C   UNL     1      -0.311  11.820  19.669  0.00  0.00    +0.000 C 
ENDROOT
BRANCH   1  14
ATOM     14  O   UNL     1      -1.866  10.893  17.471  0.00  0.00    +0.000 OA
BRANCH  14  16
ATOM     15  C   UNL     1      -2.815  10.304  15.300  0.00  0.00    +0.000 C 
ATOM     16  C   UNL     1      -2.646   9.911  16.760  0.00  0.00    +0.000 C 
ENDBRANCH  14  16
ENDBRANCH   1  14
BRANCH  11  17
ATOM     17  O   UNL     1       2.168  12.951  20.195  0.00  0.00    +0.000 OA
BRANCH  17  18
ATOM     18  C   UNL     1       2.918  14.076  19.703  0.00  0.00    +0.000 C 
ATOM     19  C   UNL     1       2.122  14.711  18.575  0.00  0.00    +0.000 C 
ENDBRANCH  17  18
ENDBRANCH  11  17
BRANCH  13  20
ATOM     20  C   UNL     1       0.194  10.383  19.890  0.00  0.00    +0.000 C 
BRANCH  20  21
ATOM     21  C   UNL     1       1.245   9.955  18.874  0.00  0.00    +0.000 C 
ATOM     22  O   UNL     1       1.633  10.676  17.959  0.00  0.00    +0.000 OA
BRANCH  21  23
ATOM     23  C   UNL     1       1.821   8.596  19.002  0.00  0.00    +0.000 A 
ATOM     24  C   UNL     1       2.539   8.034  17.943  0.00  0.00    +0.000 A 
ATOM     25  C   UNL     1       3.040   6.738  18.057  0.00  0.00    +0.000 A 
ATOM     26  C   UNL     1       2.834   6.011  19.230  0.00  0.00    +0.000 A 
ATOM     27  C   UNL     1       2.147   6.586  20.301  0.00  0.00    +0.000 A 
ATOM     28  C   UNL     1       1.645   7.885  20.193  0.00  0.00    +0.000 A 
ENDBRANCH  21  23
ENDBRANCH  20  21
ENDBRANCH  13  20
TORSDOF 7
ENDMDL
MODEL 4
REMARK VINA RESULT:      -7.0      6.456     10.428
REMARK  Name = 
REMARK  9 active torsions:
REMARK  status: ('A' for Active; 'I' for Inactive)
REMARK    1  A    between atoms: C_1  and  C_2
REMARK    2  A    between atoms: C_2  and  O_3
REMARK    3  A    between atoms: O_3  and  C_4
REMARK    4  A    between atoms: C_14  and  O_16
REMARK    5  A    between atoms: O_16  and  C_17
REMARK    6  A    between atoms: C_17  and  C_18
REMARK    7  A    between atoms: C_19  and  C_20
REMARK    8  A    between atoms: C_20  and  C_21
REMARK    9  A    between atoms: C_21  and  C_23
REMARK                            x       y       z     vdW  Elec       q    Type
REMARK                         _______ _______ _______ _____ _____    ______ ____
ROOT
ATOM      1  C   UNL     1      -3.834  11.482  17.356  0.00  0.00    +0.000 C 
ATOM      2  O   UNL     1      -4.940  11.337  16.847  0.00  0.00    +0.000 OA
ATOM      3  N   UNL     1      -3.618  11.867  18.656  0.00  0.00    +0.000 N 
ATOM      4  C   UNL     1      -4.643  12.096  19.597  0.00  0.00    +0.000 A 
ATOM      5  C   UNL     1      -5.988  11.785  19.509  0.00  0.00    +0.000 A 
ATOM      6  C   UNL     1      -6.805  12.088  20.599  0.00  0.00    +0.000 A 
ATOM      7  C   UNL     1      -6.276  12.711  21.738  0.00  0.00    +0.000 A 
ATOM      8  C   UNL     1      -4.923  13.047  21.805  0.00  0.00    +0.000 A 
ATOM      9  C   UNL     1      -4.119  12.725  20.727  0.00  0.00    +0.000 A 
ATOM     10  N   UNL     1      -2.741  12.941  20.547  0.00  0.00    +0.000 N 
ATOM     11  C   UNL     1      -1.970  13.790  21.300  0.00  0.00    +0.000 C 
ATOM     12  O   UNL     1      -2.360  14.431  22.269  0.00  0.00    +0.000 OA
ATOM     13  C   UNL     1      -2.341  12.222  19.319  0.00  0.00    +0.000 C 
ENDROOT
BRANCH   1  14
ATOM     14  O   UNL     1      -2.679  11.266  16.658  0.00  0.00    +0.000 OA
BRANCH  14  16
ATOM     15  C   UNL     1      -2.918  10.090  14.532  0.00  0.00    +0.000 C 
ATOM     16  C   UNL     1      -2.627   9.974  16.020  0.00  0.00    +0.000 C 
ENDBRANCH  14  16
ENDBRANCH   1  14
BRANCH  11  17
ATOM     17  O   UNL     1      -0.718  13.941  20.773  0.00  0.00    +0.000 OA
BRANCH  17  18
ATOM     18  C   UNL     1      -0.060  15.165  21.146  0.00  0.00    +0.000 C 
ATOM     19  C   UNL     1       0.579  15.751  19.898  0.00  0.00    +0.000 C 
ENDBRANCH  17  18
ENDBRANCH  11  17
BRANCH  13  20
ATOM     20  C   UNL     1      -1.473  10.990  19.629  0.00  0.00    +0.000 C 
BRANCH  20  21
ATOM     21  C   UNL     1      -0.083  11.066  19.011  0.00  0.00    +0.000 C 
ATOM     22  O   UNL     1       0.362  12.076  18.472  0.00  0.00    +0.000 OA
BRANCH  21  23
ATOM     23  C   UNL     1       0.769   9.856  19.065  0.00  0.00    +0.000 A 
ATOM     24  C   UNL     1       1.422   9.402  17.915  0.00  0.00    +0.000 A 
ATOM     25  C   UNL     1       2.186   8.238  17.967  0.00  0.00    +0.000 A 
ATOM     26  C   UNL     1       2.307   7.536  19.167  0.00  0.00    +0.000 A 
ATOM     27  C   UNL     1       1.684   8.008  20.322  0.00  0.00    +0.000 A 
ATOM     28  C   UNL     1       0.919   9.175  20.278  0.00  0.00    +0.000 A 
ENDBRANCH  21  23
ENDBRANCH  20  21
ENDBRANCH  13  20
TORSDOF 7
ENDMDL
MODEL 5
REMARK VINA RESULT:      -6.9      2.557      5.673
REMARK  Name = 
REMARK  9 active torsions:
REMARK  status: ('A' for Active; 'I' for Inactive)
REMARK    1  A    between atoms: C_1  and  C_2
REMARK    2  A    between atoms: C_2  and  O_3
REMARK    3  A    between atoms: O_3  and  C_4
REMARK    4  A    between atoms: C_14  and  O_16
REMARK    5  A    between atoms: O_16  and  C_17
REMARK    6  A    between atoms: C_17  and  C_18
REMARK    7  A    between atoms: C_19  and  C_20
REMARK    8  A    between atoms: C_20  and  C_21
REMARK    9  A    between atoms: C_21  and  C_23
REMARK                            x       y       z     vdW  Elec       q    Type
REMARK                         _______ _______ _______ _____ _____    ______ ____
ROOT
ATOM      1  C   UNL     1       1.754   6.313  20.518  0.00  0.00    +0.000 C 
ATOM      2  O   UNL     1       1.256   5.601  21.382  0.00  0.00    +0.000 OA
ATOM      3  N   UNL     1       2.269   5.855  19.330  0.00  0.00    +0.000 N 
ATOM      4  C   UNL     1       2.247   4.505  18.924  0.00  0.00    +0.000 A 
ATOM      5  C   UNL     1       1.548   3.445  19.471  0.00  0.00    +0.000 A 
ATOM      6  C   UNL     1       1.667   2.195  18.861  0.00  0.00    +0.000 A 
ATOM      7  C   UNL     1       2.491   2.021  17.741  0.00  0.00    +0.000 A 
ATOM      8  C   UNL     1       3.215   3.092  17.214  0.00  0.00    +0.000 A 
ATOM      9  C   UNL     1       3.074   4.330  17.813  0.00  0.00    +0.000 A 
ATOM     10  N   UNL     1       3.675   5.556  17.478  0.00  0.00    +0.000 N 
ATOM     11  C   UNL     1       4.760   5.703  16.652  0.00  0.00    +0.000 C 
ATOM     12  O   UNL     1       5.320   4.796  16.047  0.00  0.00    +0.000 OA
ATOM     13  C   UNL     1       3.027   6.601  18.298  0.00  0.00    +0.000 C 
ENDROOT
BRANCH   1  14
ATOM     14  O   UNL     1       1.843   7.670  20.657  0.00  0.00    +0.000 OA
BRANCH  14  16
ATOM     15  C   UNL     1       1.091   9.359  22.252  0.00  0.00    +0.000 C 
ATOM     16  C   UNL     1       0.685   8.260  21.282  0.00  0.00    +0.000 C 
ENDBRANCH  14  16
ENDBRANCH   1  14
BRANCH  11  17
ATOM     17  O   UNL     1       5.239   6.984  16.666  0.00  0.00    +0.000 OA
BRANCH  17  18
ATOM     18  C   UNL     1       6.667   7.083  16.813  0.00  0.00    +0.000 C 
ATOM     19  C   UNL     1       7.040   6.491  18.162  0.00  0.00    +0.000 C 
ENDBRANCH  17  18
ENDBRANCH  11  17
BRANCH  13  20
ATOM     20  C   UNL     1       2.129   7.523  17.455  0.00  0.00    +0.000 C 
BRANCH  20  21
ATOM     21  C   UNL     1       2.364   9.002  17.729  0.00  0.00    +0.000 C 
ATOM     22  O   UNL     1       3.465   9.539  17.641  0.00  0.00    +0.000 OA
BRANCH  21  23
ATOM     23  C   UNL     1       1.200   9.829  18.124  0.00  0.00    +0.000 A 
ATOM     24  C   UNL     1      -0.096   9.422  17.797  0.00  0.00    +0.000 A 
ATOM     25  C   UNL     1      -1.182  10.228  18.135  0.00  0.00    +0.000 A 
ATOM     26  C   UNL     1      -0.973  11.432  18.810  0.00  0.00    +0.000 A 
ATOM     27  C   UNL     1       0.319  11.820  19.168  0.00  0.00    +0.000 A 
ATOM     28  C   UNL     1       1.410  11.015  18.834  0.00  0.00    +0.000 A 
ENDBRANCH  21  23
ENDBRANCH  20  21
ENDBRANCH  13  20
TORSDOF 7
ENDMDL
MODEL 6
REMARK VINA RESULT:      -6.9      6.340     10.336
REMARK  Name = 
REMARK  9 active torsions:
REMARK  status: ('A' for Active; 'I' for Inactive)
REMARK    1  A    between atoms: C_1  and  C_2
REMARK    2  A    between atoms: C_2  and  O_3
REMARK    3  A    between atoms: O_3  and  C_4
REMARK    4  A    between atoms: C_14  and  O_16
REMARK    5  A    between atoms: O_16  and  C_17
REMARK    6  A    between atoms: C_17  and  C_18
REMARK    7  A    between atoms: C_19  and  C_20
REMARK    8  A    between atoms: C_20  and  C_21
REMARK    9  A    between atoms: C_21  and  C_23
REMARK                            x       y       z     vdW  Elec       q    Type
REMARK                         _______ _______ _______ _____ _____    ______ ____
ROOT
ATOM      1  C   UNL     1      -3.773  11.537  17.707  0.00  0.00    +0.000 C 
ATOM      2  O   UNL     1      -4.929  11.433  17.315  0.00  0.00    +0.000 OA
ATOM      3  N   UNL     1      -3.409  11.996  18.950  0.00  0.00    +0.000 N 
ATOM      4  C   UNL     1      -4.323  12.362  19.959  0.00  0.00    +0.000 A 
ATOM      5  C   UNL     1      -5.686  12.140  20.019  0.00  0.00    +0.000 A 
ATOM      6  C   UNL     1      -6.374  12.575  21.152  0.00  0.00    +0.000 A 
ATOM      7  C   UNL     1      -5.701  13.238  22.187  0.00  0.00    +0.000 A 
ATOM      8  C   UNL     1      -4.328  13.483  22.104  0.00  0.00    +0.000 A 
ATOM      9  C   UNL     1      -3.654  13.030  20.986  0.00  0.00    +0.000 A 
ATOM     10  N   UNL     1      -2.289  13.137  20.664  0.00  0.00    +0.000 N 
ATOM     11  C   UNL     1      -1.398  13.981  21.277  0.00  0.00    +0.000 C 
ATOM     12  O   UNL     1      -1.652  14.714  22.225  0.00  0.00    +0.000 OA
ATOM     13  C   UNL     1      -2.055  12.307  19.464  0.00  0.00    +0.000 C 
ENDROOT
BRANCH   1  14
ATOM     14  O   UNL     1      -2.706  11.191  16.926  0.00  0.00    +0.000 OA
BRANCH  14  16
ATOM     15  C   UNL     1      -2.742   9.642  15.040  0.00  0.00    +0.000 C 
ATOM     16  C   UNL     1      -3.038  11.051  15.530  0.00  0.00    +0.000 C 
ENDBRANCH  14  16
ENDBRANCH   1  14
BRANCH  11  17
ATOM     17  O   UNL     1      -0.194  14.006  20.627  0.00  0.00    +0.000 OA
BRANCH  17  18
ATOM     18  C   UNL     1       0.245  15.321  20.243  0.00  0.00    +0.000 C 
ATOM     19  C   UNL     1      -0.213  15.569  18.816  0.00  0.00    +0.000 C 
ENDBRANCH  17  18
ENDBRANCH  11  17
BRANCH  13  20
ATOM     20  C   UNL     1      -1.240  11.042  19.787  0.00  0.00    +0.000 C 
BRANCH  20  21
ATOM     21  C   UNL     1       0.099  10.991  19.063  0.00  0.00    +0.000 C 
ATOM     22  O   UNL     1       0.565  11.941  18.438  0.00  0.00    +0.000 OA
BRANCH  21  23
ATOM     23  C   UNL     1       0.871   9.728  19.117  0.00  0.00    +0.000 A 
ATOM     24  C   UNL     1       0.970   9.014  20.314  0.00  0.00    +0.000 A 
ATOM     25  C   UNL     1       1.734   7.850  20.364  0.00  0.00    +0.000 A 
ATOM     26  C   UNL     1       2.387   7.394  19.219  0.00  0.00    +0.000 A 
ATOM     27  C   UNL     1       2.258   8.087  18.015  0.00  0.00    +0.000 A 
ATOM     28  C   UNL     1       1.492   9.253  17.957  0.00  0.00    +0.000 A 
ENDBRANCH  21  23
ENDBRANCH  20  21
ENDBRANCH  13  20
TORSDOF 7
ENDMDL
MODEL 7
REMARK VINA RESULT:      -6.8      6.325     10.118
REMARK  Name = 
REMARK  9 active torsions:
REMARK  status: ('A' for Active; 'I' for Inactive)
REMARK    1  A    between atoms: C_1  and  C_2
REMARK    2  A    between atoms: C_2  and  O_3
REMARK    3  A    between atoms: O_3  and  C_4
REMARK    4  A    between atoms: C_14  and  O_16
REMARK    5  A    between atoms: O_16  and  C_17
REMARK    6  A    between atoms: C_17  and  C_18
REMARK    7  A    between atoms: C_19  and  C_20
REMARK    8  A    between atoms: C_20  and  C_21
REMARK    9  A    between atoms: C_21  and  C_23
REMARK                            x       y       z     vdW  Elec       q    Type
REMARK                         _______ _______ _______ _____ _____    ______ ____
ROOT
ATOM      1  C   UNL     1      -3.320  12.278  18.747  0.00  0.00    +0.000 C 
ATOM      2  O   UNL     1      -4.490  12.369  18.393  0.00  0.00    +0.000 OA
ATOM      3  N   UNL     1      -2.885  12.406  20.043  0.00  0.00    +0.000 N 
ATOM      4  C   UNL     1      -3.735  12.610  21.149  0.00  0.00    +0.000 A 
ATOM      5  C   UNL     1      -5.111  12.501  21.219  0.00  0.00    +0.000 A 
ATOM      6  C   UNL     1      -5.728  12.723  22.451  0.00  0.00    +0.000 A 
ATOM      7  C   UNL     1      -4.969  13.070  23.577  0.00  0.00    +0.000 A 
ATOM      8  C   UNL     1      -3.582  13.206  23.490  0.00  0.00    +0.000 A 
ATOM      9  C   UNL     1      -2.981  12.964  22.269  0.00  0.00    +0.000 A 
ATOM     10  N   UNL     1      -1.620  13.021  21.919  0.00  0.00    +0.000 N 
ATOM     11  C   UNL     1      -0.638  13.620  22.666  0.00  0.00    +0.000 C 
ATOM     12  O   UNL     1      -0.798  14.137  23.766  0.00  0.00    +0.000 OA
ATOM     13  C   UNL     1      -1.495  12.471  20.553  0.00  0.00    +0.000 C 
ENDROOT
BRANCH   1  14
ATOM     14  O   UNL     1      -2.310  12.028  17.861  0.00  0.00    +0.000 OA
BRANCH  14  16
ATOM     15  C   UNL     1      -2.240   9.662  17.262  0.00  0.00    +0.000 C 
ATOM     16  C   UNL     1      -2.660  11.065  16.847  0.00  0.00    +0.000 C 
ENDBRANCH  14  16
ENDBRANCH   1  14
BRANCH  11  17
ATOM     17  O   UNL     1       0.547  13.688  21.986  0.00  0.00    +0.000 OA
BRANCH  17  18
ATOM     18  C   UNL     1       1.109  15.011  21.903  0.00  0.00    +0.000 C 
ATOM     19  C   UNL     1       2.602  14.869  21.664  0.00  0.00    +0.000 C 
ENDBRANCH  17  18
ENDBRANCH  11  17
BRANCH  13  20
ATOM     20  C   UNL     1      -0.797  11.099  20.545  0.00  0.00    +0.000 C 
BRANCH  20  21
ATOM     21  C   UNL     1       0.379  11.031  19.580  0.00  0.00    +0.000 C 
ATOM     22  O   UNL     1       0.794  12.002  18.953  0.00  0.00    +0.000 OA
BRANCH  21  23
ATOM     23  C   UNL     1       1.048   9.724  19.391  0.00  0.00    +0.000 A 
ATOM     24  C   UNL     1       1.147   8.823  20.455  0.00  0.00    +0.000 A 
ATOM     25  C   UNL     1       1.816   7.613  20.278  0.00  0.00    +0.000 A 
ATOM     26  C   UNL     1       2.374   7.300  19.039  0.00  0.00    +0.000 A 
ATOM     27  C   UNL     1       2.244   8.183  17.967  0.00  0.00    +0.000 A 
ATOM     28  C   UNL     1       1.572   9.395  18.137  0.00  0.00    +0.000 A 
ENDBRANCH  21  23
ENDBRANCH  20  21
ENDBRANCH  13  20
TORSDOF 7
ENDMDL
MODEL 8
REMARK VINA RESULT:      -6.8      8.265     12.065
REMARK  Name = 
REMARK  9 active torsions:
REMARK  status: ('A' for Active; 'I' for Inactive)
REMARK    1  A    between atoms: C_1  and  C_2
REMARK    2  A    between atoms: C_2  and  O_3
REMARK    3  A    between atoms: O_3  and  C_4
REMARK    4  A    between atoms: C_14  and  O_16
REMARK    5  A    between atoms: O_16  and  C_17
REMARK    6  A    between atoms: C_17  and  C_18
REMARK    7  A    between atoms: C_19  and  C_20
REMARK    8  A    between atoms: C_20  and  C_21
REMARK    9  A    between atoms: C_21  and  C_23
REMARK                            x       y       z     vdW  Elec       q    Type
REMARK                         _______ _______ _______ _____ _____    ______ ____
ROOT
ATOM      1  C   UNL     1      -5.208  12.542  19.342  0.00  0.00    +0.000 C 
ATOM      2  O   UNL     1      -6.205  12.393  18.645  0.00  0.00    +0.000 OA
ATOM      3  N   UNL     1      -3.953  12.090  19.016  0.00  0.00    +0.000 N 
ATOM      4  C   UNL     1      -3.635  11.436  17.808  0.00  0.00    +0.000 A 
ATOM      5  C   UNL     1      -4.394  11.316  16.659  0.00  0.00    +0.000 A 
ATOM      6  C   UNL     1      -3.839  10.641  15.571  0.00  0.00    +0.000 A 
ATOM      7  C   UNL     1      -2.556  10.082  15.656  0.00  0.00    +0.000 A 
ATOM      8  C   UNL     1      -1.809  10.184  16.831  0.00  0.00    +0.000 A 
ATOM      9  C   UNL     1      -2.361  10.872  17.895  0.00  0.00    +0.000 A 
ATOM     10  N   UNL     1      -1.822  11.124  19.169  0.00  0.00    +0.000 N 
ATOM     11  C   UNL     1      -0.742  10.476  19.711  0.00  0.00    +0.000 C 
ATOM     12  O   UNL     1      -0.061   9.631  19.140  0.00  0.00    +0.000 OA
ATOM     13  C   UNL     1      -2.726  12.077  19.846  0.00  0.00    +0.000 C 
ENDROOT
BRANCH   1  14
ATOM     14  O   UNL     1      -5.251  13.196  20.542  0.00  0.00    +0.000 OA
BRANCH  14  16
ATOM     15  C   UNL     1      -7.196  13.729  21.919  0.00  0.00    +0.000 C 
ATOM     16  C   UNL     1      -6.225  12.653  21.456  0.00  0.00    +0.000 C 
ENDBRANCH  14  16
ENDBRANCH   1  14
BRANCH  11  17
ATOM     17  O   UNL     1      -0.569  10.793  21.030  0.00  0.00    +0.000 OA
BRANCH  17  18
ATOM     18  C   UNL     1       0.390   9.970  21.718  0.00  0.00    +0.000 C 
ATOM     19  C   UNL     1      -0.197   9.598  23.069  0.00  0.00    +0.000 C 
ENDBRANCH  17  18
ENDBRANCH  11  17
BRANCH  13  20
ATOM     20  C   UNL     1      -2.093  13.472  19.989  0.00  0.00    +0.000 C 
BRANCH  20  21
ATOM     21  C   UNL     1      -1.625  13.776  21.405  0.00  0.00    +0.000 C 
ATOM     22  O   UNL     1      -0.478  14.119  21.678  0.00  0.00    +0.000 OA
BRANCH  21  23
ATOM     23  C   UNL     1      -2.609  13.647  22.505  0.00  0.00    +0.000 A 
ATOM     24  C   UNL     1      -3.334  14.761  22.936  0.00  0.00    +0.000 A 
ATOM     25  C   UNL     1      -4.225  14.638  24.001  0.00  0.00    +0.000 A 
ATOM     26  C   UNL     1      -4.400  13.402  24.624  0.00  0.00    +0.000 A 
ATOM     27  C   UNL     1      -3.703  12.282  24.170  0.00  0.00    +0.000 A 
ATOM     28  C   UNL     1      -2.810  12.398  23.103  0.00  0.00    +0.000 A 
ENDBRANCH  21  23
ENDBRANCH  20  21
ENDBRANCH  13  20
TORSDOF 7
ENDMDL
MODEL 9
REMARK VINA RESULT:      -6.8      8.003     10.639
REMARK  Name = 
REMARK  9 active torsions:
REMARK  status: ('A' for Active; 'I' for Inactive)
REMARK    1  A    between atoms: C_1  and  C_2
REMARK    2  A    between atoms: C_2  and  O_3
REMARK    3  A    between atoms: O_3  and  C_4
REMARK    4  A    between atoms: C_14  and  O_16
REMARK    5  A    between atoms: O_16  and  C_17
REMARK    6  A    between atoms: C_17  and  C_18
REMARK    7  A    between atoms: C_19  and  C_20
REMARK    8  A    between atoms: C_20  and  C_21
REMARK    9  A    between atoms: C_21  and  C_23
REMARK                            x       y       z     vdW  Elec       q    Type
REMARK                         _______ _______ _______ _____ _____    ______ ____
ROOT
ATOM      1  C   UNL     1      -1.034  11.049  18.429  0.00  0.00    +0.000 C 
ATOM      2  O   UNL     1      -0.411  10.078  18.016  0.00  0.00    +0.000 OA
ATOM      3  N   UNL     1      -1.214  11.353  19.756  0.00  0.00    +0.000 N 
ATOM      4  C   UNL     1      -0.662  10.614  20.822  0.00  0.00    +0.000 A 
ATOM      5  C   UNL     1       0.308   9.629  20.785  0.00  0.00    +0.000 A 
ATOM      6  C   UNL     1       0.717   9.063  21.993  0.00  0.00    +0.000 A 
ATOM      7  C   UNL     1       0.140   9.469  23.204  0.00  0.00    +0.000 A 
ATOM      8  C   UNL     1      -0.859  10.444  23.228  0.00  0.00    +0.000 A 
ATOM      9  C   UNL     1      -1.242  11.012  22.027  0.00  0.00    +0.000 A 
ATOM     10  N   UNL     1      -2.204  12.007  21.778  0.00  0.00    +0.000 N 
ATOM     11  C   UNL     1      -3.171  12.408  22.665  0.00  0.00    +0.000 C 
ATOM     12  O   UNL     1      -3.295  12.000  23.814  0.00  0.00    +0.000 OA
ATOM     13  C   UNL     1      -2.072  12.400  20.360  0.00  0.00    +0.000 C 
ENDROOT
BRANCH   1  14
ATOM     14  O   UNL     1      -1.621  11.949  17.584  0.00  0.00    +0.000 OA
BRANCH  14  16
ATOM     15  C   UNL     1      -3.876  11.044  17.342  0.00  0.00    +0.000 C 
ATOM     16  C   UNL     1      -2.550  11.347  16.661  0.00  0.00    +0.000 C 
ENDBRANCH  14  16
ENDBRANCH   1  14
BRANCH  11  17
ATOM     17  O   UNL     1      -4.078  13.248  22.080  0.00  0.00    +0.000 OA
BRANCH  17  18
ATOM     18  C   UNL     1      -5.447  12.823  22.206  0.00  0.00    +0.000 C 
ATOM     19  C   UNL     1      -5.895  12.280  20.860  0.00  0.00    +0.000 C 
ENDBRANCH  17  18
ENDBRANCH  11  17
BRANCH  13  20
ATOM     20  C   UNL     1      -1.480  13.812  20.204  0.00  0.00    +0.000 C 
BRANCH  20  21
ATOM     21  C   UNL     1      -0.055  13.925  20.727  0.00  0.00    +0.000 C 
ATOM     22  O   UNL     1       0.238  13.826  21.916  0.00  0.00    +0.000 OA
BRANCH  21  23
ATOM     23  C   UNL     1       1.028  14.171  19.747  0.00  0.00    +0.000 A 
ATOM     24  C   UNL     1       1.788  13.107  19.255  0.00  0.00    +0.000 A 
ATOM     25  C   UNL     1       2.832  13.354  18.365  0.00  0.00    +0.000 A 
ATOM     26  C   UNL     1       3.107  14.660  17.959  0.00  0.00    +0.000 A 
ATOM     27  C   UNL     1       2.326  15.719  18.422  0.00  0.00    +0.000 A 
ATOM     28  C   UNL     1       1.277  15.477  19.312  0.00  0.00    +0.000 A 
ENDBRANCH  21  23
ENDBRANCH  20  21
ENDBRANCH  13  20
TORSDOF 7
ENDMDL
