MODEL 1
REMARK VINA RESULT:      -5.5      0.000      0.000
REMARK  Name = 
REMARK  10 active torsions:
REMARK  status: ('A' for Active; 'I' for Inactive)
REMARK    1  A    between atoms: C_1  and  O_2
REMARK    2  A    between atoms: O_2  and  C_3
REMARK    3  A    between atoms: C_8  and  N_9
REMARK    4  A    between atoms: C_10  and  C_11
REMARK    5  A    between atoms: C_17  and  O_18
REMARK    6  A    between atoms: O_18  and  C_19
REMARK    7  A    between atoms: C_20  and  O_21
REMARK    8  A    between atoms: O_21  and  C_22
REMARK    9  A    between atoms: C_23  and  O_24
REMARK   10  A    between atoms: O_24  and  C_25
REMARK                            x       y       z     vdW  Elec       q    Type
REMARK                         _______ _______ _______ _____ _____    ______ ____
ROOT
ATOM      1  C   UNL     1       7.458  12.289  25.734  0.00  0.00    +0.000 C 
ATOM      2  C   UNL     1       8.578  12.302  24.948  0.00  0.00    +0.000 C 
ATOM      3  C   UNL     1       8.368  11.736  23.451  0.00  0.00    +0.000 C 
ATOM      4  C   UNL     1       7.988  12.679  22.120  0.00  0.00    +0.000 C 
ATOM      5  C   UNL     1       7.074  13.216  22.975  0.00  0.00    +0.000 C 
ATOM      6  C   UNL     1       7.162  14.666  23.499  0.00  0.00    +0.000 C 
ATOM      7  C   UNL     1       6.333  15.475  22.535  0.00  0.00    +0.000 C 
ATOM      8  C   UNL     1       6.542  15.135  21.057  0.00  0.00    +0.000 C 
ATOM      9  C   UNL     1       7.876  14.612  20.517  0.00  0.00    +0.000 A 
ATOM     10  C   UNL     1       8.378  15.383  19.462  0.00  0.00    +0.000 A 
ATOM     11  C   UNL     1       9.391  14.934  18.630  0.00  0.00    +0.000 A 
ATOM     12  C   UNL     1       9.929  13.642  18.844  0.00  0.00    +0.000 A 
ATOM     13  C   UNL     1       9.511  12.863  19.991  0.00  0.00    +0.000 A 
ATOM     14  C   UNL     1       8.518  13.377  20.861  0.00  0.00    +0.000 A 
ATOM     15  C   UNL     1       6.794  11.759  23.475  0.00  0.00    +0.000 C 
ATOM     16  C   UNL     1       6.324  11.774  24.925  0.00  0.00    +0.000 C 
ATOM     17  O   UNL     1       5.222  11.494  25.379  0.00  0.00    +0.000 OA
ENDROOT
BRANCH   6  18
ATOM     18  N   UNL     1       8.587  15.046  23.443  0.00  0.00    +0.000 N 
ATOM     19  C   UNL     1       9.192  16.073  24.115  0.00  0.00    +0.000 C 
ATOM     20  C   UNL     1      10.633  16.314  23.722  0.00  0.00    +0.000 C 
ATOM     21  O   UNL     1       8.638  16.732  24.970  0.00  0.00    +0.000 OA
ATOM     22  H   UNL     1       9.171  14.587  22.760  0.00  0.00    +0.000 HD
ENDBRANCH   6  18
BRANCH   1  24
ATOM     23  C   UNL     1       7.203  14.196  27.197  0.00  0.00    +0.000 C 
ATOM     24  O   UNL     1       7.139  12.803  26.954  0.00  0.00    +0.000 OA
ENDBRANCH   1  24
BRANCH  11  25
ATOM     25  O   UNL     1       9.850  15.718  17.600  0.00  0.00    +0.000 OA
ATOM     26  C   UNL     1      10.848  16.700  17.869  0.00  0.00    +0.000 C 
ENDBRANCH  11  25
BRANCH  12  27
ATOM     27  O   UNL     1      10.867  13.077  18.003  0.00  0.00    +0.000 OA
ATOM     28  C   UNL     1      12.259  13.201  18.292  0.00  0.00    +0.000 C 
ENDBRANCH  12  27
BRANCH  13  29
ATOM     29  O   UNL     1       9.957  11.597  20.314  0.00  0.00    +0.000 OA
ATOM     30  C   UNL     1       9.411  10.484  19.608  0.00  0.00    +0.000 C 
ENDBRANCH  13  29
TORSDOF 5
ENDMDL
MODEL 2
REMARK VINA RESULT:      -5.5     10.121     12.739
REMARK  Name = 
REMARK  10 active torsions:
REMARK  status: ('A' for Active; 'I' for Inactive)
REMARK    1  A    between atoms: C_1  and  O_2
REMARK    2  A    between atoms: O_2  and  C_3
REMARK    3  A    between atoms: C_8  and  N_9
REMARK    4  A    between atoms: C_10  and  C_11
REMARK    5  A    between atoms: C_17  and  O_18
REMARK    6  A    between atoms: O_18  and  C_19
REMARK    7  A    between atoms: C_20  and  O_21
REMARK    8  A    between atoms: O_21  and  C_22
REMARK    9  A    between atoms: C_23  and  O_24
REMARK   10  A    between atoms: O_24  and  C_25
REMARK                            x       y       z     vdW  Elec       q    Type
REMARK                         _______ _______ _______ _____ _____    ______ ____
ROOT
ATOM      1  C   UNL     1       0.799  12.359  18.718  0.00  0.00    +0.000 C 
ATOM      2  C   UNL     1      -0.348  13.066  18.481  0.00  0.00    +0.000 C 
ATOM      3  C   UNL     1      -1.716  12.224  18.646  0.00  0.00    +0.000 C 
ATOM      4  C   UNL     1      -2.615  12.132  20.055  0.00  0.00    +0.000 C 
ATOM      5  C   UNL     1      -1.394  11.913  20.619  0.00  0.00    +0.000 C 
ATOM      6  C   UNL     1      -0.713  12.920  21.569  0.00  0.00    +0.000 C 
ATOM      7  C   UNL     1      -1.126  12.485  22.952  0.00  0.00    +0.000 C 
ATOM      8  C   UNL     1      -2.603  12.106  23.097  0.00  0.00    +0.000 C 
ATOM      9  C   UNL     1      -3.701  12.742  22.239  0.00  0.00    +0.000 A 
ATOM     10  C   UNL     1      -4.723  13.320  23.001  0.00  0.00    +0.000 A 
ATOM     11  C   UNL     1      -5.947  13.672  22.455  0.00  0.00    +0.000 A 
ATOM     12  C   UNL     1      -6.179  13.427  21.080  0.00  0.00    +0.000 A 
ATOM     13  C   UNL     1      -5.108  12.933  20.240  0.00  0.00    +0.000 A 
ATOM     14  C   UNL     1      -3.846  12.642  20.816  0.00  0.00    +0.000 A 
ATOM     15  C   UNL     1      -1.075  10.994  19.391  0.00  0.00    +0.000 C 
ATOM     16  C   UNL     1       0.424  10.977  19.114  0.00  0.00    +0.000 C 
ATOM     17  O   UNL     1       1.219  10.055  19.242  0.00  0.00    +0.000 OA
ENDROOT
BRANCH   6  18
ATOM     18  N   UNL     1      -1.257  14.249  21.232  0.00  0.00    +0.000 N 
ATOM     19  C   UNL     1      -0.699  15.465  21.521  0.00  0.00    +0.000 C 
ATOM     20  C   UNL     1      -1.579  16.651  21.191  0.00  0.00    +0.000 C 
ATOM     21  O   UNL     1       0.414  15.597  21.985  0.00  0.00    +0.000 OA
ATOM     22  H   UNL     1      -2.190  14.294  20.850  0.00  0.00    +0.000 HD
ENDBRANCH   6  18
BRANCH   1  24
ATOM     23  C   UNL     1       2.544  13.553  19.888  0.00  0.00    +0.000 C 
ATOM     24  O   UNL     1       2.113  12.686  18.855  0.00  0.00    +0.000 OA
ENDBRANCH   1  24
BRANCH  11  25
ATOM     25  O   UNL     1      -6.928  14.229  23.238  0.00  0.00    +0.000 OA
ATOM     26  C   UNL     1      -7.608  13.407  24.184  0.00  0.00    +0.000 C 
ENDBRANCH  11  25
BRANCH  12  27
ATOM     27  O   UNL     1      -7.401  13.652  20.478  0.00  0.00    +0.000 OA
ATOM     28  C   UNL     1      -7.683  14.915  19.876  0.00  0.00    +0.000 C 
ENDBRANCH  12  27
BRANCH  13  29
ATOM     29  O   UNL     1      -5.200  12.656  18.892  0.00  0.00    +0.000 OA
ATOM     30  C   UNL     1      -5.764  11.407  18.493  0.00  0.00    +0.000 C 
ENDBRANCH  13  29
TORSDOF 5
ENDMDL
MODEL 3
REMARK VINA RESULT:      -5.4      1.890      6.508
REMARK  Name = 
REMARK  10 active torsions:
REMARK  status: ('A' for Active; 'I' for Inactive)
REMARK    1  A    between atoms: C_1  and  O_2
REMARK    2  A    between atoms: O_2  and  C_3
REMARK    3  A    between atoms: C_8  and  N_9
REMARK    4  A    between atoms: C_10  and  C_11
REMARK    5  A    between atoms: C_17  and  O_18
REMARK    6  A    between atoms: O_18  and  C_19
REMARK    7  A    between atoms: C_20  and  O_21
REMARK    8  A    between atoms: O_21  and  C_22
REMARK    9  A    between atoms: C_23  and  O_24
REMARK   10  A    between atoms: O_24  and  C_25
REMARK                            x       y       z     vdW  Elec       q    Type
REMARK                         _______ _______ _______ _____ _____    ______ ____
ROOT
ATOM      1  C   UNL     1      10.293  12.162  18.390  0.00  0.00    +0.000 C 
ATOM      2  C   UNL     1       9.032  12.358  18.885  0.00  0.00    +0.000 C 
ATOM      3  C   UNL     1       8.867  12.073  20.466  0.00  0.00    +0.000 C 
ATOM      4  C   UNL     1       9.016  13.233  21.663  0.00  0.00    +0.000 C 
ATOM      5  C   UNL     1      10.132  13.572  20.960  0.00  0.00    +0.000 C 
ATOM      6  C   UNL     1      10.267  14.901  20.186  0.00  0.00    +0.000 C 
ATOM      7  C   UNL     1      10.923  15.848  21.158  0.00  0.00    +0.000 C 
ATOM      8  C   UNL     1      10.372  15.795  22.586  0.00  0.00    +0.000 C 
ATOM      9  C   UNL     1       8.916  15.426  22.890  0.00  0.00    +0.000 A 
ATOM     10  C   UNL     1       8.254  16.396  23.651  0.00  0.00    +0.000 A 
ATOM     11  C   UNL     1       7.054  16.142  24.295  0.00  0.00    +0.000 A 
ATOM     12  C   UNL     1       6.481  14.851  24.191  0.00  0.00    +0.000 A 
ATOM     13  C   UNL     1       7.081  13.859  23.324  0.00  0.00    +0.000 A 
ATOM     14  C   UNL     1       8.276  14.170  22.627  0.00  0.00    +0.000 A 
ATOM     15  C   UNL     1      10.406  12.039  20.798  0.00  0.00    +0.000 C 
ATOM     16  C   UNL     1      11.181  11.769  19.514  0.00  0.00    +0.000 C 
ATOM     17  O   UNL     1      12.333  11.373  19.379  0.00  0.00    +0.000 OA
ENDROOT
BRANCH   6  18
ATOM     18  N   UNL     1       8.897  15.332  19.849  0.00  0.00    +0.000 N 
ATOM     19  C   UNL     1       8.514  16.094  18.778  0.00  0.00    +0.000 C 
ATOM     20  C   UNL     1       7.059  16.508  18.796  0.00  0.00    +0.000 C 
ATOM     21  O   UNL     1       9.262  16.404  17.875  0.00  0.00    +0.000 OA
ATOM     22  H   UNL     1       8.167  15.153  20.522  0.00  0.00    +0.000 HD
ENDBRANCH   6  18
BRANCH   1  24
ATOM     23  C   UNL     1      11.349  13.738  16.893  0.00  0.00    +0.000 C 
ATOM     24  O   UNL     1      10.907  12.429  17.205  0.00  0.00    +0.000 OA
ENDBRANCH   1  24
BRANCH  11  25
ATOM     25  O   UNL     1       6.440  17.118  25.041  0.00  0.00    +0.000 OA
ATOM     26  C   UNL     1       6.988  17.469  26.309  0.00  0.00    +0.000 C 
ENDBRANCH  11  25
BRANCH  12  27
ATOM     27  O   UNL     1       5.343  14.483  24.881  0.00  0.00    +0.000 OA
ATOM     28  C   UNL     1       5.440  14.014  26.226  0.00  0.00    +0.000 C 
ENDBRANCH  12  27
BRANCH  13  29
ATOM     29  O   UNL     1       6.625  12.571  23.131  0.00  0.00    +0.000 OA
ATOM     30  C   UNL     1       7.029  11.563  24.057  0.00  0.00    +0.000 C 
ENDBRANCH  13  29
TORSDOF 5
ENDMDL
MODEL 4
REMARK VINA RESULT:      -5.4     12.408     14.117
REMARK  Name = 
REMARK  10 active torsions:
REMARK  status: ('A' for Active; 'I' for Inactive)
REMARK    1  A    between atoms: C_1  and  O_2
REMARK    2  A    between atoms: O_2  and  C_3
REMARK    3  A    between atoms: C_8  and  N_9
REMARK    4  A    between atoms: C_10  and  C_11
REMARK    5  A    between atoms: C_17  and  O_18
REMARK    6  A    between atoms: O_18  and  C_19
REMARK    7  A    between atoms: C_20  and  O_21
REMARK    8  A    between atoms: O_21  and  C_22
REMARK    9  A    between atoms: C_23  and  O_24
REMARK   10  A    between atoms: O_24  and  C_25
REMARK                            x       y       z     vdW  Elec       q    Type
REMARK                         _______ _______ _______ _____ _____    ______ ____
ROOT
ATOM      1  C   UNL     1      -6.755  14.816  23.430  0.00  0.00    +0.000 C 
ATOM      2  C   UNL     1      -5.622  14.991  22.684  0.00  0.00    +0.000 C 
ATOM      3  C   UNL     1      -4.746  13.655  22.448  0.00  0.00    +0.000 C 
ATOM      4  C   UNL     1      -4.899  12.636  21.129  0.00  0.00    +0.000 C 
ATOM      5  C   UNL     1      -6.228  12.759  21.402  0.00  0.00    +0.000 C 
ATOM      6  C   UNL     1      -7.214  13.493  20.468  0.00  0.00    +0.000 C 
ATOM      7  C   UNL     1      -7.775  12.415  19.576  0.00  0.00    +0.000 C 
ATOM      8  C   UNL     1      -6.745  11.416  19.042  0.00  0.00    +0.000 C 
ATOM      9  C   UNL     1      -5.284  11.800  18.789  0.00  0.00    +0.000 A 
ATOM     10  C   UNL     1      -4.867  11.528  17.481  0.00  0.00    +0.000 A 
ATOM     11  C   UNL     1      -3.530  11.504  17.119  0.00  0.00    +0.000 A 
ATOM     12  C   UNL     1      -2.548  11.750  18.109  0.00  0.00    +0.000 A 
ATOM     13  C   UNL     1      -2.947  12.142  19.444  0.00  0.00    +0.000 A 
ATOM     14  C   UNL     1      -4.324  12.220  19.768  0.00  0.00    +0.000 A 
ATOM     15  C   UNL     1      -5.852  12.637  22.917  0.00  0.00    +0.000 C 
ATOM     16  C   UNL     1      -6.868  13.376  23.779  0.00  0.00    +0.000 C 
ATOM     17  O   UNL     1      -7.686  12.919  24.568  0.00  0.00    +0.000 OA
ENDROOT
BRANCH   6  18
ATOM     18  N   UNL     1      -6.418  14.472  19.703  0.00  0.00    +0.000 N 
ATOM     19  C   UNL     1      -6.767  15.760  19.399  0.00  0.00    +0.000 C 
ATOM     20  C   UNL     1      -5.812  16.460  18.458  0.00  0.00    +0.000 C 
ATOM     21  O   UNL     1      -7.747  16.313  19.854  0.00  0.00    +0.000 OA
ATOM     22  H   UNL     1      -5.577  14.146  19.250  0.00  0.00    +0.000 HD
ENDBRANCH   6  18
BRANCH   1  24
ATOM     23  C   UNL     1      -7.917  16.930  23.271  0.00  0.00    +0.000 C 
ATOM     24  O   UNL     1      -7.834  15.591  23.726  0.00  0.00    +0.000 OA
ENDBRANCH   1  24
BRANCH  11  25
ATOM     25  O   UNL     1      -3.160  11.224  15.826  0.00  0.00    +0.000 OA
ATOM     26  C   UNL     1      -3.599  10.007  15.228  0.00  0.00    +0.000 C 
ENDBRANCH  11  25
BRANCH  12  27
ATOM     27  O   UNL     1      -1.194  11.646  17.858  0.00  0.00    +0.000 OA
ATOM     28  C   UNL     1      -0.491  10.451  18.196  0.00  0.00    +0.000 C 
ENDBRANCH  12  27
BRANCH  13  29
ATOM     29  O   UNL     1      -2.095  12.411  20.497  0.00  0.00    +0.000 OA
ATOM     30  C   UNL     1      -1.440  13.679  20.532  0.00  0.00    +0.000 C 
ENDBRANCH  13  29
TORSDOF 5
ENDMDL
MODEL 5
REMARK VINA RESULT:      -5.2      9.701     12.402
REMARK  Name = 
REMARK  10 active torsions:
REMARK  status: ('A' for Active; 'I' for Inactive)
REMARK    1  A    between atoms: C_1  and  O_2
REMARK    2  A    between atoms: O_2  and  C_3
REMARK    3  A    between atoms: C_8  and  N_9
REMARK    4  A    between atoms: C_10  and  C_11
REMARK    5  A    between atoms: C_17  and  O_18
REMARK    6  A    between atoms: O_18  and  C_19
REMARK    7  A    between atoms: C_20  and  O_21
REMARK    8  A    between atoms: O_21  and  C_22
REMARK    9  A    between atoms: C_23  and  O_24
REMARK   10  A    between atoms: O_24  and  C_25
REMARK                            x       y       z     vdW  Elec       q    Type
REMARK                         _______ _______ _______ _____ _____    ______ ____
ROOT
ATOM      1  C   UNL     1       0.888  11.881  18.463  0.00  0.00    +0.000 C 
ATOM      2  C   UNL     1      -0.111  12.814  18.425  0.00  0.00    +0.000 C 
ATOM      3  C   UNL     1      -1.602  12.225  18.622  0.00  0.00    +0.000 C 
ATOM      4  C   UNL     1      -2.395  12.114  20.093  0.00  0.00    +0.000 C 
ATOM      5  C   UNL     1      -1.203  11.599  20.504  0.00  0.00    +0.000 C 
ATOM      6  C   UNL     1      -0.269  12.327  21.495  0.00  0.00    +0.000 C 
ATOM      7  C   UNL     1      -0.657  11.795  22.851  0.00  0.00    +0.000 C 
ATOM      8  C   UNL     1      -2.165  11.680  23.095  0.00  0.00    +0.000 C 
ATOM      9  C   UNL     1      -3.176  12.618  22.429  0.00  0.00    +0.000 A 
ATOM     10  C   UNL     1      -4.006  13.268  23.349  0.00  0.00    +0.000 A 
ATOM     11  C   UNL     1      -5.174  13.910  22.971  0.00  0.00    +0.000 A 
ATOM     12  C   UNL     1      -5.550  13.898  21.606  0.00  0.00    +0.000 A 
ATOM     13  C   UNL     1      -4.662  13.331  20.613  0.00  0.00    +0.000 A 
ATOM     14  C   UNL     1      -3.443  12.737  21.025  0.00  0.00    +0.000 A 
ATOM     15  C   UNL     1      -1.162  10.809  19.152  0.00  0.00    +0.000 C 
ATOM     16  C   UNL     1       0.280  10.552  18.730  0.00  0.00    +0.000 C 
ATOM     17  O   UNL     1       0.886   9.490  18.670  0.00  0.00    +0.000 OA
ENDROOT
BRANCH   6  18
ATOM     18  N   UNL     1      -0.566  13.766  21.370  0.00  0.00    +0.000 N 
ATOM     19  C   UNL     1       0.177  14.805  21.864  0.00  0.00    +0.000 C 
ATOM     20  C   UNL     1      -0.475  16.163  21.718  0.00  0.00    +0.000 C 
ATOM     21  O   UNL     1       1.274  14.667  22.362  0.00  0.00    +0.000 OA
ATOM     22  H   UNL     1      -1.459  14.033  20.985  0.00  0.00    +0.000 HD
ENDBRANCH   6  18
BRANCH   1  24
ATOM     23  C   UNL     1       2.932  13.166  18.347  0.00  0.00    +0.000 C 
ATOM     24  O   UNL     1       2.248  11.937  18.509  0.00  0.00    +0.000 OA
ENDBRANCH   1  24
BRANCH  11  25
ATOM     25  O   UNL     1      -5.967  14.529  23.906  0.00  0.00    +0.000 OA
ATOM     26  C   UNL     1      -5.823  15.932  24.117  0.00  0.00    +0.000 C 
ENDBRANCH  11  25
BRANCH  12  27
ATOM     27  O   UNL     1      -6.746  14.425  21.158  0.00  0.00    +0.000 OA
ATOM     28  C   UNL     1      -7.914  13.607  21.103  0.00  0.00    +0.000 C 
ENDBRANCH  12  27
BRANCH  13  29
ATOM     29  O   UNL     1      -4.906  13.258  19.257  0.00  0.00    +0.000 OA
ATOM     30  C   UNL     1      -5.509  12.073  18.739  0.00  0.00    +0.000 C 
ENDBRANCH  13  29
TORSDOF 5
ENDMDL
MODEL 6
REMARK VINA RESULT:      -5.1      9.326     10.877
REMARK  Name = 
REMARK  10 active torsions:
REMARK  status: ('A' for Active; 'I' for Inactive)
REMARK    1  A    between atoms: C_1  and  O_2
REMARK    2  A    between atoms: O_2  and  C_3
REMARK    3  A    between atoms: C_8  and  N_9
REMARK    4  A    between atoms: C_10  and  C_11
REMARK    5  A    between atoms: C_17  and  O_18
REMARK    6  A    between atoms: O_18  and  C_19
REMARK    7  A    between atoms: C_20  and  O_21
REMARK    8  A    between atoms: O_21  and  C_22
REMARK    9  A    between atoms: C_23  and  O_24
REMARK   10  A    between atoms: O_24  and  C_25
REMARK                            x       y       z     vdW  Elec       q    Type
REMARK                         _______ _______ _______ _____ _____    ______ ____
ROOT
ATOM      1  C   UNL     1      -1.620  15.236  23.990  0.00  0.00    +0.000 C 
ATOM      2  C   UNL     1      -0.726  14.688  23.112  0.00  0.00    +0.000 C 
ATOM      3  C   UNL     1      -0.900  13.103  22.859  0.00  0.00    +0.000 C 
ATOM      4  C   UNL     1      -1.813  12.429  21.629  0.00  0.00    +0.000 C 
ATOM      5  C   UNL     1      -2.735  13.343  22.042  0.00  0.00    +0.000 C 
ATOM      6  C   UNL     1      -3.165  14.551  21.183  0.00  0.00    +0.000 C 
ATOM      7  C   UNL     1      -4.378  14.074  20.426  0.00  0.00    +0.000 C 
ATOM      8  C   UNL     1      -4.262  12.664  19.840  0.00  0.00    +0.000 C 
ATOM      9  C   UNL     1      -2.922  12.066  19.401  0.00  0.00    +0.000 A 
ATOM     10  C   UNL     1      -2.930  11.624  18.073  0.00  0.00    +0.000 A 
ATOM     11  C   UNL     1      -1.951  10.785  17.565  0.00  0.00    +0.000 A 
ATOM     12  C   UNL     1      -0.913  10.347  18.422  0.00  0.00    +0.000 A 
ATOM     13  C   UNL     1      -0.813  10.870  19.768  0.00  0.00    +0.000 A 
ATOM     14  C   UNL     1      -1.794  11.778  20.239  0.00  0.00    +0.000 A 
ATOM     15  C   UNL     1      -2.329  12.979  23.510  0.00  0.00    +0.000 C 
ATOM     16  C   UNL     1      -2.553  14.169  24.435  0.00  0.00    +0.000 C 
ATOM     17  O   UNL     1      -3.372  14.299  25.337  0.00  0.00    +0.000 OA
ENDROOT
BRANCH   6  18
ATOM     18  N   UNL     1      -2.038  14.843  20.276  0.00  0.00    +0.000 N 
ATOM     19  C   UNL     1      -1.565  16.077  19.921  0.00  0.00    +0.000 C 
ATOM     20  C   UNL     1      -0.505  16.054  18.842  0.00  0.00    +0.000 C 
ATOM     21  O   UNL     1      -1.942  17.111  20.433  0.00  0.00    +0.000 OA
ATOM     22  H   UNL     1      -1.633  14.074  19.764  0.00  0.00    +0.000 HD
ENDBRANCH   6  18
BRANCH   1  24
ATOM     23  C   UNL     1      -1.094  17.594  24.042  0.00  0.00    +0.000 C 
ATOM     24  O   UNL     1      -1.942  16.506  24.359  0.00  0.00    +0.000 OA
ENDBRANCH   1  24
BRANCH  11  25
ATOM     25  O   UNL     1      -1.999  10.366  16.258  0.00  0.00    +0.000 OA
ATOM     26  C   UNL     1      -3.078  10.796  15.432  0.00  0.00    +0.000 C 
ENDBRANCH  11  25
BRANCH  12  27
ATOM     27  O   UNL     1       0.043   9.432  18.027  0.00  0.00    +0.000 OA
ATOM     28  C   UNL     1       1.418   9.810  17.970  0.00  0.00    +0.000 C 
ENDBRANCH  12  27
BRANCH  13  29
ATOM     29  O   UNL     1       0.146  10.529  20.699  0.00  0.00    +0.000 OA
ATOM     30  C   UNL     1      -0.045   9.342  21.467  0.00  0.00    +0.000 C 
ENDBRANCH  13  29
TORSDOF 5
ENDMDL
MODEL 7
REMARK VINA RESULT:      -5.1     10.116     12.557
REMARK  Name = 
REMARK  10 active torsions:
REMARK  status: ('A' for Active; 'I' for Inactive)
REMARK    1  A    between atoms: C_1  and  O_2
REMARK    2  A    between atoms: O_2  and  C_3
REMARK    3  A    between atoms: C_8  and  N_9
REMARK    4  A    between atoms: C_10  and  C_11
REMARK    5  A    between atoms: C_17  and  O_18
REMARK    6  A    between atoms: O_18  and  C_19
REMARK    7  A    between atoms: C_20  and  O_21
REMARK    8  A    between atoms: O_21  and  C_22
REMARK    9  A    between atoms: C_23  and  O_24
REMARK   10  A    between atoms: O_24  and  C_25
REMARK                            x       y       z     vdW  Elec       q    Type
REMARK                         _______ _______ _______ _____ _____    ______ ____
ROOT
ATOM      1  C   UNL     1       1.171  14.737  19.815  0.00  0.00    +0.000 C 
ATOM      2  C   UNL     1       0.006  14.722  19.098  0.00  0.00    +0.000 C 
ATOM      3  C   UNL     1      -0.724  13.284  19.010  0.00  0.00    +0.000 C 
ATOM      4  C   UNL     1      -1.909  12.752  20.066  0.00  0.00    +0.000 C 
ATOM      5  C   UNL     1      -1.045  13.225  21.007  0.00  0.00    +0.000 C 
ATOM      6  C   UNL     1      -1.351  14.456  21.887  0.00  0.00    +0.000 C 
ATOM      7  C   UNL     1      -1.976  13.890  23.136  0.00  0.00    +0.000 C 
ATOM      8  C   UNL     1      -3.011  12.787  22.901  0.00  0.00    +0.000 C 
ATOM      9  C   UNL     1      -3.873  12.727  21.636  0.00  0.00    +0.000 A 
ATOM     10  C   UNL     1      -5.244  12.686  21.911  0.00  0.00    +0.000 A 
ATOM     11  C   UNL     1      -6.182  12.324  20.958  0.00  0.00    +0.000 A 
ATOM     12  C   UNL     1      -5.738  11.970  19.661  0.00  0.00    +0.000 A 
ATOM     13  C   UNL     1      -4.340  12.108  19.310  0.00  0.00    +0.000 A 
ATOM     14  C   UNL     1      -3.413  12.542  20.291  0.00  0.00    +0.000 A 
ATOM     15  C   UNL     1       0.109  12.596  20.156  0.00  0.00    +0.000 C 
ATOM     16  C   UNL     1       1.404  13.374  20.359  0.00  0.00    +0.000 C 
ATOM     17  O   UNL     1       2.437  13.018  20.913  0.00  0.00    +0.000 OA
ENDROOT
BRANCH   6  18
ATOM     18  N   UNL     1      -2.307  15.286  21.129  0.00  0.00    +0.000 N 
ATOM     19  C   UNL     1      -2.415  16.650  21.158  0.00  0.00    +0.000 C 
ATOM     20  C   UNL     1      -3.602  17.198  20.397  0.00  0.00    +0.000 C 
ATOM     21  O   UNL     1      -1.622  17.373  21.725  0.00  0.00    +0.000 OA
ATOM     22  H   UNL     1      -3.039  14.816  20.618  0.00  0.00    +0.000 HD
ENDBRANCH   6  18
BRANCH   1  24
ATOM     23  C   UNL     1       1.620  17.078  20.216  0.00  0.00    +0.000 C 
ATOM     24  O   UNL     1       1.999  15.715  20.275  0.00  0.00    +0.000 OA
ENDBRANCH   1  24
BRANCH  11  25
ATOM     25  O   UNL     1      -7.519  12.286  21.270  0.00  0.00    +0.000 OA
ATOM     26  C   UNL     1      -7.916  11.839  22.564  0.00  0.00    +0.000 C 
ENDBRANCH  11  25
BRANCH  12  27
ATOM     27  O   UNL     1      -6.592  11.501  18.682  0.00  0.00    +0.000 OA
ATOM     28  C   UNL     1      -7.114  12.393  17.697  0.00  0.00    +0.000 C 
ENDBRANCH  12  27
BRANCH  13  29
ATOM     29  O   UNL     1      -3.778  11.802  18.087  0.00  0.00    +0.000 OA
ATOM     30  C   UNL     1      -3.512  10.432  17.787  0.00  0.00    +0.000 C 
ENDBRANCH  13  29
TORSDOF 5
ENDMDL
MODEL 8
REMARK VINA RESULT:      -5.1      9.551     12.497
REMARK  Name = 
REMARK  10 active torsions:
REMARK  status: ('A' for Active; 'I' for Inactive)
REMARK    1  A    between atoms: C_1  and  O_2
REMARK    2  A    between atoms: O_2  and  C_3
REMARK    3  A    between atoms: C_8  and  N_9
REMARK    4  A    between atoms: C_10  and  C_11
REMARK    5  A    between atoms: C_17  and  O_18
REMARK    6  A    between atoms: O_18  and  C_19
REMARK    7  A    between atoms: C_20  and  O_21
REMARK    8  A    between atoms: O_21  and  C_22
REMARK    9  A    between atoms: C_23  and  O_24
REMARK   10  A    between atoms: O_24  and  C_25
REMARK                            x       y       z     vdW  Elec       q    Type
REMARK                         _______ _______ _______ _____ _____    ______ ____
ROOT
ATOM      1  C   UNL     1       1.682  14.326  20.842  0.00  0.00    +0.000 C 
ATOM      2  C   UNL     1       0.685  14.275  21.778  0.00  0.00    +0.000 C 
ATOM      3  C   UNL     1      -0.687  15.013  21.355  0.00  0.00    +0.000 C 
ATOM      4  C   UNL     1      -1.984  14.259  20.610  0.00  0.00    +0.000 C 
ATOM      5  C   UNL     1      -1.006  13.736  19.818  0.00  0.00    +0.000 C 
ATOM      6  C   UNL     1      -0.630  12.239  19.825  0.00  0.00    +0.000 C 
ATOM      7  C   UNL     1      -1.466  11.626  18.731  0.00  0.00    +0.000 C 
ATOM      8  C   UNL     1      -2.924  12.094  18.691  0.00  0.00    +0.000 C 
ATOM      9  C   UNL     1      -3.681  12.526  19.950  0.00  0.00    +0.000 A 
ATOM     10  C   UNL     1      -4.874  11.819  20.138  0.00  0.00    +0.000 A 
ATOM     11  C   UNL     1      -5.857  12.243  21.019  0.00  0.00    +0.000 A 
ATOM     12  C   UNL     1      -5.654  13.441  21.746  0.00  0.00    +0.000 A 
ATOM     13  C   UNL     1      -4.387  14.137  21.657  0.00  0.00    +0.000 A 
ATOM     14  C   UNL     1      -3.377  13.643  20.795  0.00  0.00    +0.000 A 
ATOM     15  C   UNL     1      -0.344  15.155  19.824  0.00  0.00    +0.000 C 
ATOM     16  C   UNL     1       1.165  15.039  19.645  0.00  0.00    +0.000 C 
ATOM     17  O   UNL     1       1.856  15.386  18.696  0.00  0.00    +0.000 OA
ENDROOT
BRANCH   6  18
ATOM     18  N   UNL     1      -1.006  11.718  21.153  0.00  0.00    +0.000 N 
ATOM     19  C   UNL     1      -0.245  10.930  21.974  0.00  0.00    +0.000 C 
ATOM     20  C   UNL     1      -0.972  10.420  23.199  0.00  0.00    +0.000 C 
ATOM     21  O   UNL     1       0.920  10.669  21.760  0.00  0.00    +0.000 OA
ATOM     22  H   UNL     1      -1.959  11.848  21.458  0.00  0.00    +0.000 HD
ENDBRANCH   6  18
BRANCH   1  24
ATOM     23  C   UNL     1       4.030  14.206  21.399  0.00  0.00    +0.000 C 
ATOM     24  O   UNL     1       2.895  13.725  20.703  0.00  0.00    +0.000 OA
ENDBRANCH   1  24
BRANCH  11  25
ATOM     25  O   UNL     1      -7.019  11.526  21.169  0.00  0.00    +0.000 OA
ATOM     26  C   UNL     1      -7.340  10.520  20.211  0.00  0.00    +0.000 C 
ENDBRANCH  11  25
BRANCH  12  27
ATOM     27  O   UNL     1      -6.621  13.988  22.566  0.00  0.00    +0.000 OA
ATOM     28  C   UNL     1      -6.725  13.574  23.928  0.00  0.00    +0.000 C 
ENDBRANCH  12  27
BRANCH  13  29
ATOM     29  O   UNL     1      -4.061  15.307  22.312  0.00  0.00    +0.000 OA
ATOM     30  C   UNL     1      -4.514  16.543  21.759  0.00  0.00    +0.000 C 
ENDBRANCH  13  29
TORSDOF 5
ENDMDL
MODEL 9
REMARK VINA RESULT:      -5.0      9.206     11.322
REMARK  Name = 
REMARK  10 active torsions:
REMARK  status: ('A' for Active; 'I' for Inactive)
REMARK    1  A    between atoms: C_1  and  O_2
REMARK    2  A    between atoms: O_2  and  C_3
REMARK    3  A    between atoms: C_8  and  N_9
REMARK    4  A    between atoms: C_10  and  C_11
REMARK    5  A    between atoms: C_17  and  O_18
REMARK    6  A    between atoms: O_18  and  C_19
REMARK    7  A    between atoms: C_20  and  O_21
REMARK    8  A    between atoms: O_21  and  C_22
REMARK    9  A    between atoms: C_23  and  O_24
REMARK   10  A    between atoms: O_24  and  C_25
REMARK                            x       y       z     vdW  Elec       q    Type
REMARK                         _______ _______ _______ _____ _____    ______ ____
ROOT
ATOM      1  C   UNL     1      -4.227  16.470  23.405  0.00  0.00    +0.000 C 
ATOM      2  C   UNL     1      -3.726  16.317  22.141  0.00  0.00    +0.000 C 
ATOM      3  C   UNL     1      -2.131  16.077  22.063  0.00  0.00    +0.000 C 
ATOM      4  C   UNL     1      -1.394  14.574  22.037  0.00  0.00    +0.000 C 
ATOM      5  C   UNL     1      -2.255  14.322  23.063  0.00  0.00    +0.000 C 
ATOM      6  C   UNL     1      -3.428  13.326  22.951  0.00  0.00    +0.000 C 
ATOM      7  C   UNL     1      -2.873  12.019  23.456  0.00  0.00    +0.000 C 
ATOM      8  C   UNL     1      -1.468  11.674  22.954  0.00  0.00    +0.000 C 
ATOM      9  C   UNL     1      -0.948  12.140  21.591  0.00  0.00    +0.000 A 
ATOM     10  C   UNL     1      -0.496  11.085  20.789  0.00  0.00    +0.000 A 
ATOM     11  C   UNL     1       0.287  11.290  19.665  0.00  0.00    +0.000 A 
ATOM     12  C   UNL     1       0.656  12.613  19.320  0.00  0.00    +0.000 A 
ATOM     13  C   UNL     1       0.116  13.734  20.061  0.00  0.00    +0.000 A 
ATOM     14  C   UNL     1      -0.735  13.494  21.169  0.00  0.00    +0.000 A 
ATOM     15  C   UNL     1      -1.927  15.760  23.592  0.00  0.00    +0.000 C 
ATOM     16  C   UNL     1      -3.109  16.321  24.373  0.00  0.00    +0.000 C 
ATOM     17  O   UNL     1      -3.197  16.557  25.571  0.00  0.00    +0.000 OA
ENDROOT
BRANCH   6  18
ATOM     18  N   UNL     1      -3.780  13.250  21.520  0.00  0.00    +0.000 N 
ATOM     19  C   UNL     1      -4.863  12.619  20.971  0.00  0.00    +0.000 C 
ATOM     20  C   UNL     1      -4.860  12.576  19.459  0.00  0.00    +0.000 C 
ATOM     21  O   UNL     1      -5.766  12.146  21.628  0.00  0.00    +0.000 OA
ATOM     22  H   UNL     1      -3.108  13.594  20.851  0.00  0.00    +0.000 HD
ENDBRANCH   6  18
BRANCH   1  24
ATOM     23  C   UNL     1      -6.352  15.413  23.859  0.00  0.00    +0.000 C 
ATOM     24  O   UNL     1      -5.478  16.524  23.939  0.00  0.00    +0.000 OA
ENDBRANCH   1  24
BRANCH  11  25
ATOM     25  O   UNL     1       0.719  10.227  18.909  0.00  0.00    +0.000 OA
ATOM     26  C   UNL     1       1.324   9.114  19.562  0.00  0.00    +0.000 C 
ENDBRANCH  11  25
BRANCH  12  27
ATOM     27  O   UNL     1       1.515  12.900  18.277  0.00  0.00    +0.000 OA
ATOM     28  C   UNL     1       2.866  13.276  18.543  0.00  0.00    +0.000 C 
ENDBRANCH  12  27
BRANCH  13  29
ATOM     29  O   UNL     1       0.392  15.066  19.828  0.00  0.00    +0.000 OA
ATOM     30  C   UNL     1      -0.307  15.728  18.775  0.00  0.00    +0.000 C 
ENDBRANCH  13  29
TORSDOF 5
ENDMDL
