MODEL 1
REMARK VINA RESULT:      -8.5      0.000      0.000
REMARK  Name = 
REMARK  5 active torsions:
REMARK  status: ('A' for Active; 'I' for Inactive)
REMARK    1  A    between atoms: C_1  and  O_2
REMARK    2  A    between atoms: O_2  and  C_3
REMARK    3  A    between atoms: C_6  and  C_7
REMARK    4  A    between atoms: C_11  and  N_12
REMARK    5  A    between atoms: C_18  and  C_19
REMARK                            x       y       z     vdW  Elec       q    Type
REMARK                         _______ _______ _______ _____ _____    ______ ____
ROOT
ATOM      1  C   UNL     1       2.812   5.573  20.082  0.00  0.00    +0.000 C 
ATOM      2  O   UNL     1       2.191   5.151  21.311  0.00  0.00    +0.000 OA
ATOM      3  C   UNL     1       1.690   3.822  21.127  0.00  0.00    +0.000 C 
ATOM      4  C   UNL     1       2.433   3.234  19.950  0.00  0.00    +0.000 C 
ATOM      5  C   UNL     1       2.603   4.442  19.056  0.00  0.00    +0.000 C 
ENDROOT
BRANCH   5   6
ATOM      6  N   UNL     1       3.723   4.298  18.150  0.00  0.00    +0.000 N 
ATOM      7  C   UNL     1       4.041   3.158  17.473  0.00  0.00    +0.000 C 
ATOM      8  O   UNL     1       3.386   2.123  17.556  0.00  0.00    +0.000 OA
ATOM      9  N   UNL     1       5.105   3.239  16.621  0.00  0.00    +0.000 N 
ATOM     10  C   UNL     1       5.933   4.316  16.551  0.00  0.00    +0.000 A 
ATOM     11  N   UNL     1       5.967   5.367  17.343  0.00  0.00    +0.000 NA
ATOM     12  C   UNL     1       7.000   6.094  16.821  0.00  0.00    +0.000 A 
ATOM     13  C   UNL     1       7.445   7.353  17.446  0.00  0.00    +0.000 C 
ATOM     14  N   UNL     1       7.570   5.564  15.732  0.00  0.00    +0.000 NA
ATOM     15  O   UNL     1       6.869   4.360  15.561  0.00  0.00    +0.000 OA
ATOM     16  H   UNL     1       4.448   5.011  18.185  0.00  0.00    +0.000 HD
ATOM     17  H   UNL     1       5.272   2.459  16.006  0.00  0.00    +0.000 HD
ENDBRANCH   5   6
BRANCH   1  21
ATOM     18  C   UNL     1       1.399   9.386  18.892  0.00  0.00    +0.000 A 
ATOM     19  C   UNL     1       2.006   8.608  17.924  0.00  0.00    +0.000 A 
ATOM     20  C   UNL     1       2.449   7.339  18.283  0.00  0.00    +0.000 A 
ATOM     21  C   UNL     1       2.257   6.881  19.590  0.00  0.00    +0.000 A 
ATOM     22  C   UNL     1       1.592   7.731  20.470  0.00  0.00    +0.000 A 
ATOM     23  N   UNL     1       1.161   8.970  20.154  0.00  0.00    +0.000 NA
BRANCH  18  25
ATOM     24  C   UNL     1      -0.340  10.920  18.798  0.00  0.00    +0.000 C 
ATOM     25  O   UNL     1       1.034  10.665  18.520  0.00  0.00    +0.000 OA
ENDBRANCH  18  25
ENDBRANCH   1  21
TORSDOF 3
ENDMDL
MODEL 2
REMARK VINA RESULT:      -8.2      0.604      1.017
REMARK  Name = 
REMARK  5 active torsions:
REMARK  status: ('A' for Active; 'I' for Inactive)
REMARK    1  A    between atoms: C_1  and  O_2
REMARK    2  A    between atoms: O_2  and  C_3
REMARK    3  A    between atoms: C_6  and  C_7
REMARK    4  A    between atoms: C_11  and  N_12
REMARK    5  A    between atoms: C_18  and  C_19
REMARK                            x       y       z     vdW  Elec       q    Type
REMARK                         _______ _______ _______ _____ _____    ______ ____
ROOT
ATOM      1  C   UNL     1       2.701   5.472  20.102  0.00  0.00    +0.000 C 
ATOM      2  O   UNL     1       1.962   4.977  21.235  0.00  0.00    +0.000 OA
ATOM      3  C   UNL     1       1.367   3.726  20.870  0.00  0.00    +0.000 C 
ATOM      4  C   UNL     1       2.141   3.205  19.681  0.00  0.00    +0.000 C 
ATOM      5  C   UNL     1       2.473   4.482  18.943  0.00  0.00    +0.000 C 
ENDROOT
BRANCH   5   6
ATOM      6  N   UNL     1       3.639   4.337  18.096  0.00  0.00    +0.000 N 
ATOM      7  C   UNL     1       4.010   3.186  17.468  0.00  0.00    +0.000 C 
ATOM      8  O   UNL     1       3.372   2.141  17.548  0.00  0.00    +0.000 OA
ATOM      9  N   UNL     1       5.113   3.266  16.666  0.00  0.00    +0.000 N 
ATOM     10  C   UNL     1       5.923   4.358  16.607  0.00  0.00    +0.000 A 
ATOM     11  N   UNL     1       5.898   5.430  17.370  0.00  0.00    +0.000 NA
ATOM     12  C   UNL     1       6.941   6.164  16.879  0.00  0.00    +0.000 A 
ATOM     13  C   UNL     1       7.331   7.447  17.490  0.00  0.00    +0.000 C 
ATOM     14  N   UNL     1       7.574   5.617  15.834  0.00  0.00    +0.000 NA
ATOM     15  O   UNL     1       6.905   4.394  15.662  0.00  0.00    +0.000 OA
ATOM     16  H   UNL     1       4.346   5.065  18.147  0.00  0.00    +0.000 HD
ATOM     17  H   UNL     1       5.325   2.474  16.082  0.00  0.00    +0.000 HD
ENDBRANCH   5   6
BRANCH   1  21
ATOM     18  C   UNL     1       1.394   9.302  18.847  0.00  0.00    +0.000 A 
ATOM     19  C   UNL     1       1.167   8.959  20.167  0.00  0.00    +0.000 A 
ATOM     20  C   UNL     1       1.616   7.719  20.611  0.00  0.00    +0.000 A 
ATOM     21  C   UNL     1       2.292   6.871  19.729  0.00  0.00    +0.000 A 
ATOM     22  C   UNL     1       2.507   7.337  18.436  0.00  0.00    +0.000 A 
ATOM     23  N   UNL     1       2.074   8.529  17.974  0.00  0.00    +0.000 NA
BRANCH  18  25
ATOM     24  C   UNL     1      -0.504  10.635  18.757  0.00  0.00    +0.000 C 
ATOM     25  O   UNL     1       0.875  10.509  18.423  0.00  0.00    +0.000 OA
ENDBRANCH  18  25
ENDBRANCH   1  21
TORSDOF 3
ENDMDL
MODEL 3
REMARK VINA RESULT:      -7.7      2.818      7.044
REMARK  Name = 
REMARK  5 active torsions:
REMARK  status: ('A' for Active; 'I' for Inactive)
REMARK    1  A    between atoms: C_1  and  O_2
REMARK    2  A    between atoms: O_2  and  C_3
REMARK    3  A    between atoms: C_6  and  C_7
REMARK    4  A    between atoms: C_11  and  N_12
REMARK    5  A    between atoms: C_18  and  C_19
REMARK                            x       y       z     vdW  Elec       q    Type
REMARK                         _______ _______ _______ _____ _____    ______ ____
ROOT
ATOM      1  C   UNL     1       6.719   4.419  17.668  0.00  0.00    +0.000 C 
ATOM      2  O   UNL     1       8.063   4.382  18.184  0.00  0.00    +0.000 OA
ATOM      3  C   UNL     1       8.213   5.455  19.121  0.00  0.00    +0.000 C 
ATOM      4  C   UNL     1       6.822   5.854  19.555  0.00  0.00    +0.000 C 
ATOM      5  C   UNL     1       6.030   5.654  18.283  0.00  0.00    +0.000 C 
ENDROOT
BRANCH   5   6
ATOM      6  N   UNL     1       4.622   5.434  18.544  0.00  0.00    +0.000 N 
ATOM      7  C   UNL     1       3.608   6.212  18.071  0.00  0.00    +0.000 C 
ATOM      8  O   UNL     1       3.791   7.188  17.349  0.00  0.00    +0.000 OA
ATOM      9  N   UNL     1       2.342   5.807  18.382  0.00  0.00    +0.000 N 
ATOM     10  C   UNL     1       2.067   4.799  19.254  0.00  0.00    +0.000 A 
ATOM     11  N   UNL     1       2.904   4.152  20.037  0.00  0.00    +0.000 NA
ATOM     12  C   UNL     1       2.077   3.286  20.697  0.00  0.00    +0.000 A 
ATOM     13  C   UNL     1       2.589   2.386  21.746  0.00  0.00    +0.000 C 
ATOM     14  N   UNL     1       0.791   3.343  20.330  0.00  0.00    +0.000 NA
ATOM     15  O   UNL     1       0.778   4.373  19.375  0.00  0.00    +0.000 OA
ATOM     16  H   UNL     1       4.381   4.801  19.302  0.00  0.00    +0.000 HD
ATOM     17  H   UNL     1       1.576   6.279  17.930  0.00  0.00    +0.000 HD
ENDBRANCH   5   6
BRANCH   1  21
ATOM     18  C   UNL     1       6.916   4.456  13.436  0.00  0.00    +0.000 A 
ATOM     19  C   UNL     1       5.965   3.637  14.016  0.00  0.00    +0.000 A 
ATOM     20  C   UNL     1       5.859   3.632  15.403  0.00  0.00    +0.000 A 
ATOM     21  C   UNL     1       6.693   4.457  16.165  0.00  0.00    +0.000 A 
ATOM     22  C   UNL     1       7.581   5.275  15.474  0.00  0.00    +0.000 A 
ATOM     23  N   UNL     1       7.714   5.294  14.131  0.00  0.00    +0.000 NA
BRANCH  18  25
ATOM     24  C   UNL     1       6.712   3.089  11.572  0.00  0.00    +0.000 C 
ATOM     25  O   UNL     1       7.040   4.385  12.063  0.00  0.00    +0.000 OA
ENDBRANCH  18  25
ENDBRANCH   1  21
TORSDOF 3
ENDMDL
MODEL 4
REMARK VINA RESULT:      -7.6      1.459      1.984
REMARK  Name = 
REMARK  5 active torsions:
REMARK  status: ('A' for Active; 'I' for Inactive)
REMARK    1  A    between atoms: C_1  and  O_2
REMARK    2  A    between atoms: O_2  and  C_3
REMARK    3  A    between atoms: C_6  and  C_7
REMARK    4  A    between atoms: C_11  and  N_12
REMARK    5  A    between atoms: C_18  and  C_19
REMARK                            x       y       z     vdW  Elec       q    Type
REMARK                         _______ _______ _______ _____ _____    ______ ____
ROOT
ATOM      1  C   UNL     1       3.093   5.511  19.950  0.00  0.00    +0.000 C 
ATOM      2  O   UNL     1       2.363   4.864  21.010  0.00  0.00    +0.000 OA
ATOM      3  C   UNL     1       2.100   3.513  20.613  0.00  0.00    +0.000 C 
ATOM      4  C   UNL     1       3.092   3.177  19.524  0.00  0.00    +0.000 C 
ATOM      5  C   UNL     1       3.212   4.497  18.796  0.00  0.00    +0.000 C 
ENDROOT
BRANCH   5   6
ATOM      6  N   UNL     1       4.466   4.614  18.079  0.00  0.00    +0.000 N 
ATOM      7  C   UNL     1       5.633   5.071  18.615  0.00  0.00    +0.000 C 
ATOM      8  O   UNL     1       5.742   5.424  19.785  0.00  0.00    +0.000 OA
ATOM      9  N   UNL     1       6.722   5.053  17.791  0.00  0.00    +0.000 N 
ATOM     10  C   UNL     1       6.655   4.771  16.461  0.00  0.00    +0.000 A 
ATOM     11  N   UNL     1       5.581   4.617  15.717  0.00  0.00    +0.000 NA
ATOM     12  C   UNL     1       6.113   4.383  14.480  0.00  0.00    +0.000 A 
ATOM     13  C   UNL     1       5.254   4.211  13.294  0.00  0.00    +0.000 C 
ATOM     14  N   UNL     1       7.451   4.346  14.438  0.00  0.00    +0.000 NA
ATOM     15  O   UNL     1       7.818   4.627  15.764  0.00  0.00    +0.000 OA
ATOM     16  H   UNL     1       4.430   4.566  17.064  0.00  0.00    +0.000 HD
ATOM     17  H   UNL     1       7.621   5.249  18.200  0.00  0.00    +0.000 HD
ENDBRANCH   5   6
BRANCH   1  21
ATOM     18  C   UNL     1       1.377   9.237  18.886  0.00  0.00    +0.000 A 
ATOM     19  C   UNL     1       1.977   8.507  17.876  0.00  0.00    +0.000 A 
ATOM     20  C   UNL     1       2.519   7.266  18.195  0.00  0.00    +0.000 A 
ATOM     21  C   UNL     1       2.429   6.786  19.505  0.00  0.00    +0.000 A 
ATOM     22  C   UNL     1       1.763   7.584  20.431  0.00  0.00    +0.000 A 
ATOM     23  N   UNL     1       1.237   8.796  20.154  0.00  0.00    +0.000 NA
BRANCH  18  25
ATOM     24  C   UNL     1       0.740  11.314  19.701  0.00  0.00    +0.000 C 
ATOM     25  O   UNL     1       0.912  10.493  18.550  0.00  0.00    +0.000 OA
ENDBRANCH  18  25
ENDBRANCH   1  21
TORSDOF 3
ENDMDL
MODEL 5
REMARK VINA RESULT:      -7.4      2.236      3.099
REMARK  Name = 
REMARK  5 active torsions:
REMARK  status: ('A' for Active; 'I' for Inactive)
REMARK    1  A    between atoms: C_1  and  O_2
REMARK    2  A    between atoms: O_2  and  C_3
REMARK    3  A    between atoms: C_6  and  C_7
REMARK    4  A    between atoms: C_11  and  N_12
REMARK    5  A    between atoms: C_18  and  C_19
REMARK                            x       y       z     vdW  Elec       q    Type
REMARK                         _______ _______ _______ _____ _____    ______ ____
ROOT
ATOM      1  C   UNL     1       4.155   4.337  18.773  0.00  0.00    +0.000 C 
ATOM      2  O   UNL     1       3.782   3.519  19.899  0.00  0.00    +0.000 OA
ATOM      3  C   UNL     1       3.399   2.229  19.407  0.00  0.00    +0.000 C 
ATOM      4  C   UNL     1       4.004   2.089  18.030  0.00  0.00    +0.000 C 
ATOM      5  C   UNL     1       3.905   3.502  17.502  0.00  0.00    +0.000 C 
ENDROOT
BRANCH   5   6
ATOM      6  N   UNL     1       4.878   3.766  16.462  0.00  0.00    +0.000 N 
ATOM      7  C   UNL     1       6.085   4.369  16.655  0.00  0.00    +0.000 C 
ATOM      8  O   UNL     1       6.481   4.743  17.755  0.00  0.00    +0.000 OA
ATOM      9  N   UNL     1       6.888   4.478  15.555  0.00  0.00    +0.000 N 
ATOM     10  C   UNL     1       6.479   4.178  14.292  0.00  0.00    +0.000 A 
ATOM     11  N   UNL     1       5.264   3.885  13.880  0.00  0.00    +0.000 NA
ATOM     12  C   UNL     1       5.444   3.708  12.538  0.00  0.00    +0.000 A 
ATOM     13  C   UNL     1       4.310   3.420  11.641  0.00  0.00    +0.000 C 
ATOM     14  N   UNL     1       6.708   3.836  12.116  0.00  0.00    +0.000 NA
ATOM     15  O   UNL     1       7.402   4.172  13.289  0.00  0.00    +0.000 OA
ATOM     16  H   UNL     1       4.560   3.705  15.498  0.00  0.00    +0.000 HD
ATOM     17  H   UNL     1       7.835   4.788  15.697  0.00  0.00    +0.000 HD
ENDBRANCH   5   6
BRANCH   1  21
ATOM     18  C   UNL     1       2.131   8.056  18.940  0.00  0.00    +0.000 A 
ATOM     19  C   UNL     1       2.933   7.823  17.837  0.00  0.00    +0.000 A 
ATOM     20  C   UNL     1       3.582   6.596  17.745  0.00  0.00    +0.000 A 
ATOM     21  C   UNL     1       3.397   5.636  18.744  0.00  0.00    +0.000 A 
ATOM     22  C   UNL     1       2.531   5.960  19.784  0.00  0.00    +0.000 A 
ATOM     23  N   UNL     1       1.896   7.145  19.907  0.00  0.00    +0.000 NA
BRANCH  18  25
ATOM     24  C   UNL     1       1.926  10.139  17.938  0.00  0.00    +0.000 C 
ATOM     25  O   UNL     1       1.558   9.308  19.035  0.00  0.00    +0.000 OA
ENDBRANCH  18  25
ENDBRANCH   1  21
TORSDOF 3
ENDMDL
MODEL 6
REMARK VINA RESULT:      -7.4      1.787      6.087
REMARK  Name = 
REMARK  5 active torsions:
REMARK  status: ('A' for Active; 'I' for Inactive)
REMARK    1  A    between atoms: C_1  and  O_2
REMARK    2  A    between atoms: O_2  and  C_3
REMARK    3  A    between atoms: C_6  and  C_7
REMARK    4  A    between atoms: C_11  and  N_12
REMARK    5  A    between atoms: C_18  and  C_19
REMARK                            x       y       z     vdW  Elec       q    Type
REMARK                         _______ _______ _______ _____ _____    ______ ____
ROOT
ATOM      1  C   UNL     1       3.644   3.326  17.780  0.00  0.00    +0.000 C 
ATOM      2  O   UNL     1       3.648   1.903  17.558  0.00  0.00    +0.000 OA
ATOM      3  C   UNL     1       3.763   1.252  18.828  0.00  0.00    +0.000 C 
ATOM      4  C   UNL     1       3.335   2.255  19.874  0.00  0.00    +0.000 C 
ATOM      5  C   UNL     1       3.850   3.551  19.291  0.00  0.00    +0.000 C 
ENDROOT
BRANCH   5   6
ATOM      6  N   UNL     1       3.124   4.701  19.787  0.00  0.00    +0.000 N 
ATOM      7  C   UNL     1       2.377   4.722  20.928  0.00  0.00    +0.000 C 
ATOM      8  O   UNL     1       2.257   3.752  21.669  0.00  0.00    +0.000 OA
ATOM      9  N   UNL     1       1.813   5.922  21.256  0.00  0.00    +0.000 N 
ATOM     10  C   UNL     1       1.821   7.007  20.436  0.00  0.00    +0.000 A 
ATOM     11  N   UNL     1       2.215   7.075  19.182  0.00  0.00    +0.000 NA
ATOM     12  C   UNL     1       1.972   8.383  18.869  0.00  0.00    +0.000 A 
ATOM     13  C   UNL     1       2.211   8.904  17.511  0.00  0.00    +0.000 C 
ATOM     14  N   UNL     1       1.489   9.124  19.874  0.00  0.00    +0.000 NA
ATOM     15  O   UNL     1       1.367   8.198  20.922  0.00  0.00    +0.000 OA
ATOM     16  H   UNL     1       2.973   5.472  19.142  0.00  0.00    +0.000 HD
ATOM     17  H   UNL     1       1.378   6.001  22.161  0.00  0.00    +0.000 HD
ENDBRANCH   5   6
BRANCH   1  21
ATOM     18  C   UNL     1       6.786   5.094  15.552  0.00  0.00    +0.000 A 
ATOM     19  C   UNL     1       5.612   4.814  14.876  0.00  0.00    +0.000 A 
ATOM     20  C   UNL     1       4.555   4.263  15.593  0.00  0.00    +0.000 A 
ATOM     21  C   UNL     1       4.697   4.026  16.964  0.00  0.00    +0.000 A 
ATOM     22  C   UNL     1       5.905   4.389  17.551  0.00  0.00    +0.000 A 
ATOM     23  N   UNL     1       6.952   4.915  16.879  0.00  0.00    +0.000 NA
BRANCH  18  25
ATOM     24  C   UNL     1       7.703   5.219  13.424  0.00  0.00    +0.000 C 
ATOM     25  O   UNL     1       7.836   5.575  14.796  0.00  0.00    +0.000 OA
ENDBRANCH  18  25
ENDBRANCH   1  21
TORSDOF 3
ENDMDL
MODEL 7
REMARK VINA RESULT:      -7.3      1.822      6.506
REMARK  Name = 
REMARK  5 active torsions:
REMARK  status: ('A' for Active; 'I' for Inactive)
REMARK    1  A    between atoms: C_1  and  O_2
REMARK    2  A    between atoms: O_2  and  C_3
REMARK    3  A    between atoms: C_6  and  C_7
REMARK    4  A    between atoms: C_11  and  N_12
REMARK    5  A    between atoms: C_18  and  C_19
REMARK                            x       y       z     vdW  Elec       q    Type
REMARK                         _______ _______ _______ _____ _____    ______ ____
ROOT
ATOM      1  C   UNL     1       2.969   4.111  19.014  0.00  0.00    +0.000 C 
ATOM      2  O   UNL     1       2.743   2.801  19.568  0.00  0.00    +0.000 OA
ATOM      3  C   UNL     1       2.610   2.931  20.988  0.00  0.00    +0.000 C 
ATOM      4  C   UNL     1       2.261   4.376  21.263  0.00  0.00    +0.000 C 
ATOM      5  C   UNL     1       3.055   5.096  20.197  0.00  0.00    +0.000 C 
ENDROOT
BRANCH   5   6
ATOM      6  N   UNL     1       2.496   6.394  19.883  0.00  0.00    +0.000 N 
ATOM      7  C   UNL     1       2.877   7.176  18.833  0.00  0.00    +0.000 C 
ATOM      8  O   UNL     1       3.739   6.843  18.025  0.00  0.00    +0.000 OA
ATOM      9  N   UNL     1       2.189   8.345  18.672  0.00  0.00    +0.000 N 
ATOM     10  C   UNL     1       1.295   8.824  19.579  0.00  0.00    +0.000 A 
ATOM     11  N   UNL     1       1.038   8.366  20.786  0.00  0.00    +0.000 NA
ATOM     12  C   UNL     1       0.092   9.242  21.237  0.00  0.00    +0.000 A 
ATOM     13  C   UNL     1      -0.454   9.147  22.603  0.00  0.00    +0.000 C 
ATOM     14  N   UNL     1      -0.271  10.184  20.357  0.00  0.00    +0.000 NA
ATOM     15  O   UNL     1       0.551   9.918  19.250  0.00  0.00    +0.000 OA
ATOM     16  H   UNL     1       1.949   6.855  20.605  0.00  0.00    +0.000 HD
ATOM     17  H   UNL     1       2.351   8.870  17.828  0.00  0.00    +0.000 HD
ENDBRANCH   5   6
BRANCH   1  21
ATOM     18  C   UNL     1       6.337   4.445  16.464  0.00  0.00    +0.000 A 
ATOM     19  C   UNL     1       6.559   4.574  17.823  0.00  0.00    +0.000 A 
ATOM     20  C   UNL     1       5.474   4.436  18.683  0.00  0.00    +0.000 A 
ATOM     21  C   UNL     1       4.207   4.157  18.161  0.00  0.00    +0.000 A 
ATOM     22  C   UNL     1       4.107   4.002  16.781  0.00  0.00    +0.000 A 
ATOM     23  N   UNL     1       5.139   4.140  15.922  0.00  0.00    +0.000 NA
BRANCH  18  25
ATOM     24  C   UNL     1       7.024   4.797  14.276  0.00  0.00    +0.000 C 
ATOM     25  O   UNL     1       7.421   4.656  15.637  0.00  0.00    +0.000 OA
ENDBRANCH  18  25
ENDBRANCH   1  21
TORSDOF 3
ENDMDL
MODEL 8
REMARK VINA RESULT:      -7.3      1.845      6.582
REMARK  Name = 
REMARK  5 active torsions:
REMARK  status: ('A' for Active; 'I' for Inactive)
REMARK    1  A    between atoms: C_1  and  O_2
REMARK    2  A    between atoms: O_2  and  C_3
REMARK    3  A    between atoms: C_6  and  C_7
REMARK    4  A    between atoms: C_11  and  N_12
REMARK    5  A    between atoms: C_18  and  C_19
REMARK                            x       y       z     vdW  Elec       q    Type
REMARK                         _______ _______ _______ _____ _____    ______ ____
ROOT
ATOM      1  C   UNL     1       2.841   4.383  18.944  0.00  0.00    +0.000 C 
ATOM      2  O   UNL     1       2.675   3.049  19.464  0.00  0.00    +0.000 OA
ATOM      3  C   UNL     1       2.608   3.131  20.893  0.00  0.00    +0.000 C 
ATOM      4  C   UNL     1       2.237   4.556  21.232  0.00  0.00    +0.000 C 
ATOM      5  C   UNL     1       2.960   5.331  20.153  0.00  0.00    +0.000 C 
ENDROOT
BRANCH   5   6
ATOM      6  N   UNL     1       2.355   6.623  19.910  0.00  0.00    +0.000 N 
ATOM      7  C   UNL     1       2.649   7.440  18.858  0.00  0.00    +0.000 C 
ATOM      8  O   UNL     1       3.463   7.146  17.988  0.00  0.00    +0.000 OA
ATOM      9  N   UNL     1       1.928   8.596  18.772  0.00  0.00    +0.000 N 
ATOM     10  C   UNL     1       1.085   9.032  19.748  0.00  0.00    +0.000 A 
ATOM     11  N   UNL     1       0.918   8.538  20.956  0.00  0.00    +0.000 NA
ATOM     12  C   UNL     1      -0.016   9.381  21.491  0.00  0.00    +0.000 A 
ATOM     13  C   UNL     1      -0.469   9.240  22.886  0.00  0.00    +0.000 C 
ATOM     14  N   UNL     1      -0.455  10.336  20.661  0.00  0.00    +0.000 NA
ATOM     15  O   UNL     1       0.298  10.116  19.497  0.00  0.00    +0.000 OA
ATOM     16  H   UNL     1       1.846   7.053  20.678  0.00  0.00    +0.000 HD
ATOM     17  H   UNL     1       2.023   9.145  17.934  0.00  0.00    +0.000 HD
ENDBRANCH   5   6
BRANCH   1  21
ATOM     18  C   UNL     1       6.321   4.477  16.529  0.00  0.00    +0.000 A 
ATOM     19  C   UNL     1       5.115   4.262  15.889  0.00  0.00    +0.000 A 
ATOM     20  C   UNL     1       3.955   4.259  16.657  0.00  0.00    +0.000 A 
ATOM     21  C   UNL     1       4.034   4.488  18.034  0.00  0.00    +0.000 A 
ATOM     22  C   UNL     1       5.295   4.739  18.566  0.00  0.00    +0.000 A 
ATOM     23  N   UNL     1       6.439   4.737  17.848  0.00  0.00    +0.000 NA
BRANCH  18  25
ATOM     24  C   UNL     1       7.192   4.770  14.398  0.00  0.00    +0.000 C 
ATOM     25  O   UNL     1       7.458   4.405  15.749  0.00  0.00    +0.000 OA
ENDBRANCH  18  25
ENDBRANCH   1  21
TORSDOF 3
ENDMDL
MODEL 9
REMARK VINA RESULT:      -7.3      1.540      2.151
REMARK  Name = 
REMARK  5 active torsions:
REMARK  status: ('A' for Active; 'I' for Inactive)
REMARK    1  A    between atoms: C_1  and  O_2
REMARK    2  A    between atoms: O_2  and  C_3
REMARK    3  A    between atoms: C_6  and  C_7
REMARK    4  A    between atoms: C_11  and  N_12
REMARK    5  A    between atoms: C_18  and  C_19
REMARK                            x       y       z     vdW  Elec       q    Type
REMARK                         _______ _______ _______ _____ _____    ______ ____
ROOT
ATOM      1  C   UNL     1       2.774   5.542  19.938  0.00  0.00    +0.000 C 
ATOM      2  O   UNL     1       1.893   4.868  20.858  0.00  0.00    +0.000 OA
ATOM      3  C   UNL     1       1.525   3.609  20.284  0.00  0.00    +0.000 C 
ATOM      4  C   UNL     1       2.564   3.286  19.236  0.00  0.00    +0.000 C 
ATOM      5  C   UNL     1       2.883   4.656  18.682  0.00  0.00    +0.000 C 
ENDROOT
BRANCH   5   6
ATOM      6  N   UNL     1       4.198   4.708  18.077  0.00  0.00    +0.000 N 
ATOM      7  C   UNL     1       5.340   5.090  18.717  0.00  0.00    +0.000 C 
ATOM      8  O   UNL     1       5.368   5.420  19.898  0.00  0.00    +0.000 OA
ATOM      9  N   UNL     1       6.492   5.018  17.988  0.00  0.00    +0.000 N 
ATOM     10  C   UNL     1       6.523   4.757  16.653  0.00  0.00    +0.000 A 
ATOM     11  N   UNL     1       5.510   4.676  15.817  0.00  0.00    +0.000 NA
ATOM     12  C   UNL     1       6.131   4.427  14.626  0.00  0.00    +0.000 A 
ATOM     13  C   UNL     1       5.368   4.320  13.369  0.00  0.00    +0.000 C 
ATOM     14  N   UNL     1       7.463   4.312  14.697  0.00  0.00    +0.000 NA
ATOM     15  O   UNL     1       7.731   4.554  16.053  0.00  0.00    +0.000 OA
ATOM     16  H   UNL     1       4.246   4.675  17.062  0.00  0.00    +0.000 HD
ATOM     17  H   UNL     1       7.362   5.156  18.475  0.00  0.00    +0.000 HD
ENDBRANCH   5   6
BRANCH   1  21
ATOM     18  C   UNL     1       1.234   9.323  18.805  0.00  0.00    +0.000 A 
ATOM     19  C   UNL     1       1.141   8.979  20.141  0.00  0.00    +0.000 A 
ATOM     20  C   UNL     1       1.669   7.756  20.543  0.00  0.00    +0.000 A 
ATOM     21  C   UNL     1       2.287   6.926  19.603  0.00  0.00    +0.000 A 
ATOM     22  C   UNL     1       2.366   7.393  18.295  0.00  0.00    +0.000 A 
ATOM     23  N   UNL     1       1.854   8.569  17.873  0.00  0.00    +0.000 NA
BRANCH  18  25
ATOM     24  C   UNL     1      -0.757  10.350  18.199  0.00  0.00    +0.000 C 
ATOM     25  O   UNL     1       0.640  10.511  18.428  0.00  0.00    +0.000 OA
ENDBRANCH  18  25
ENDBRANCH   1  21
TORSDOF 3
ENDMDL
