MODEL 1
REMARK VINA RESULT:      -6.9      0.000      0.000
REMARK  Name = 
REMARK  7 active torsions:
REMARK  status: ('A' for Active; 'I' for Inactive)
REMARK    1  A    between atoms: C_1  and  C_2
REMARK    2  A    between atoms: C_2  and  C_3
REMARK    3  A    between atoms: C_2  and  O_4
REMARK    4  A    between atoms: O_4  and  C_5
REMARK    5  A    between atoms: C_7  and  N_8
REMARK    6  A    between atoms: C_12  and  C_13
REMARK    7  A    between atoms: C_17  and  C_18
REMARK                            x       y       z     vdW  Elec       q    Type
REMARK                         _______ _______ _______ _____ _____    ______ ____
ROOT
ATOM      1  C   UNL     1       3.591   6.769  17.734  0.00  0.00    +0.000 A 
ATOM      2  C   UNL     1       3.644   5.651  18.558  0.00  0.00    +0.000 A 
ATOM      3  C   UNL     1       2.907   5.583  19.724  0.00  0.00    +0.000 A 
ATOM      4  N   UNL     1       2.166   6.630  20.110  0.00  0.00    +0.000 NA
ATOM      5  C   UNL     1       2.136   7.767  19.365  0.00  0.00    +0.000 A 
ATOM      6  C   UNL     1       1.452   8.914  19.810  0.00  0.00    +0.000 A 
ATOM      7  N   UNL     1       1.367  10.086  19.129  0.00  0.00    +0.000 NA
ATOM      8  C   UNL     1       1.986  10.134  17.936  0.00  0.00    +0.000 A 
ATOM      9  C   UNL     1       2.718   9.082  17.413  0.00  0.00    +0.000 A 
ATOM     10  C   UNL     1       2.814   7.879  18.138  0.00  0.00    +0.000 A 
ENDROOT
BRANCH   3  11
ATOM     11  N   UNL     1       2.966   4.467  20.522  0.00  0.00    +0.000 N 
ATOM     12  C   UNL     1       1.996   4.259  21.599  0.00  0.00    +0.000 C 
ATOM     13  C   UNL     1       1.172   2.990  21.350  0.00  0.00    +0.000 C 
ATOM     14  O   UNL     1       2.002   1.845  21.093  0.00  0.00    +0.000 OA
ATOM     15  C   UNL     1       2.906   2.044  19.991  0.00  0.00    +0.000 C 
ATOM     16  C   UNL     1       2.168   2.037  18.654  0.00  0.00    +0.000 C 
ATOM     17  C   UNL     1       3.784   3.298  20.186  0.00  0.00    +0.000 C 
ENDBRANCH   3  11
BRANCH   6  18
ATOM     18  C   UNL     1       0.819   8.958  21.131  0.00  0.00    +0.000 A 
ATOM     19  C   UNL     1      -0.496   8.850  21.538  0.00  0.00    +0.000 A 
ATOM     20  C   UNL     1      -0.479   9.111  22.923  0.00  0.00    +0.000 A 
ATOM     21  N   UNL     1       0.754   9.330  23.385  0.00  0.00    +0.000 NA
ATOM     22  N   UNL     1       1.517   9.227  22.283  0.00  0.00    +0.000 N 
ATOM     23  H   UNL     1       2.516   9.402  22.351  0.00  0.00    +0.000 HD
ENDBRANCH   6  18
BRANCH   1  24
ATOM     24  O   UNL     1       4.286   6.865  16.549  0.00  0.00    +0.000 OA
BRANCH  24  26
ATOM     25  C   UNL     1       5.548   5.648  14.899  0.00  0.00    +0.000 C 
ATOM     26  C   UNL     1       5.457   6.041  16.370  0.00  0.00    +0.000 C 
ATOM     27  C   UNL     1       6.706   6.805  16.802  0.00  0.00    +0.000 C 
ENDBRANCH  24  26
ENDBRANCH   1  24
TORSDOF 4
ENDMDL
MODEL 2
REMARK VINA RESULT:      -6.5      5.791      8.450
REMARK  Name = 
REMARK  7 active torsions:
REMARK  status: ('A' for Active; 'I' for Inactive)
REMARK    1  A    between atoms: C_1  and  C_2
REMARK    2  A    between atoms: C_2  and  C_3
REMARK    3  A    between atoms: C_2  and  O_4
REMARK    4  A    between atoms: O_4  and  C_5
REMARK    5  A    between atoms: C_7  and  N_8
REMARK    6  A    between atoms: C_12  and  C_13
REMARK    7  A    between atoms: C_17  and  C_18
REMARK                            x       y       z     vdW  Elec       q    Type
REMARK                         _______ _______ _______ _____ _____    ______ ____
ROOT
ATOM      1  C   UNL     1      -1.014  10.587  18.154  0.00  0.00    +0.000 A 
ATOM      2  C   UNL     1      -1.044  11.339  19.322  0.00  0.00    +0.000 A 
ATOM      3  C   UNL     1      -2.193  11.992  19.726  0.00  0.00    +0.000 A 
ATOM      4  N   UNL     1      -3.289  11.956  18.957  0.00  0.00    +0.000 NA
ATOM      5  C   UNL     1      -3.282  11.284  17.775  0.00  0.00    +0.000 A 
ATOM      6  C   UNL     1      -4.388  11.326  16.905  0.00  0.00    +0.000 A 
ATOM      7  N   UNL     1      -4.467  10.683  15.712  0.00  0.00    +0.000 NA
ATOM      8  C   UNL     1      -3.400   9.948  15.353  0.00  0.00    +0.000 A 
ATOM      9  C   UNL     1      -2.245   9.860  16.111  0.00  0.00    +0.000 A 
ATOM     10  C   UNL     1      -2.168  10.548  17.336  0.00  0.00    +0.000 A 
ENDROOT
BRANCH   3  11
ATOM     11  N   UNL     1      -2.206  12.725  20.887  0.00  0.00    +0.000 N 
ATOM     12  C   UNL     1      -3.469  13.131  21.507  0.00  0.00    +0.000 C 
ATOM     13  C   UNL     1      -3.613  12.512  22.901  0.00  0.00    +0.000 C 
ATOM     14  O   UNL     1      -2.461  12.757  23.727  0.00  0.00    +0.000 OA
ATOM     15  C   UNL     1      -1.236  12.295  23.130  0.00  0.00    +0.000 C 
ATOM     16  C   UNL     1      -1.148  10.770  23.143  0.00  0.00    +0.000 C 
ATOM     17  C   UNL     1      -1.017  12.897  21.726  0.00  0.00    +0.000 C 
ENDBRANCH   3  11
BRANCH   6  18
ATOM     18  C   UNL     1      -5.554  12.166  17.195  0.00  0.00    +0.000 A 
ATOM     19  C   UNL     1      -6.725  11.926  17.887  0.00  0.00    +0.000 A 
ATOM     20  C   UNL     1      -7.511  13.081  17.700  0.00  0.00    +0.000 A 
ATOM     21  N   UNL     1      -6.882  14.012  16.979  0.00  0.00    +0.000 NA
ATOM     22  N   UNL     1      -5.702  13.435  16.692  0.00  0.00    +0.000 N 
ATOM     23  H   UNL     1      -5.039  13.925  16.098  0.00  0.00    +0.000 HD
ENDBRANCH   6  18
BRANCH   1  24
ATOM     24  O   UNL     1       0.099   9.896  17.731  0.00  0.00    +0.000 OA
BRANCH  24  26
ATOM     25  C   UNL     1       1.998   8.601  18.448  0.00  0.00    +0.000 C 
ATOM     26  C   UNL     1       1.290   9.949  18.544  0.00  0.00    +0.000 C 
ATOM     27  C   UNL     1       2.204  11.073  18.060  0.00  0.00    +0.000 C 
ENDBRANCH  24  26
ENDBRANCH   1  24
TORSDOF 4
ENDMDL
MODEL 3
REMARK VINA RESULT:      -6.5      6.379      8.952
REMARK  Name = 
REMARK  7 active torsions:
REMARK  status: ('A' for Active; 'I' for Inactive)
REMARK    1  A    between atoms: C_1  and  C_2
REMARK    2  A    between atoms: C_2  and  C_3
REMARK    3  A    between atoms: C_2  and  O_4
REMARK    4  A    between atoms: O_4  and  C_5
REMARK    5  A    between atoms: C_7  and  N_8
REMARK    6  A    between atoms: C_12  and  C_13
REMARK    7  A    between atoms: C_17  and  C_18
REMARK                            x       y       z     vdW  Elec       q    Type
REMARK                         _______ _______ _______ _____ _____    ______ ____
ROOT
ATOM      1  C   UNL     1      -3.654  11.847  18.087  0.00  0.00    +0.000 A 
ATOM      2  C   UNL     1      -2.601  11.932  18.990  0.00  0.00    +0.000 A 
ATOM      3  C   UNL     1      -2.825  12.159  20.334  0.00  0.00    +0.000 A 
ATOM      4  N   UNL     1      -4.071  12.359  20.781  0.00  0.00    +0.000 NA
ATOM      5  C   UNL     1      -5.124  12.346  19.921  0.00  0.00    +0.000 A 
ATOM      6  C   UNL     1      -6.425  12.663  20.354  0.00  0.00    +0.000 A 
ATOM      7  N   UNL     1      -7.530  12.670  19.566  0.00  0.00    +0.000 NA
ATOM      8  C   UNL     1      -7.351  12.341  18.275  0.00  0.00    +0.000 A 
ATOM      9  C   UNL     1      -6.113  12.045  17.729  0.00  0.00    +0.000 A 
ATOM     10  C   UNL     1      -4.972  12.061  18.553  0.00  0.00    +0.000 A 
ENDROOT
BRANCH   3  11
ATOM     11  N   UNL     1      -1.772  12.233  21.213  0.00  0.00    +0.000 N 
ATOM     12  C   UNL     1      -1.975  12.030  22.649  0.00  0.00    +0.000 C 
ATOM     13  C   UNL     1      -1.189  10.808  23.140  0.00  0.00    +0.000 C 
ATOM     14  O   UNL     1       0.196  10.861  22.755  0.00  0.00    +0.000 OA
ATOM     15  C   UNL     1       0.377  10.998  21.335  0.00  0.00    +0.000 C 
ATOM     16  C   UNL     1       0.033   9.704  20.599  0.00  0.00    +0.000 C 
ATOM     17  C   UNL     1      -0.374  12.224  20.774  0.00  0.00    +0.000 C 
ENDBRANCH   3  11
BRANCH   6  18
ATOM     18  C   UNL     1      -6.684  13.103  21.728  0.00  0.00    +0.000 A 
ATOM     19  C   UNL     1      -7.193  14.276  22.250  0.00  0.00    +0.000 A 
ATOM     20  C   UNL     1      -7.071  14.145  23.648  0.00  0.00    +0.000 A 
ATOM     21  N   UNL     1      -6.561  12.965  24.006  0.00  0.00    +0.000 NA
ATOM     22  N   UNL     1      -6.342  12.355  22.827  0.00  0.00    +0.000 N 
ATOM     23  H   UNL     1      -5.902  11.438  22.816  0.00  0.00    +0.000 HD
ENDBRANCH   6  18
BRANCH   1  24
ATOM     24  O   UNL     1      -3.477  11.592  16.746  0.00  0.00    +0.000 OA
BRANCH  24  26
ATOM     25  C   UNL     1      -3.265  10.185  14.804  0.00  0.00    +0.000 C 
ATOM     26  C   UNL     1      -3.246  10.230  16.329  0.00  0.00    +0.000 C 
ATOM     27  C   UNL     1      -1.903   9.740  16.866  0.00  0.00    +0.000 C 
ENDBRANCH  24  26
ENDBRANCH   1  24
TORSDOF 4
ENDMDL
MODEL 4
REMARK VINA RESULT:      -6.5      3.058      6.245
REMARK  Name = 
REMARK  7 active torsions:
REMARK  status: ('A' for Active; 'I' for Inactive)
REMARK    1  A    between atoms: C_1  and  C_2
REMARK    2  A    between atoms: C_2  and  C_3
REMARK    3  A    between atoms: C_2  and  O_4
REMARK    4  A    between atoms: O_4  and  C_5
REMARK    5  A    between atoms: C_7  and  N_8
REMARK    6  A    between atoms: C_12  and  C_13
REMARK    7  A    between atoms: C_17  and  C_18
REMARK                            x       y       z     vdW  Elec       q    Type
REMARK                         _______ _______ _______ _____ _____    ______ ____
ROOT
ATOM      1  C   UNL     1       2.644   7.439  18.684  0.00  0.00    +0.000 A 
ATOM      2  C   UNL     1       3.736   7.465  17.824  0.00  0.00    +0.000 A 
ATOM      3  C   UNL     1       4.427   6.312  17.508  0.00  0.00    +0.000 A 
ATOM      4  N   UNL     1       4.086   5.149  18.078  0.00  0.00    +0.000 NA
ATOM      5  C   UNL     1       3.064   5.092  18.973  0.00  0.00    +0.000 A 
ATOM      6  C   UNL     1       2.762   3.902  19.662  0.00  0.00    +0.000 A 
ATOM      7  N   UNL     1       1.760   3.756  20.566  0.00  0.00    +0.000 NA
ATOM      8  C   UNL     1       1.002   4.841  20.804  0.00  0.00    +0.000 A 
ATOM      9  C   UNL     1       1.226   6.072  20.212  0.00  0.00    +0.000 A 
ATOM     10  C   UNL     1       2.281   6.215  19.292  0.00  0.00    +0.000 A 
ENDROOT
BRANCH   3  11
ATOM     11  N   UNL     1       5.499   6.355  16.651  0.00  0.00    +0.000 N 
ATOM     12  C   UNL     1       6.871   6.402  17.161  0.00  0.00    +0.000 C 
ATOM     13  C   UNL     1       7.656   5.162  16.720  0.00  0.00    +0.000 C 
ATOM     14  O   UNL     1       7.577   4.945  15.300  0.00  0.00    +0.000 OA
ATOM     15  C   UNL     1       6.224   4.839  14.825  0.00  0.00    +0.000 C 
ATOM     16  C   UNL     1       5.584   3.517  15.247  0.00  0.00    +0.000 C 
ATOM     17  C   UNL     1       5.377   6.067  15.218  0.00  0.00    +0.000 C 
ENDBRANCH   3  11
BRANCH   6  18
ATOM     18  C   UNL     1       3.591   2.702  19.510  0.00  0.00    +0.000 A 
ATOM     19  C   UNL     1       3.545   1.645  18.622  0.00  0.00    +0.000 A 
ATOM     20  C   UNL     1       4.525   0.738  19.073  0.00  0.00    +0.000 A 
ATOM     21  N   UNL     1       5.183   1.191  20.143  0.00  0.00    +0.000 NA
ATOM     22  N   UNL     1       4.602   2.380  20.381  0.00  0.00    +0.000 N 
ATOM     23  H   UNL     1       4.891   2.922  21.191  0.00  0.00    +0.000 HD
ENDBRANCH   6  18
BRANCH   1  24
ATOM     24  O   UNL     1       1.909   8.560  19.001  0.00  0.00    +0.000 OA
BRANCH  24  26
ATOM     25  C   UNL     1      -0.007   9.620  18.002  0.00  0.00    +0.000 C 
ATOM     26  C   UNL     1       1.507   9.443  17.934  0.00  0.00    +0.000 C 
ATOM     27  C   UNL     1       2.213  10.790  18.075  0.00  0.00    +0.000 C 
ENDBRANCH  24  26
ENDBRANCH   1  24
TORSDOF 4
ENDMDL
MODEL 5
REMARK VINA RESULT:      -6.4      5.454      9.196
REMARK  Name = 
REMARK  7 active torsions:
REMARK  status: ('A' for Active; 'I' for Inactive)
REMARK    1  A    between atoms: C_1  and  C_2
REMARK    2  A    between atoms: C_2  and  C_3
REMARK    3  A    between atoms: C_2  and  O_4
REMARK    4  A    between atoms: O_4  and  C_5
REMARK    5  A    between atoms: C_7  and  N_8
REMARK    6  A    between atoms: C_12  and  C_13
REMARK    7  A    between atoms: C_17  and  C_18
REMARK                            x       y       z     vdW  Elec       q    Type
REMARK                         _______ _______ _______ _____ _____    ______ ____
ROOT
ATOM      1  C   UNL     1      -3.337  13.018  21.689  0.00  0.00    +0.000 A 
ATOM      2  C   UNL     1      -2.063  12.465  21.754  0.00  0.00    +0.000 A 
ATOM      3  C   UNL     1      -1.495  11.842  20.661  0.00  0.00    +0.000 A 
ATOM      4  N   UNL     1      -2.195  11.710  19.526  0.00  0.00    +0.000 NA
ATOM      5  C   UNL     1      -3.467  12.181  19.441  0.00  0.00    +0.000 A 
ATOM      6  C   UNL     1      -4.255  11.954  18.296  0.00  0.00    +0.000 A 
ATOM      7  N   UNL     1      -5.529  12.391  18.127  0.00  0.00    +0.000 NA
ATOM      8  C   UNL     1      -6.062  13.099  19.138  0.00  0.00    +0.000 A 
ATOM      9  C   UNL     1      -5.396  13.353  20.325  0.00  0.00    +0.000 A 
ATOM     10  C   UNL     1      -4.082  12.878  20.496  0.00  0.00    +0.000 A 
ENDROOT
BRANCH   3  11
ATOM     11  N   UNL     1      -0.232  11.309  20.741  0.00  0.00    +0.000 N 
ATOM     12  C   UNL     1       0.075  10.240  21.693  0.00  0.00    +0.000 C 
ATOM     13  C   UNL     1       0.509   8.967  20.958  0.00  0.00    +0.000 C 
ATOM     14  O   UNL     1       1.564   9.217  20.013  0.00  0.00    +0.000 OA
ATOM     15  C   UNL     1       1.221  10.225  19.046  0.00  0.00    +0.000 C 
ATOM     16  C   UNL     1       0.193   9.710  18.039  0.00  0.00    +0.000 C 
ATOM     17  C   UNL     1       0.792  11.546  19.719  0.00  0.00    +0.000 C 
ENDBRANCH   3  11
BRANCH   6  18
ATOM     18  C   UNL     1      -3.767  11.129  17.188  0.00  0.00    +0.000 A 
ATOM     19  C   UNL     1      -3.392   9.802  17.109  0.00  0.00    +0.000 A 
ATOM     20  C   UNL     1      -2.887   9.635  15.804  0.00  0.00    +0.000 A 
ATOM     21  N   UNL     1      -2.966  10.754  15.081  0.00  0.00    +0.000 NA
ATOM     22  N   UNL     1      -3.506  11.637  15.939  0.00  0.00    +0.000 N 
ATOM     23  H   UNL     1      -3.631  12.603  15.647  0.00  0.00    +0.000 HD
ENDBRANCH   6  18
BRANCH   1  24
ATOM     24  O   UNL     1      -3.928  13.673  22.746  0.00  0.00    +0.000 OA
BRANCH  24  26
ATOM     25  C   UNL     1      -3.362  14.681  24.858  0.00  0.00    +0.000 C 
ATOM     26  C   UNL     1      -3.474  13.372  24.082  0.00  0.00    +0.000 C 
ATOM     27  C   UNL     1      -4.455  12.423  24.767  0.00  0.00    +0.000 C 
ENDBRANCH  24  26
ENDBRANCH   1  24
TORSDOF 4
ENDMDL
MODEL 6
REMARK VINA RESULT:      -6.4      6.129     10.041
REMARK  Name = 
REMARK  7 active torsions:
REMARK  status: ('A' for Active; 'I' for Inactive)
REMARK    1  A    between atoms: C_1  and  C_2
REMARK    2  A    between atoms: C_2  and  C_3
REMARK    3  A    between atoms: C_2  and  O_4
REMARK    4  A    between atoms: O_4  and  C_5
REMARK    5  A    between atoms: C_7  and  N_8
REMARK    6  A    between atoms: C_12  and  C_13
REMARK    7  A    between atoms: C_17  and  C_18
REMARK                            x       y       z     vdW  Elec       q    Type
REMARK                         _______ _______ _______ _____ _____    ______ ____
ROOT
ATOM      1  C   UNL     1      -4.665  13.101  21.614  0.00  0.00    +0.000 A 
ATOM      2  C   UNL     1      -3.295  12.948  21.790  0.00  0.00    +0.000 A 
ATOM      3  C   UNL     1      -2.485  12.505  20.763  0.00  0.00    +0.000 A 
ATOM      4  N   UNL     1      -3.023  12.158  19.587  0.00  0.00    +0.000 NA
ATOM      5  C   UNL     1      -4.367  12.233  19.393  0.00  0.00    +0.000 A 
ATOM      6  C   UNL     1      -4.960  11.771  18.204  0.00  0.00    +0.000 A 
ATOM      7  N   UNL     1      -6.289  11.812  17.927  0.00  0.00    +0.000 NA
ATOM      8  C   UNL     1      -7.084  12.345  18.871  0.00  0.00    +0.000 A 
ATOM      9  C   UNL     1      -6.617  12.800  20.093  0.00  0.00    +0.000 A 
ATOM     10  C   UNL     1      -5.240  12.733  20.375  0.00  0.00    +0.000 A 
ENDROOT
BRANCH   3  11
ATOM     11  N   UNL     1      -1.131  12.367  20.953  0.00  0.00    +0.000 N 
ATOM     12  C   UNL     1      -0.601  11.738  22.165  0.00  0.00    +0.000 C 
ATOM     13  C   UNL     1       0.181  10.466  21.818  0.00  0.00    +0.000 C 
ATOM     14  O   UNL     1       1.176  10.698  20.806  0.00  0.00    +0.000 OA
ATOM     15  C   UNL     1       0.628  11.258  19.600  0.00  0.00    +0.000 C 
ATOM     16  C   UNL     1      -0.184  10.224  18.822  0.00  0.00    +0.000 C 
ATOM     17  C   UNL     1      -0.159  12.557  19.873  0.00  0.00    +0.000 C 
ENDBRANCH   3  11
BRANCH   6  18
ATOM     18  C   UNL     1      -4.167  11.110  17.163  0.00  0.00    +0.000 A 
ATOM     19  C   UNL     1      -3.485   9.909  17.133  0.00  0.00    +0.000 A 
ATOM     20  C   UNL     1      -2.805   9.898  15.899  0.00  0.00    +0.000 A 
ATOM     21  N   UNL     1      -3.059  10.986  15.169  0.00  0.00    +0.000 NA
ATOM     22  N   UNL     1      -3.887  11.698  15.954  0.00  0.00    +0.000 N 
ATOM     23  H   UNL     1      -4.199  12.615  15.647  0.00  0.00    +0.000 HD
ENDBRANCH   6  18
BRANCH   1  24
ATOM     24  O   UNL     1      -5.504  13.569  22.601  0.00  0.00    +0.000 OA
BRANCH  24  26
ATOM     25  C   UNL     1      -5.022  12.533  24.720  0.00  0.00    +0.000 C 
ATOM     26  C   UNL     1      -6.017  12.629  23.568  0.00  0.00    +0.000 C 
ATOM     27  C   UNL     1      -7.382  13.092  24.073  0.00  0.00    +0.000 C 
ENDBRANCH  24  26
ENDBRANCH   1  24
TORSDOF 4
ENDMDL
MODEL 7
REMARK VINA RESULT:      -6.4      6.508     10.333
REMARK  Name = 
REMARK  7 active torsions:
REMARK  status: ('A' for Active; 'I' for Inactive)
REMARK    1  A    between atoms: C_1  and  C_2
REMARK    2  A    between atoms: C_2  and  C_3
REMARK    3  A    between atoms: C_2  and  O_4
REMARK    4  A    between atoms: O_4  and  C_5
REMARK    5  A    between atoms: C_7  and  N_8
REMARK    6  A    between atoms: C_12  and  C_13
REMARK    7  A    between atoms: C_17  and  C_18
REMARK                            x       y       z     vdW  Elec       q    Type
REMARK                         _______ _______ _______ _____ _____    ______ ____
ROOT
ATOM      1  C   UNL     1      -5.257  13.089  21.705  0.00  0.00    +0.000 A 
ATOM      2  C   UNL     1      -3.932  12.924  22.093  0.00  0.00    +0.000 A 
ATOM      3  C   UNL     1      -2.973  12.485  21.202  0.00  0.00    +0.000 A 
ATOM      4  N   UNL     1      -3.322  12.153  19.952  0.00  0.00    +0.000 NA
ATOM      5  C   UNL     1      -4.619  12.239  19.550  0.00  0.00    +0.000 A 
ATOM      6  C   UNL     1      -5.020  11.792  18.278  0.00  0.00    +0.000 A 
ATOM      7  N   UNL     1      -6.289  11.845  17.797  0.00  0.00    +0.000 NA
ATOM      8  C   UNL     1      -7.219  12.375  18.610  0.00  0.00    +0.000 A 
ATOM      9  C   UNL     1      -6.948  12.815  19.894  0.00  0.00    +0.000 A 
ATOM     10  C   UNL     1      -5.632  12.736  20.388  0.00  0.00    +0.000 A 
ENDROOT
BRANCH   3  11
ATOM     11  N   UNL     1      -1.668  12.335  21.600  0.00  0.00    +0.000 N 
ATOM     12  C   UNL     1      -1.341  11.877  22.952  0.00  0.00    +0.000 C 
ATOM     13  C   UNL     1      -0.584  10.545  22.904  0.00  0.00    +0.000 C 
ATOM     14  O   UNL     1       0.551  10.594  22.022  0.00  0.00    +0.000 OA
ATOM     15  C   UNL     1       0.202  10.986  20.683  0.00  0.00    +0.000 C 
ATOM     16  C   UNL     1      -0.548   9.873  19.952  0.00  0.00    +0.000 C 
ATOM     17  C   UNL     1      -0.548  12.334  20.654  0.00  0.00    +0.000 C 
ENDBRANCH   3  11
BRANCH   6  18
ATOM     18  C   UNL     1      -4.077  11.135  17.368  0.00  0.00    +0.000 A 
ATOM     19  C   UNL     1      -3.377   9.947  17.450  0.00  0.00    +0.000 A 
ATOM     20  C   UNL     1      -2.531   9.936  16.324  0.00  0.00    +0.000 A 
ATOM     21  N   UNL     1      -2.698  11.011  15.551  0.00  0.00    +0.000 NA
ATOM     22  N   UNL     1      -3.640  11.715  16.202  0.00  0.00    +0.000 N 
ATOM     23  H   UNL     1      -3.922  12.623  15.842  0.00  0.00    +0.000 HD
ENDBRANCH   6  18
BRANCH   1  24
ATOM     24  O   UNL     1      -6.238  13.552  22.554  0.00  0.00    +0.000 OA
BRANCH  24  26
ATOM     25  C   UNL     1      -7.916  15.273  22.681  0.00  0.00    +0.000 C 
ATOM     26  C   UNL     1      -6.420  14.978  22.680  0.00  0.00    +0.000 C 
ATOM     27  C   UNL     1      -5.772  15.475  23.971  0.00  0.00    +0.000 C 
ENDBRANCH  24  26
ENDBRANCH   1  24
TORSDOF 4
ENDMDL
MODEL 8
REMARK VINA RESULT:      -6.3      6.371      9.272
REMARK  Name = 
REMARK  7 active torsions:
REMARK  status: ('A' for Active; 'I' for Inactive)
REMARK    1  A    between atoms: C_1  and  C_2
REMARK    2  A    between atoms: C_2  and  C_3
REMARK    3  A    between atoms: C_2  and  O_4
REMARK    4  A    between atoms: O_4  and  C_5
REMARK    5  A    between atoms: C_7  and  N_8
REMARK    6  A    between atoms: C_12  and  C_13
REMARK    7  A    between atoms: C_17  and  C_18
REMARK                            x       y       z     vdW  Elec       q    Type
REMARK                         _______ _______ _______ _____ _____    ______ ____
ROOT
ATOM      1  C   UNL     1      -1.041  11.464  18.923  0.00  0.00    +0.000 A 
ATOM      2  C   UNL     1      -1.297  12.138  20.112  0.00  0.00    +0.000 A 
ATOM      3  C   UNL     1      -2.577  12.524  20.455  0.00  0.00    +0.000 A 
ATOM      4  N   UNL     1      -3.593  12.303  19.611  0.00  0.00    +0.000 NA
ATOM      5  C   UNL     1      -3.376  11.703  18.411  0.00  0.00    +0.000 A 
ATOM      6  C   UNL     1      -4.410  11.561  17.467  0.00  0.00    +0.000 A 
ATOM      7  N   UNL     1      -4.282  10.972  16.251  0.00  0.00    +0.000 NA
ATOM      8  C   UNL     1      -3.066  10.487  15.943  0.00  0.00    +0.000 A 
ATOM      9  C   UNL     1      -1.967  10.600  16.776  0.00  0.00    +0.000 A 
ATOM     10  C   UNL     1      -2.109  11.230  18.026  0.00  0.00    +0.000 A 
ENDROOT
BRANCH   3  11
ATOM     11  N   UNL     1      -2.813  13.183  21.637  0.00  0.00    +0.000 N 
ATOM     12  C   UNL     1      -2.712  14.642  21.719  0.00  0.00    +0.000 C 
ATOM     13  C   UNL     1      -4.064  15.258  22.095  0.00  0.00    +0.000 C 
ATOM     14  O   UNL     1      -4.631  14.653  23.270  0.00  0.00    +0.000 OA
ATOM     15  C   UNL     1      -4.781  13.227  23.148  0.00  0.00    +0.000 C 
ATOM     16  C   UNL     1      -5.915  12.863  22.191  0.00  0.00    +0.000 C 
ATOM     17  C   UNL     1      -3.448  12.537  22.789  0.00  0.00    +0.000 C 
ENDBRANCH   3  11
BRANCH   6  18
ATOM     18  C   UNL     1      -5.740  12.131  17.703  0.00  0.00    +0.000 A 
ATOM     19  C   UNL     1      -6.442  13.145  17.082  0.00  0.00    +0.000 A 
ATOM     20  C   UNL     1      -7.609  13.316  17.853  0.00  0.00    +0.000 A 
ATOM     21  N   UNL     1      -7.678  12.453  18.869  0.00  0.00    +0.000 NA
ATOM     22  N   UNL     1      -6.540  11.748  18.752  0.00  0.00    +0.000 N 
ATOM     23  H   UNL     1      -6.318  11.041  19.447  0.00  0.00    +0.000 HD
ENDBRANCH   6  18
BRANCH   1  24
ATOM     24  O   UNL     1       0.215  11.034  18.557  0.00  0.00    +0.000 OA
BRANCH  24  26
ATOM     25  C   UNL     1       1.737   9.297  17.877  0.00  0.00    +0.000 C 
ATOM     26  C   UNL     1       0.563   9.653  18.785  0.00  0.00    +0.000 C 
ATOM     27  C   UNL     1       0.934   9.441  20.251  0.00  0.00    +0.000 C 
ENDBRANCH  24  26
ENDBRANCH   1  24
TORSDOF 4
ENDMDL
MODEL 9
REMARK VINA RESULT:      -6.2      6.166      8.835
REMARK  Name = 
REMARK  7 active torsions:
REMARK  status: ('A' for Active; 'I' for Inactive)
REMARK    1  A    between atoms: C_1  and  C_2
REMARK    2  A    between atoms: C_2  and  C_3
REMARK    3  A    between atoms: C_2  and  O_4
REMARK    4  A    between atoms: O_4  and  C_5
REMARK    5  A    between atoms: C_7  and  N_8
REMARK    6  A    between atoms: C_12  and  C_13
REMARK    7  A    between atoms: C_17  and  C_18
REMARK                            x       y       z     vdW  Elec       q    Type
REMARK                         _______ _______ _______ _____ _____    ______ ____
ROOT
ATOM      1  C   UNL     1      -3.919  11.560  17.448  0.00  0.00    +0.000 A 
ATOM      2  C   UNL     1      -2.646  11.801  17.952  0.00  0.00    +0.000 A 
ATOM      3  C   UNL     1      -2.455  12.190  19.263  0.00  0.00    +0.000 A 
ATOM      4  N   UNL     1      -3.511  12.398  20.060  0.00  0.00    +0.000 NA
ATOM      5  C   UNL     1      -4.776  12.234  19.589  0.00  0.00    +0.000 A 
ATOM      6  C   UNL     1      -5.896  12.554  20.378  0.00  0.00    +0.000 A 
ATOM      7  N   UNL     1      -7.190  12.417  19.989  0.00  0.00    +0.000 NA
ATOM      8  C   UNL     1      -7.398  11.931  18.752  0.00  0.00    +0.000 A 
ATOM      9  C   UNL     1      -6.374  11.616  17.875  0.00  0.00    +0.000 A 
ATOM     10  C   UNL     1      -5.037  11.782  18.284  0.00  0.00    +0.000 A 
ENDROOT
BRANCH   3  11
ATOM     11  N   UNL     1      -1.189  12.416  19.746  0.00  0.00    +0.000 N 
ATOM     12  C   UNL     1      -0.980  13.161  20.989  0.00  0.00    +0.000 C 
ATOM     13  C   UNL     1      -0.300  12.279  22.042  0.00  0.00    +0.000 C 
ATOM     14  O   UNL     1       0.892  11.651  21.538  0.00  0.00    +0.000 OA
ATOM     15  C   UNL     1       0.655  10.872  20.352  0.00  0.00    +0.000 C 
ATOM     16  C   UNL     1      -0.107   9.586  20.669  0.00  0.00    +0.000 C 
ATOM     17  C   UNL     1      -0.012  11.706  19.239  0.00  0.00    +0.000 C 
ENDBRANCH   3  11
BRANCH   6  18
ATOM     18  C   UNL     1      -5.746  13.157  21.706  0.00  0.00    +0.000 A 
ATOM     19  C   UNL     1      -6.037  14.415  22.195  0.00  0.00    +0.000 A 
ATOM     20  C   UNL     1      -5.540  14.425  23.514  0.00  0.00    +0.000 A 
ATOM     21  N   UNL     1      -5.006  13.253  23.865  0.00  0.00    +0.000 NA
ATOM     22  N   UNL     1      -5.149  12.505  22.756  0.00  0.00    +0.000 N 
ATOM     23  H   UNL     1      -4.772  11.562  22.741  0.00  0.00    +0.000 HD
ENDBRANCH   6  18
BRANCH   1  24
ATOM     24  O   UNL     1      -4.151  11.141  16.157  0.00  0.00    +0.000 OA
BRANCH  24  26
ATOM     25  C   UNL     1      -2.572   9.324  16.195  0.00  0.00    +0.000 C 
ATOM     26  C   UNL     1      -3.062  10.544  15.421  0.00  0.00    +0.000 C 
ATOM     27  C   UNL     1      -3.532  10.144  14.025  0.00  0.00    +0.000 C 
ENDBRANCH  24  26
ENDBRANCH   1  24
TORSDOF 4
ENDMDL
