MODEL 1
REMARK VINA RESULT:      -7.5      0.000      0.000
REMARK  Name = 
REMARK  5 active torsions:
REMARK  status: ('A' for Active; 'I' for Inactive)
REMARK    1  A    between atoms: C_2  and  C_3
REMARK    2  A    between atoms: C_3  and  N_4
REMARK    3  A    between atoms: N_4  and  C_5
REMARK    4  A    between atoms: N_12  and  N_13
REMARK    5  A    between atoms: C_14  and  C_15
REMARK                            x       y       z     vdW  Elec       q    Type
REMARK                         _______ _______ _______ _____ _____    ______ ____
ROOT
ATOM      1  O   UNL     1       8.101   5.492  19.516  0.00  0.00    +0.000 OA
ATOM      2  C   UNL     1       7.544   5.876  18.489  0.00  0.00    +0.000 C 
ATOM      3  N   UNL     1       7.652   7.156  17.957  0.00  0.00    +0.000 N 
ATOM      4  H   UNL     1       7.166   7.408  17.104  0.00  0.00    +0.000 HD
ENDROOT
BRANCH   3   5
ATOM      5  N   UNL     1       8.450   8.071  18.574  0.00  0.00    +0.000 NA
ATOM      6  C   UNL     1       8.397   9.278  18.112  0.00  0.00    +0.000 C 
BRANCH   6   7
ATOM      7  C   UNL     1       9.201  10.363  18.704  0.00  0.00    +0.000 A 
ATOM      8  C   UNL     1       9.942  11.224  17.897  0.00  0.00    +0.000 A 
ATOM      9  C   UNL     1      10.687  12.205  18.523  0.00  0.00    +0.000 A 
ATOM     10  N   UNL     1      10.732  12.369  19.865  0.00  0.00    +0.000 NA
ATOM     11  C   UNL     1       9.999  11.520  20.615  0.00  0.00    +0.000 A 
ATOM     12  C   UNL     1       9.218  10.508  20.088  0.00  0.00    +0.000 A 
ENDBRANCH   6   7
ENDBRANCH   3   5
BRANCH   2  13
ATOM     13  C   UNL     1       6.651   4.956  17.659  0.00  0.00    +0.000 C 
BRANCH  13  14
ATOM     14  N   UNL     1       6.018   3.913  18.478  0.00  0.00    +0.000 N 
ATOM     15  H   UNL     1       6.493   3.730  19.360  0.00  0.00    +0.000 HD
BRANCH  14  16
ATOM     16  C   UNL     1       4.622   3.921  18.575  0.00  0.00    +0.000 A 
ATOM     17  C   UNL     1       3.813   4.691  17.724  0.00  0.00    +0.000 A 
ATOM     18  C   UNL     1       2.417   4.667  17.816  0.00  0.00    +0.000 A 
ATOM     19  C   UNL     1       1.802   3.846  18.750  0.00  0.00    +0.000 A 
ATOM     20  C   UNL     1       2.588   3.037  19.561  0.00  0.00    +0.000 A 
ATOM     21  F   UNL     1       1.998   2.225  20.446  0.00  0.00    +0.000 F 
ATOM     22  C   UNL     1       3.980   3.055  19.467  0.00  0.00    +0.000 A 
ENDBRANCH  14  16
ENDBRANCH  13  14
ENDBRANCH   2  13
TORSDOF 5
ENDMDL
MODEL 2
REMARK VINA RESULT:      -7.2      1.359      1.630
REMARK  Name = 
REMARK  5 active torsions:
REMARK  status: ('A' for Active; 'I' for Inactive)
REMARK    1  A    between atoms: C_2  and  C_3
REMARK    2  A    between atoms: C_3  and  N_4
REMARK    3  A    between atoms: N_4  and  C_5
REMARK    4  A    between atoms: N_12  and  N_13
REMARK    5  A    between atoms: C_14  and  C_15
REMARK                            x       y       z     vdW  Elec       q    Type
REMARK                         _______ _______ _______ _____ _____    ______ ____
ROOT
ATOM      1  O   UNL     1       7.885   5.652  18.649  0.00  0.00    +0.000 OA
ATOM      2  C   UNL     1       7.335   6.234  17.715  0.00  0.00    +0.000 C 
ATOM      3  N   UNL     1       7.501   7.579  17.408  0.00  0.00    +0.000 N 
ATOM      4  H   UNL     1       7.018   7.997  16.621  0.00  0.00    +0.000 HD
ENDROOT
BRANCH   3   5
ATOM      5  N   UNL     1       8.351   8.335  18.156  0.00  0.00    +0.000 NA
ATOM      6  C   UNL     1       8.373   9.601  17.891  0.00  0.00    +0.000 C 
BRANCH   6   7
ATOM      7  C   UNL     1       9.240  10.528  18.641  0.00  0.00    +0.000 A 
ATOM      8  C   UNL     1      10.174  11.324  17.981  0.00  0.00    +0.000 A 
ATOM      9  C   UNL     1      10.965  12.155  18.751  0.00  0.00    +0.000 A 
ATOM     10  N   UNL     1      10.878  12.234  20.098  0.00  0.00    +0.000 NA
ATOM     11  C   UNL     1       9.960  11.452  20.704  0.00  0.00    +0.000 A 
ATOM     12  C   UNL     1       9.118  10.589  20.026  0.00  0.00    +0.000 A 
ENDBRANCH   6   7
ENDBRANCH   3   5
BRANCH   2  13
ATOM     13  C   UNL     1       6.387   5.513  16.758  0.00  0.00    +0.000 C 
BRANCH  13  14
ATOM     14  N   UNL     1       5.884   4.254  17.321  0.00  0.00    +0.000 N 
ATOM     15  H   UNL     1       6.441   3.889  18.092  0.00  0.00    +0.000 HD
BRANCH  14  16
ATOM     16  C   UNL     1       4.503   4.133  17.512  0.00  0.00    +0.000 A 
ATOM     17  C   UNL     1       3.875   2.892  17.701  0.00  0.00    +0.000 A 
ATOM     18  C   UNL     1       2.496   2.790  17.918  0.00  0.00    +0.000 A 
ATOM     19  C   UNL     1       1.721   3.939  17.975  0.00  0.00    +0.000 A 
ATOM     20  C   UNL     1       2.338   5.178  17.845  0.00  0.00    +0.000 A 
ATOM     21  F   UNL     1       1.597   6.290  17.925  0.00  0.00    +0.000 F 
ATOM     22  C   UNL     1       3.712   5.282  17.634  0.00  0.00    +0.000 A 
ENDBRANCH  14  16
ENDBRANCH  13  14
ENDBRANCH   2  13
TORSDOF 5
ENDMDL
MODEL 3
REMARK VINA RESULT:      -7.2      1.141      1.819
REMARK  Name = 
REMARK  5 active torsions:
REMARK  status: ('A' for Active; 'I' for Inactive)
REMARK    1  A    between atoms: C_2  and  C_3
REMARK    2  A    between atoms: C_3  and  N_4
REMARK    3  A    between atoms: N_4  and  C_5
REMARK    4  A    between atoms: N_12  and  N_13
REMARK    5  A    between atoms: C_14  and  C_15
REMARK                            x       y       z     vdW  Elec       q    Type
REMARK                         _______ _______ _______ _____ _____    ______ ____
ROOT
ATOM      1  O   UNL     1       7.583   5.903  18.960  0.00  0.00    +0.000 OA
ATOM      2  C   UNL     1       7.210   6.332  17.870  0.00  0.00    +0.000 C 
ATOM      3  N   UNL     1       7.492   7.601  17.376  0.00  0.00    +0.000 N 
ATOM      4  H   UNL     1       7.153   7.893  16.467  0.00  0.00    +0.000 HD
ENDROOT
BRANCH   3   5
ATOM      5  N   UNL     1       8.263   8.448  18.112  0.00  0.00    +0.000 NA
ATOM      6  C   UNL     1       8.242   9.692  17.758  0.00  0.00    +0.000 C 
BRANCH   6   7
ATOM      7  C   UNL     1       9.022  10.711  18.485  0.00  0.00    +0.000 A 
ATOM      8  C   UNL     1       9.483  10.469  19.777  0.00  0.00    +0.000 A 
ATOM      9  C   UNL     1      10.190  11.477  20.404  0.00  0.00    +0.000 A 
ATOM     10  N   UNL     1      10.454  12.674  19.831  0.00  0.00    +0.000 NA
ATOM     11  C   UNL     1       9.995  12.872  18.578  0.00  0.00    +0.000 A 
ATOM     12  C   UNL     1       9.282  11.928  17.863  0.00  0.00    +0.000 A 
ENDBRANCH   6   7
ENDBRANCH   3   5
BRANCH   2  13
ATOM     13  C   UNL     1       6.375   5.488  16.909  0.00  0.00    +0.000 C 
BRANCH  13  14
ATOM     14  N   UNL     1       6.068   4.162  17.462  0.00  0.00    +0.000 N 
ATOM     15  H   UNL     1       6.832   3.741  17.986  0.00  0.00    +0.000 HD
BRANCH  14  16
ATOM     16  C   UNL     1       4.809   3.977  18.045  0.00  0.00    +0.000 A 
ATOM     17  C   UNL     1       4.649   3.479  19.348  0.00  0.00    +0.000 A 
ATOM     18  C   UNL     1       3.384   3.326  19.927  0.00  0.00    +0.000 A 
ATOM     19  C   UNL     1       2.252   3.696  19.217  0.00  0.00    +0.000 A 
ATOM     20  C   UNL     1       2.399   4.242  17.948  0.00  0.00    +0.000 A 
ATOM     21  F   UNL     1       1.310   4.624  17.269  0.00  0.00    +0.000 F 
ATOM     22  C   UNL     1       3.658   4.401  17.371  0.00  0.00    +0.000 A 
ENDBRANCH  14  16
ENDBRANCH  13  14
ENDBRANCH   2  13
TORSDOF 5
ENDMDL
MODEL 4
REMARK VINA RESULT:      -7.1      3.391      8.985
REMARK  Name = 
REMARK  5 active torsions:
REMARK  status: ('A' for Active; 'I' for Inactive)
REMARK    1  A    between atoms: C_2  and  C_3
REMARK    2  A    between atoms: C_3  and  N_4
REMARK    3  A    between atoms: N_4  and  C_5
REMARK    4  A    between atoms: N_12  and  N_13
REMARK    5  A    between atoms: C_14  and  C_15
REMARK                            x       y       z     vdW  Elec       q    Type
REMARK                         _______ _______ _______ _____ _____    ______ ____
ROOT
ATOM      1  O   UNL     1       7.896   6.534  18.697  0.00  0.00    +0.000 OA
ATOM      2  C   UNL     1       7.528   7.405  17.911  0.00  0.00    +0.000 C 
ATOM      3  N   UNL     1       6.460   7.283  17.030  0.00  0.00    +0.000 N 
ATOM      4  H   UNL     1       6.209   8.041  16.407  0.00  0.00    +0.000 HD
ENDROOT
BRANCH   3   5
ATOM      5  N   UNL     1       5.722   6.138  17.031  0.00  0.00    +0.000 NA
ATOM      6  C   UNL     1       4.541   6.221  17.551  0.00  0.00    +0.000 C 
BRANCH   6   7
ATOM      7  C   UNL     1       3.639   5.056  17.598  0.00  0.00    +0.000 A 
ATOM      8  C   UNL     1       4.102   3.780  17.282  0.00  0.00    +0.000 A 
ATOM      9  C   UNL     1       3.195   2.740  17.328  0.00  0.00    +0.000 A 
ATOM     10  N   UNL     1       1.894   2.895  17.662  0.00  0.00    +0.000 NA
ATOM     11  C   UNL     1       1.480   4.143  17.966  0.00  0.00    +0.000 A 
ATOM     12  C   UNL     1       2.307   5.251  17.953  0.00  0.00    +0.000 A 
ENDBRANCH   6   7
ENDBRANCH   3   5
BRANCH   2  13
ATOM     13  C   UNL     1       8.226   8.762  17.821  0.00  0.00    +0.000 C 
BRANCH  13  14
ATOM     14  N   UNL     1       8.954   9.092  19.053  0.00  0.00    +0.000 N 
ATOM     15  H   UNL     1       9.635   8.391  19.336  0.00  0.00    +0.000 HD
BRANCH  14  16
ATOM     16  C   UNL     1       9.396  10.411  19.213  0.00  0.00    +0.000 A 
ATOM     17  C   UNL     1       9.653  11.256  18.122  0.00  0.00    +0.000 A 
ATOM     18  C   UNL     1      10.069  12.580  18.299  0.00  0.00    +0.000 A 
ATOM     19  C   UNL     1      10.209  13.093  19.580  0.00  0.00    +0.000 A 
ATOM     20  C   UNL     1       9.904  12.285  20.669  0.00  0.00    +0.000 A 
ATOM     21  F   UNL     1      10.014  12.783  21.906  0.00  0.00    +0.000 F 
ATOM     22  C   UNL     1       9.485  10.966  20.495  0.00  0.00    +0.000 A 
ENDBRANCH  14  16
ENDBRANCH  13  14
ENDBRANCH   2  13
TORSDOF 5
ENDMDL
MODEL 5
REMARK VINA RESULT:      -7.1      1.502      1.680
REMARK  Name = 
REMARK  5 active torsions:
REMARK  status: ('A' for Active; 'I' for Inactive)
REMARK    1  A    between atoms: C_2  and  C_3
REMARK    2  A    between atoms: C_3  and  N_4
REMARK    3  A    between atoms: N_4  and  C_5
REMARK    4  A    between atoms: N_12  and  N_13
REMARK    5  A    between atoms: C_14  and  C_15
REMARK                            x       y       z     vdW  Elec       q    Type
REMARK                         _______ _______ _______ _____ _____    ______ ____
ROOT
ATOM      1  O   UNL     1       7.843   6.123  18.813  0.00  0.00    +0.000 OA
ATOM      2  C   UNL     1       7.462   6.678  17.784  0.00  0.00    +0.000 C 
ATOM      3  N   UNL     1       7.721   8.003  17.452  0.00  0.00    +0.000 N 
ATOM      4  H   UNL     1       7.377   8.399  16.585  0.00  0.00    +0.000 HD
ENDROOT
BRANCH   3   5
ATOM      5  N   UNL     1       8.477   8.765  18.290  0.00  0.00    +0.000 NA
ATOM      6  C   UNL     1       8.697   9.982  17.911  0.00  0.00    +0.000 C 
BRANCH   6   7
ATOM      7  C   UNL     1       9.487  10.913  18.737  0.00  0.00    +0.000 A 
ATOM      8  C   UNL     1      10.397  11.791  18.151  0.00  0.00    +0.000 A 
ATOM      9  C   UNL     1      11.116  12.621  18.989  0.00  0.00    +0.000 A 
ATOM     10  N   UNL     1      10.983  12.624  20.335  0.00  0.00    +0.000 NA
ATOM     11  C   UNL     1      10.090  11.763  20.867  0.00  0.00    +0.000 A 
ATOM     12  C   UNL     1       9.319  10.895  20.118  0.00  0.00    +0.000 A 
ENDBRANCH   6   7
ENDBRANCH   3   5
BRANCH   2  13
ATOM     13  C   UNL     1       6.642   5.944  16.724  0.00  0.00    +0.000 C 
BRANCH  13  14
ATOM     14  N   UNL     1       5.301   6.521  16.565  0.00  0.00    +0.000 N 
ATOM     15  H   UNL     1       5.091   6.838  15.621  0.00  0.00    +0.000 HD
BRANCH  14  16
ATOM     16  C   UNL     1       4.234   5.868  17.195  0.00  0.00    +0.000 A 
ATOM     17  C   UNL     1       3.338   6.538  18.043  0.00  0.00    +0.000 A 
ATOM     18  C   UNL     1       2.261   5.876  18.644  0.00  0.00    +0.000 A 
ATOM     19  C   UNL     1       2.046   4.531  18.383  0.00  0.00    +0.000 A 
ATOM     20  C   UNL     1       2.893   3.869  17.502  0.00  0.00    +0.000 A 
ATOM     21  F   UNL     1       2.674   2.578  17.228  0.00  0.00    +0.000 F 
ATOM     22  C   UNL     1       3.964   4.527  16.898  0.00  0.00    +0.000 A 
ENDBRANCH  14  16
ENDBRANCH  13  14
ENDBRANCH   2  13
TORSDOF 5
ENDMDL
MODEL 6
REMARK VINA RESULT:      -7.1      1.664      1.817
REMARK  Name = 
REMARK  5 active torsions:
REMARK  status: ('A' for Active; 'I' for Inactive)
REMARK    1  A    between atoms: C_2  and  C_3
REMARK    2  A    between atoms: C_3  and  N_4
REMARK    3  A    between atoms: N_4  and  C_5
REMARK    4  A    between atoms: N_12  and  N_13
REMARK    5  A    between atoms: C_14  and  C_15
REMARK                            x       y       z     vdW  Elec       q    Type
REMARK                         _______ _______ _______ _____ _____    ______ ____
ROOT
ATOM      1  O   UNL     1       7.439   6.300  15.949  0.00  0.00    +0.000 OA
ATOM      2  C   UNL     1       7.495   5.957  17.128  0.00  0.00    +0.000 C 
ATOM      3  N   UNL     1       7.740   6.813  18.195  0.00  0.00    +0.000 N 
ATOM      4  H   UNL     1       7.772   6.465  19.146  0.00  0.00    +0.000 HD
ENDROOT
BRANCH   3   5
ATOM      5  N   UNL     1       7.904   8.144  17.959  0.00  0.00    +0.000 NA
ATOM      6  C   UNL     1       8.689   8.775  18.770  0.00  0.00    +0.000 C 
BRANCH   6   7
ATOM      7  C   UNL     1       8.962  10.216  18.611  0.00  0.00    +0.000 A 
ATOM      8  C   UNL     1       8.244  10.981  17.695  0.00  0.00    +0.000 A 
ATOM      9  C   UNL     1       8.567  12.320  17.587  0.00  0.00    +0.000 A 
ATOM     10  N   UNL     1       9.535  12.918  18.319  0.00  0.00    +0.000 NA
ATOM     11  C   UNL     1      10.207  12.147  19.199  0.00  0.00    +0.000 A 
ATOM     12  C   UNL     1       9.960  10.800  19.386  0.00  0.00    +0.000 A 
ENDBRANCH   6   7
ENDBRANCH   3   5
BRANCH   2  13
ATOM     13  C   UNL     1       7.288   4.506  17.560  0.00  0.00    +0.000 C 
BRANCH  13  14
ATOM     14  N   UNL     1       6.464   4.402  18.771  0.00  0.00    +0.000 N 
ATOM     15  H   UNL     1       6.848   4.884  19.581  0.00  0.00    +0.000 HD
BRANCH  14  16
ATOM     16  C   UNL     1       5.078   4.546  18.629  0.00  0.00    +0.000 A 
ATOM     17  C   UNL     1       4.360   5.573  19.261  0.00  0.00    +0.000 A 
ATOM     18  C   UNL     1       2.979   5.719  19.087  0.00  0.00    +0.000 A 
ATOM     19  C   UNL     1       2.294   4.851  18.250  0.00  0.00    +0.000 A 
ATOM     20  C   UNL     1       3.002   3.865  17.574  0.00  0.00    +0.000 A 
ATOM     21  F   UNL     1       2.348   3.041  16.746  0.00  0.00    +0.000 F 
ATOM     22  C   UNL     1       4.378   3.720  17.742  0.00  0.00    +0.000 A 
ENDBRANCH  14  16
ENDBRANCH  13  14
ENDBRANCH   2  13
TORSDOF 5
ENDMDL
MODEL 7
REMARK VINA RESULT:      -7.1      1.576      1.738
REMARK  Name = 
REMARK  5 active torsions:
REMARK  status: ('A' for Active; 'I' for Inactive)
REMARK    1  A    between atoms: C_2  and  C_3
REMARK    2  A    between atoms: C_3  and  N_4
REMARK    3  A    between atoms: N_4  and  C_5
REMARK    4  A    between atoms: N_12  and  N_13
REMARK    5  A    between atoms: C_14  and  C_15
REMARK                            x       y       z     vdW  Elec       q    Type
REMARK                         _______ _______ _______ _____ _____    ______ ____
ROOT
ATOM      1  O   UNL     1       6.917   7.428  16.846  0.00  0.00    +0.000 OA
ATOM      2  C   UNL     1       7.495   7.030  17.856  0.00  0.00    +0.000 C 
ATOM      3  N   UNL     1       8.352   7.798  18.636  0.00  0.00    +0.000 N 
ATOM      4  H   UNL     1       8.797   7.409  19.459  0.00  0.00    +0.000 HD
ENDROOT
BRANCH   3   5
ATOM      5  N   UNL     1       8.569   9.101  18.306  0.00  0.00    +0.000 NA
ATOM      6  C   UNL     1       9.261   9.796  19.148  0.00  0.00    +0.000 C 
BRANCH   6   7
ATOM      7  C   UNL     1       9.577  11.215  18.898  0.00  0.00    +0.000 A 
ATOM      8  C   UNL     1      10.253  11.602  17.743  0.00  0.00    +0.000 A 
ATOM      9  C   UNL     1      10.532  12.946  17.586  0.00  0.00    +0.000 A 
ATOM     10  N   UNL     1      10.186  13.893  18.486  0.00  0.00    +0.000 NA
ATOM     11  C   UNL     1       9.530  13.482  19.592  0.00  0.00    +0.000 A 
ATOM     12  C   UNL     1       9.200  12.164  19.843  0.00  0.00    +0.000 A 
ENDBRANCH   6   7
ENDBRANCH   3   5
BRANCH   2  13
ATOM     13  C   UNL     1       7.321   5.606  18.382  0.00  0.00    +0.000 C 
BRANCH  13  14
ATOM     14  N   UNL     1       6.198   5.498  19.323  0.00  0.00    +0.000 N 
ATOM     15  H   UNL     1       6.133   6.267  19.986  0.00  0.00    +0.000 HD
BRANCH  14  16
ATOM     16  C   UNL     1       4.963   5.079  18.814  0.00  0.00    +0.000 A 
ATOM     17  C   UNL     1       3.922   5.978  18.533  0.00  0.00    +0.000 A 
ATOM     18  C   UNL     1       2.702   5.547  17.999  0.00  0.00    +0.000 A 
ATOM     19  C   UNL     1       2.513   4.204  17.711  0.00  0.00    +0.000 A 
ATOM     20  C   UNL     1       3.554   3.311  17.932  0.00  0.00    +0.000 A 
ATOM     21  F   UNL     1       3.384   2.018  17.632  0.00  0.00    +0.000 F 
ATOM     22  C   UNL     1       4.772   3.739  18.459  0.00  0.00    +0.000 A 
ENDBRANCH  14  16
ENDBRANCH  13  14
ENDBRANCH   2  13
TORSDOF 5
ENDMDL
MODEL 8
REMARK VINA RESULT:      -7.0      0.926      1.430
REMARK  Name = 
REMARK  5 active torsions:
REMARK  status: ('A' for Active; 'I' for Inactive)
REMARK    1  A    between atoms: C_2  and  C_3
REMARK    2  A    between atoms: C_3  and  N_4
REMARK    3  A    between atoms: N_4  and  C_5
REMARK    4  A    between atoms: N_12  and  N_13
REMARK    5  A    between atoms: C_14  and  C_15
REMARK                            x       y       z     vdW  Elec       q    Type
REMARK                         _______ _______ _______ _____ _____    ______ ____
ROOT
ATOM      1  O   UNL     1       7.835   6.056  18.817  0.00  0.00    +0.000 OA
ATOM      2  C   UNL     1       7.304   6.649  17.880  0.00  0.00    +0.000 C 
ATOM      3  N   UNL     1       7.566   7.966  17.521  0.00  0.00    +0.000 N 
ATOM      4  H   UNL     1       7.093   8.397  16.736  0.00  0.00    +0.000 HD
ENDROOT
BRANCH   3   5
ATOM      5  N   UNL     1       8.498   8.675  18.217  0.00  0.00    +0.000 NA
ATOM      6  C   UNL     1       8.510   9.953  18.017  0.00  0.00    +0.000 C 
BRANCH   6   7
ATOM      7  C   UNL     1       9.461  10.832  18.722  0.00  0.00    +0.000 A 
ATOM      8  C   UNL     1       9.421  10.960  20.109  0.00  0.00    +0.000 A 
ATOM      9  C   UNL     1      10.330  11.818  20.699  0.00  0.00    +0.000 A 
ATOM     10  N   UNL     1      11.246  12.530  20.005  0.00  0.00    +0.000 NA
ATOM     11  C   UNL     1      11.259  12.378  18.664  0.00  0.00    +0.000 A 
ATOM     12  C   UNL     1      10.396  11.544  17.977  0.00  0.00    +0.000 A 
ENDBRANCH   6   7
ENDBRANCH   3   5
BRANCH   2  13
ATOM     13  C   UNL     1       6.270   5.978  16.977  0.00  0.00    +0.000 C 
BRANCH  13  14
ATOM     14  N   UNL     1       6.139   4.542  17.259  0.00  0.00    +0.000 N 
ATOM     15  H   UNL     1       6.938   4.137  17.744  0.00  0.00    +0.000 HD
BRANCH  14  16
ATOM     16  C   UNL     1       4.901   4.081  17.720  0.00  0.00    +0.000 A 
ATOM     17  C   UNL     1       3.803   3.891  16.866  0.00  0.00    +0.000 A 
ATOM     18  C   UNL     1       2.579   3.403  17.339  0.00  0.00    +0.000 A 
ATOM     19  C   UNL     1       2.441   3.070  18.678  0.00  0.00    +0.000 A 
ATOM     20  C   UNL     1       3.536   3.201  19.523  0.00  0.00    +0.000 A 
ATOM     21  F   UNL     1       3.414   2.857  20.811  0.00  0.00    +0.000 F 
ATOM     22  C   UNL     1       4.758   3.682  19.054  0.00  0.00    +0.000 A 
ENDBRANCH  14  16
ENDBRANCH  13  14
ENDBRANCH   2  13
TORSDOF 5
ENDMDL
MODEL 9
REMARK VINA RESULT:      -7.0      1.549      1.566
REMARK  Name = 
REMARK  5 active torsions:
REMARK  status: ('A' for Active; 'I' for Inactive)
REMARK    1  A    between atoms: C_2  and  C_3
REMARK    2  A    between atoms: C_3  and  N_4
REMARK    3  A    between atoms: N_4  and  C_5
REMARK    4  A    between atoms: N_12  and  N_13
REMARK    5  A    between atoms: C_14  and  C_15
REMARK                            x       y       z     vdW  Elec       q    Type
REMARK                         _______ _______ _______ _____ _____    ______ ____
ROOT
ATOM      1  O   UNL     1       5.210   7.039  17.271  0.00  0.00    +0.000 OA
ATOM      2  C   UNL     1       6.190   6.332  17.044  0.00  0.00    +0.000 C 
ATOM      3  N   UNL     1       7.495   6.795  16.927  0.00  0.00    +0.000 N 
ATOM      4  H   UNL     1       8.259   6.157  16.739  0.00  0.00    +0.000 HD
ENDROOT
BRANCH   3   5
ATOM      5  N   UNL     1       7.751   8.121  17.101  0.00  0.00    +0.000 NA
ATOM      6  C   UNL     1       8.358   8.446  18.196  0.00  0.00    +0.000 C 
BRANCH   6   7
ATOM      7  C   UNL     1       8.706   9.847  18.496  0.00  0.00    +0.000 A 
ATOM      8  C   UNL     1       8.429  10.862  17.583  0.00  0.00    +0.000 A 
ATOM      9  C   UNL     1       8.801  12.148  17.923  0.00  0.00    +0.000 A 
ATOM     10  N   UNL     1       9.415  12.467  19.085  0.00  0.00    +0.000 NA
ATOM     11  C   UNL     1       9.665  11.460  19.948  0.00  0.00    +0.000 A 
ATOM     12  C   UNL     1       9.330  10.140  19.705  0.00  0.00    +0.000 A 
ENDBRANCH   6   7
ENDBRANCH   3   5
BRANCH   2  13
ATOM     13  C   UNL     1       6.073   4.819  16.867  0.00  0.00    +0.000 C 
BRANCH  13  14
ATOM     14  N   UNL     1       5.624   4.151  18.096  0.00  0.00    +0.000 N 
ATOM     15  H   UNL     1       6.206   4.339  18.910  0.00  0.00    +0.000 HD
BRANCH  14  16
ATOM     16  C   UNL     1       4.251   4.147  18.369  0.00  0.00    +0.000 A 
ATOM     17  C   UNL     1       3.294   3.786  17.407  0.00  0.00    +0.000 A 
ATOM     18  C   UNL     1       1.927   3.761  17.703  0.00  0.00    +0.000 A 
ATOM     19  C   UNL     1       1.493   4.072  18.983  0.00  0.00    +0.000 A 
ATOM     20  C   UNL     1       2.434   4.378  19.960  0.00  0.00    +0.000 A 
ATOM     21  F   UNL     1       2.021   4.654  21.203  0.00  0.00    +0.000 F 
ATOM     22  C   UNL     1       3.797   4.398  19.669  0.00  0.00    +0.000 A 
ENDBRANCH  14  16
ENDBRANCH  13  14
ENDBRANCH   2  13
TORSDOF 5
ENDMDL
