MODEL 1
REMARK VINA RESULT:      -7.0      0.000      0.000
REMARK  Name = 
REMARK  4 active torsions:
REMARK  status: ('A' for Active; 'I' for Inactive)
REMARK    1  A    between atoms: C_1  and  N_2
REMARK    2  A    between atoms: C_4  and  C_5
REMARK    3  A    between atoms: C_5  and  N_6
REMARK    4  A    between atoms: C_7  and  C_9
REMARK                            x       y       z     vdW  Elec       q    Type
REMARK                         _______ _______ _______ _____ _____    ______ ____
ROOT
ATOM      1  C   UNL     1       1.388   2.773  21.733  0.00  0.00    +0.000 C 
ATOM      2  N   UNL     1       1.997   3.257  20.513  0.00  0.00    +0.000 N 
ATOM      3  C   UNL     1       2.611   2.468  19.578  0.00  0.00    +0.000 A 
ATOM      4  C   UNL     1       3.123   3.284  18.585  0.00  0.00    +0.000 A 
ATOM      5  C   UNL     1       2.772   4.629  18.933  0.00  0.00    +0.000 A 
ATOM      6  C   UNL     1       2.998   5.886  18.333  0.00  0.00    +0.000 A 
ATOM      7  C   UNL     1       2.518   7.046  18.951  0.00  0.00    +0.000 A 
ATOM      8  C   UNL     1       1.817   6.972  20.150  0.00  0.00    +0.000 A 
ATOM      9  C   UNL     1       1.579   5.741  20.767  0.00  0.00    +0.000 A 
ATOM     10  C   UNL     1       2.067   4.582  20.140  0.00  0.00    +0.000 A 
ENDROOT
BRANCH   4  11
ATOM     11  C   UNL     1       3.905   2.841  17.387  0.00  0.00    +0.000 C 
BRANCH  11  12
ATOM     12  N   UNL     1       4.607   3.896  16.690  0.00  0.00    +0.000 N 
ATOM     13  C   UNL     1       5.828   4.454  17.023  0.00  0.00    +0.000 C 
ATOM     14  N   UNL     1       6.518   4.024  18.040  0.00  0.00    +0.000 NA
ATOM     15  H   UNL     1       4.100   4.288  15.898  0.00  0.00    +0.000 HD
ATOM     16  H   UNL     1       6.041   3.258  18.511  0.00  0.00    +0.000 HD
BRANCH  13  17
ATOM     17  C   UNL     1       6.410   5.644  16.160  0.00  0.00    +0.000 C 
ATOM     18 CL   UNL     1       5.071   6.671  15.556  0.00  0.00    +0.000 Cl
ATOM     19 CL   UNL     1       7.479   6.624  17.191  0.00  0.00    +0.000 Cl
ATOM     20 CL   UNL     1       7.295   4.967  14.772  0.00  0.00    +0.000 Cl
ENDBRANCH  13  17
ENDBRANCH  11  12
ENDBRANCH   4  11
TORSDOF 3
ENDMDL
MODEL 2
REMARK VINA RESULT:      -7.0      0.082      1.186
REMARK  Name = 
REMARK  4 active torsions:
REMARK  status: ('A' for Active; 'I' for Inactive)
REMARK    1  A    between atoms: C_1  and  N_2
REMARK    2  A    between atoms: C_4  and  C_5
REMARK    3  A    between atoms: C_5  and  N_6
REMARK    4  A    between atoms: C_7  and  C_9
REMARK                            x       y       z     vdW  Elec       q    Type
REMARK                         _______ _______ _______ _____ _____    ______ ____
ROOT
ATOM      1  C   UNL     1       1.433   2.828  21.819  0.00  0.00    +0.000 C 
ATOM      2  N   UNL     1       2.007   3.313  20.582  0.00  0.00    +0.000 N 
ATOM      3  C   UNL     1       2.590   2.523  19.628  0.00  0.00    +0.000 A 
ATOM      4  C   UNL     1       3.075   3.339  18.622  0.00  0.00    +0.000 A 
ATOM      5  C   UNL     1       2.736   4.685  18.981  0.00  0.00    +0.000 A 
ATOM      6  C   UNL     1       2.947   5.941  18.376  0.00  0.00    +0.000 A 
ATOM      7  C   UNL     1       2.488   7.102  19.009  0.00  0.00    +0.000 A 
ATOM      8  C   UNL     1       1.823   7.028  20.228  0.00  0.00    +0.000 A 
ATOM      9  C   UNL     1       1.600   5.796  20.851  0.00  0.00    +0.000 A 
ATOM     10  C   UNL     1       2.068   4.637  20.209  0.00  0.00    +0.000 A 
ENDROOT
BRANCH   4  11
ATOM     11  C   UNL     1       3.820   2.896  17.400  0.00  0.00    +0.000 C 
BRANCH  11  12
ATOM     12  N   UNL     1       4.547   3.941  16.715  0.00  0.00    +0.000 N 
ATOM     13  C   UNL     1       5.787   4.457  17.045  0.00  0.00    +0.000 C 
ATOM     14  N   UNL     1       6.472   3.991  18.049  0.00  0.00    +0.000 NA
ATOM     15  H   UNL     1       4.045   4.361  15.934  0.00  0.00    +0.000 HD
ATOM     16  H   UNL     1       5.977   3.232  18.513  0.00  0.00    +0.000 HD
BRANCH  13  17
ATOM     17  C   UNL     1       6.397   5.644  16.196  0.00  0.00    +0.000 C 
ATOM     18 CL   UNL     1       7.463   6.647  17.229  0.00  0.00    +0.000 Cl
ATOM     19 CL   UNL     1       7.352   4.957  14.862  0.00  0.00    +0.000 Cl
ATOM     20 CL   UNL     1       5.065   6.653  15.583  0.00  0.00    +0.000 Cl
ENDBRANCH  13  17
ENDBRANCH  11  12
ENDBRANCH   4  11
TORSDOF 3
ENDMDL
MODEL 3
REMARK VINA RESULT:      -6.8      2.897      4.208
REMARK  Name = 
REMARK  4 active torsions:
REMARK  status: ('A' for Active; 'I' for Inactive)
REMARK    1  A    between atoms: C_1  and  N_2
REMARK    2  A    between atoms: C_4  and  C_5
REMARK    3  A    between atoms: C_5  and  N_6
REMARK    4  A    between atoms: C_7  and  C_9
REMARK                            x       y       z     vdW  Elec       q    Type
REMARK                         _______ _______ _______ _____ _____    ______ ____
ROOT
ATOM      1  C   UNL     1       2.917   7.294  17.870  0.00  0.00    +0.000 C 
ATOM      2  N   UNL     1       3.536   6.021  17.569  0.00  0.00    +0.000 N 
ATOM      3  C   UNL     1       4.777   5.867  17.012  0.00  0.00    +0.000 A 
ATOM      4  C   UNL     1       5.004   4.517  16.816  0.00  0.00    +0.000 A 
ATOM      5  C   UNL     1       3.848   3.828  17.310  0.00  0.00    +0.000 A 
ATOM      6  C   UNL     1       3.482   2.468  17.394  0.00  0.00    +0.000 A 
ATOM      7  C   UNL     1       2.240   2.116  17.936  0.00  0.00    +0.000 A 
ATOM      8  C   UNL     1       1.365   3.094  18.395  0.00  0.00    +0.000 A 
ATOM      9  C   UNL     1       1.702   4.449  18.323  0.00  0.00    +0.000 A 
ATOM     10  C   UNL     1       2.949   4.793  17.776  0.00  0.00    +0.000 A 
ENDROOT
BRANCH   4  11
ATOM     11  C   UNL     1       6.221   3.901  16.197  0.00  0.00    +0.000 C 
BRANCH  11  12
ATOM     12  N   UNL     1       6.114   3.627  14.782  0.00  0.00    +0.000 N 
ATOM     13  C   UNL     1       6.763   4.279  13.749  0.00  0.00    +0.000 C 
ATOM     14  N   UNL     1       7.613   5.238  13.978  0.00  0.00    +0.000 NA
ATOM     15  H   UNL     1       5.442   2.900  14.543  0.00  0.00    +0.000 HD
ATOM     16  H   UNL     1       7.714   5.410  14.976  0.00  0.00    +0.000 HD
BRANCH  13  17
ATOM     17  C   UNL     1       6.472   3.864  12.250  0.00  0.00    +0.000 C 
ATOM     18 CL   UNL     1       7.271   2.303  11.885  0.00  0.00    +0.000 Cl
ATOM     19 CL   UNL     1       4.714   3.685  12.040  0.00  0.00    +0.000 Cl
ATOM     20 CL   UNL     1       7.126   5.120  11.172  0.00  0.00    +0.000 Cl
ENDBRANCH  13  17
ENDBRANCH  11  12
ENDBRANCH   4  11
TORSDOF 3
ENDMDL
MODEL 4
REMARK VINA RESULT:      -6.6      4.363      6.221
REMARK  Name = 
REMARK  4 active torsions:
REMARK  status: ('A' for Active; 'I' for Inactive)
REMARK    1  A    between atoms: C_1  and  N_2
REMARK    2  A    between atoms: C_4  and  C_5
REMARK    3  A    between atoms: C_5  and  N_6
REMARK    4  A    between atoms: C_7  and  C_9
REMARK                            x       y       z     vdW  Elec       q    Type
REMARK                         _______ _______ _______ _____ _____    ______ ____
ROOT
ATOM      1  C   UNL     1       2.582   3.636  19.348  0.00  0.00    +0.000 C 
ATOM      2  N   UNL     1       3.044   4.804  18.631  0.00  0.00    +0.000 N 
ATOM      3  C   UNL     1       2.619   6.084  18.864  0.00  0.00    +0.000 A 
ATOM      4  C   UNL     1       3.232   6.922  17.950  0.00  0.00    +0.000 A 
ATOM      5  C   UNL     1       4.092   6.102  17.148  0.00  0.00    +0.000 A 
ATOM      6  C   UNL     1       4.968   6.360  16.073  0.00  0.00    +0.000 A 
ATOM      7  C   UNL     1       5.675   5.305  15.484  0.00  0.00    +0.000 A 
ATOM      8  C   UNL     1       5.524   4.004  15.952  0.00  0.00    +0.000 A 
ATOM      9  C   UNL     1       4.663   3.719  17.015  0.00  0.00    +0.000 A 
ATOM     10  C   UNL     1       3.955   4.784  17.598  0.00  0.00    +0.000 A 
ENDROOT
BRANCH   4  11
ATOM     11  C   UNL     1       3.025   8.400  17.821  0.00  0.00    +0.000 C 
BRANCH  11  12
ATOM     12  N   UNL     1       1.724   8.873  18.236  0.00  0.00    +0.000 N 
ATOM     13  C   UNL     1       1.270  10.180  18.249  0.00  0.00    +0.000 C 
ATOM     14  N   UNL     1       2.013  11.162  17.825  0.00  0.00    +0.000 NA
ATOM     15  H   UNL     1       1.108   8.148  18.602  0.00  0.00    +0.000 HD
ATOM     16  H   UNL     1       2.917  10.826  17.500  0.00  0.00    +0.000 HD
BRANCH  13  17
ATOM     17  C   UNL     1      -0.179  10.505  18.792  0.00  0.00    +0.000 C 
ATOM     18 CL   UNL     1      -1.410   9.959  17.610  0.00  0.00    +0.000 Cl
ATOM     19 CL   UNL     1      -0.418   9.638  20.328  0.00  0.00    +0.000 Cl
ATOM     20 CL   UNL     1      -0.326  12.264  19.016  0.00  0.00    +0.000 Cl
ENDBRANCH  13  17
ENDBRANCH  11  12
ENDBRANCH   4  11
TORSDOF 3
ENDMDL
MODEL 5
REMARK VINA RESULT:      -6.6      4.354      6.247
REMARK  Name = 
REMARK  4 active torsions:
REMARK  status: ('A' for Active; 'I' for Inactive)
REMARK    1  A    between atoms: C_1  and  N_2
REMARK    2  A    between atoms: C_4  and  C_5
REMARK    3  A    between atoms: C_5  and  N_6
REMARK    4  A    between atoms: C_7  and  C_9
REMARK                            x       y       z     vdW  Elec       q    Type
REMARK                         _______ _______ _______ _____ _____    ______ ____
ROOT
ATOM      1  C   UNL     1       2.436   3.375  18.935  0.00  0.00    +0.000 C 
ATOM      2  N   UNL     1       2.938   4.609  18.370  0.00  0.00    +0.000 N 
ATOM      3  C   UNL     1       2.465   5.857  18.674  0.00  0.00    +0.000 A 
ATOM      4  C   UNL     1       3.143   6.782  17.900  0.00  0.00    +0.000 A 
ATOM      5  C   UNL     1       4.090   6.047  17.113  0.00  0.00    +0.000 A 
ATOM      6  C   UNL     1       5.056   6.412  16.153  0.00  0.00    +0.000 A 
ATOM      7  C   UNL     1       5.837   5.424  15.542  0.00  0.00    +0.000 A 
ATOM      8  C   UNL     1       5.671   4.084  15.876  0.00  0.00    +0.000 A 
ATOM      9  C   UNL     1       4.721   3.694  16.825  0.00  0.00    +0.000 A 
ATOM     10  C   UNL     1       3.941   4.693  17.430  0.00  0.00    +0.000 A 
ENDROOT
BRANCH   4  11
ATOM     11  C   UNL     1       2.918   8.262  17.883  0.00  0.00    +0.000 C 
BRANCH  11  12
ATOM     12  N   UNL     1       1.771   8.714  18.638  0.00  0.00    +0.000 N 
ATOM     13  C   UNL     1       1.229   9.987  18.661  0.00  0.00    +0.000 C 
ATOM     14  N   UNL     1       1.715  10.946  17.927  0.00  0.00    +0.000 NA
ATOM     15  H   UNL     1       1.365   8.009  19.251  0.00  0.00    +0.000 HD
ATOM     16  H   UNL     1       2.502  10.621  17.369  0.00  0.00    +0.000 HD
BRANCH  13  17
ATOM     17  C   UNL     1      -0.005  10.300  19.599  0.00  0.00    +0.000 C 
ATOM     18 CL   UNL     1      -0.080   9.101  20.928  0.00  0.00    +0.000 Cl
ATOM     19 CL   UNL     1       0.204  11.927  20.290  0.00  0.00    +0.000 Cl
ATOM     20 CL   UNL     1      -1.498  10.195  18.636  0.00  0.00    +0.000 Cl
ENDBRANCH  13  17
ENDBRANCH  11  12
ENDBRANCH   4  11
TORSDOF 3
ENDMDL
MODEL 6
REMARK VINA RESULT:      -6.6      4.195      5.630
REMARK  Name = 
REMARK  4 active torsions:
REMARK  status: ('A' for Active; 'I' for Inactive)
REMARK    1  A    between atoms: C_1  and  N_2
REMARK    2  A    between atoms: C_4  and  C_5
REMARK    3  A    between atoms: C_5  and  N_6
REMARK    4  A    between atoms: C_7  and  C_9
REMARK                            x       y       z     vdW  Elec       q    Type
REMARK                         _______ _______ _______ _____ _____    ______ ____
ROOT
ATOM      1  C   UNL     1       1.455   3.252  21.571  0.00  0.00    +0.000 C 
ATOM      2  N   UNL     1       2.046   4.059  20.525  0.00  0.00    +0.000 N 
ATOM      3  C   UNL     1       2.048   5.428  20.500  0.00  0.00    +0.000 A 
ATOM      4  C   UNL     1       2.646   5.843  19.324  0.00  0.00    +0.000 A 
ATOM      5  C   UNL     1       3.049   4.658  18.624  0.00  0.00    +0.000 A 
ATOM      6  C   UNL     1       3.699   4.421  17.395  0.00  0.00    +0.000 A 
ATOM      7  C   UNL     1       3.942   3.107  16.980  0.00  0.00    +0.000 A 
ATOM      8  C   UNL     1       3.552   2.031  17.771  0.00  0.00    +0.000 A 
ATOM      9  C   UNL     1       2.905   2.237  18.993  0.00  0.00    +0.000 A 
ATOM     10  C   UNL     1       2.663   3.560  19.400  0.00  0.00    +0.000 A 
ENDROOT
BRANCH   4  11
ATOM     11  C   UNL     1       2.825   7.259  18.870  0.00  0.00    +0.000 C 
BRANCH  11  12
ATOM     12  N   UNL     1       1.769   8.164  19.261  0.00  0.00    +0.000 N 
ATOM     13  C   UNL     1       1.360   9.311  18.605  0.00  0.00    +0.000 C 
ATOM     14  N   UNL     1       1.903   9.682  17.482  0.00  0.00    +0.000 NA
ATOM     15  H   UNL     1       1.324   7.936  20.149  0.00  0.00    +0.000 HD
ATOM     16  H   UNL     1       2.625   9.027  17.187  0.00  0.00    +0.000 HD
BRANCH  13  17
ATOM     17  C   UNL     1       0.211  10.205  19.224  0.00  0.00    +0.000 C 
ATOM     18 CL   UNL     1      -1.205  10.224  18.127  0.00  0.00    +0.000 Cl
ATOM     19 CL   UNL     1      -0.270   9.509  20.790  0.00  0.00    +0.000 Cl
ATOM     20 CL   UNL     1       0.820  11.867  19.417  0.00  0.00    +0.000 Cl
ENDBRANCH  13  17
ENDBRANCH  11  12
ENDBRANCH   4  11
TORSDOF 3
ENDMDL
MODEL 7
REMARK VINA RESULT:      -6.5      4.194      6.073
REMARK  Name = 
REMARK  4 active torsions:
REMARK  status: ('A' for Active; 'I' for Inactive)
REMARK    1  A    between atoms: C_1  and  N_2
REMARK    2  A    between atoms: C_4  and  C_5
REMARK    3  A    between atoms: C_5  and  N_6
REMARK    4  A    between atoms: C_7  and  C_9
REMARK                            x       y       z     vdW  Elec       q    Type
REMARK                         _______ _______ _______ _____ _____    ______ ____
ROOT
ATOM      1  C   UNL     1       3.699   3.264  19.296  0.00  0.00    +0.000 C 
ATOM      2  N   UNL     1       3.922   4.572  18.721  0.00  0.00    +0.000 N 
ATOM      3  C   UNL     1       2.949   5.514  18.520  0.00  0.00    +0.000 A 
ATOM      4  C   UNL     1       3.522   6.609  17.898  0.00  0.00    +0.000 A 
ATOM      5  C   UNL     1       4.917   6.315  17.747  0.00  0.00    +0.000 A 
ATOM      6  C   UNL     1       6.011   7.019  17.201  0.00  0.00    +0.000 A 
ATOM      7  C   UNL     1       7.281   6.431  17.196  0.00  0.00    +0.000 A 
ATOM      8  C   UNL     1       7.476   5.160  17.727  0.00  0.00    +0.000 A 
ATOM      9  C   UNL     1       6.409   4.440  18.273  0.00  0.00    +0.000 A 
ATOM     10  C   UNL     1       5.138   5.038  18.271  0.00  0.00    +0.000 A 
ENDROOT
BRANCH   4  11
ATOM     11  C   UNL     1       2.813   7.853  17.460  0.00  0.00    +0.000 C 
BRANCH  11  12
ATOM     12  N   UNL     1       1.919   8.425  18.441  0.00  0.00    +0.000 N 
ATOM     13  C   UNL     1       1.486   9.736  18.519  0.00  0.00    +0.000 C 
ATOM     14  N   UNL     1       1.841  10.624  17.635  0.00  0.00    +0.000 NA
ATOM     15  H   UNL     1       1.628   7.780  19.174  0.00  0.00    +0.000 HD
ATOM     16  H   UNL     1       2.444  10.215  16.924  0.00  0.00    +0.000 HD
BRANCH  13  17
ATOM     17  C   UNL     1       0.542  10.184  19.707  0.00  0.00    +0.000 C 
ATOM     18 CL   UNL     1       0.616   8.980  21.031  0.00  0.00    +0.000 Cl
ATOM     19 CL   UNL     1       1.103  11.759  20.317  0.00  0.00    +0.000 Cl
ATOM     20 CL   UNL     1      -1.129  10.285  19.104  0.00  0.00    +0.000 Cl
ENDBRANCH  13  17
ENDBRANCH  11  12
ENDBRANCH   4  11
TORSDOF 3
ENDMDL
MODEL 8
REMARK VINA RESULT:      -6.5      4.278      6.255
REMARK  Name = 
REMARK  4 active torsions:
REMARK  status: ('A' for Active; 'I' for Inactive)
REMARK    1  A    between atoms: C_1  and  N_2
REMARK    2  A    between atoms: C_4  and  C_5
REMARK    3  A    between atoms: C_5  and  N_6
REMARK    4  A    between atoms: C_7  and  C_9
REMARK                            x       y       z     vdW  Elec       q    Type
REMARK                         _______ _______ _______ _____ _____    ______ ____
ROOT
ATOM      1  C   UNL     1       2.225   3.226  18.349  0.00  0.00    +0.000 C 
ATOM      2  N   UNL     1       2.841   4.482  17.982  0.00  0.00    +0.000 N 
ATOM      3  C   UNL     1       2.364   5.718  18.330  0.00  0.00    +0.000 A 
ATOM      4  C   UNL     1       3.176   6.678  17.752  0.00  0.00    +0.000 A 
ATOM      5  C   UNL     1       4.208   5.977  17.047  0.00  0.00    +0.000 A 
ATOM      6  C   UNL     1       5.317   6.384  16.276  0.00  0.00    +0.000 A 
ATOM      7  C   UNL     1       6.151   5.422  15.696  0.00  0.00    +0.000 A 
ATOM      8  C   UNL     1       5.899   4.066  15.876  0.00  0.00    +0.000 A 
ATOM      9  C   UNL     1       4.808   3.633  16.635  0.00  0.00    +0.000 A 
ATOM     10  C   UNL     1       3.975   4.607  17.210  0.00  0.00    +0.000 A 
ENDROOT
BRANCH   4  11
ATOM     11  C   UNL     1       2.997   8.162  17.841  0.00  0.00    +0.000 C 
BRANCH  11  12
ATOM     12  N   UNL     1       1.874   8.596  18.641  0.00  0.00    +0.000 N 
ATOM     13  C   UNL     1       1.315   9.860  18.688  0.00  0.00    +0.000 C 
ATOM     14  N   UNL     1       1.758  10.828  17.938  0.00  0.00    +0.000 NA
ATOM     15  H   UNL     1       1.502   7.884  19.268  0.00  0.00    +0.000 HD
ATOM     16  H   UNL     1       2.527  10.515  17.349  0.00  0.00    +0.000 HD
BRANCH  13  17
ATOM     17  C   UNL     1       0.114  10.153  19.674  0.00  0.00    +0.000 C 
ATOM     18 CL   UNL     1       0.312  11.774  20.411  0.00  0.00    +0.000 Cl
ATOM     19 CL   UNL     1      -1.405  10.114  18.748  0.00  0.00    +0.000 Cl
ATOM     20 CL   UNL     1       0.116   8.924  20.961  0.00  0.00    +0.000 Cl
ENDBRANCH  13  17
ENDBRANCH  11  12
ENDBRANCH   4  11
TORSDOF 3
ENDMDL
MODEL 9
REMARK VINA RESULT:      -6.5      3.996      6.142
REMARK  Name = 
REMARK  4 active torsions:
REMARK  status: ('A' for Active; 'I' for Inactive)
REMARK    1  A    between atoms: C_1  and  N_2
REMARK    2  A    between atoms: C_4  and  C_5
REMARK    3  A    between atoms: C_5  and  N_6
REMARK    4  A    between atoms: C_7  and  C_9
REMARK                            x       y       z     vdW  Elec       q    Type
REMARK                         _______ _______ _______ _____ _____    ______ ____
ROOT
ATOM      1  C   UNL     1       4.498   4.755  16.529  0.00  0.00    +0.000 C 
ATOM      2  N   UNL     1       3.580   5.082  17.599  0.00  0.00    +0.000 N 
ATOM      3  C   UNL     1       3.483   6.308  18.199  0.00  0.00    +0.000 A 
ATOM      4  C   UNL     1       2.545   6.226  19.213  0.00  0.00    +0.000 A 
ATOM      5  C   UNL     1       2.036   4.886  19.197  0.00  0.00    +0.000 A 
ATOM      6  C   UNL     1       1.075   4.196  19.965  0.00  0.00    +0.000 A 
ATOM      7  C   UNL     1       0.807   2.849  19.695  0.00  0.00    +0.000 A 
ATOM      8  C   UNL     1       1.478   2.185  18.673  0.00  0.00    +0.000 A 
ATOM      9  C   UNL     1       2.434   2.845  17.896  0.00  0.00    +0.000 A 
ATOM     10  C   UNL     1       2.698   4.196  18.177  0.00  0.00    +0.000 A 
ENDROOT
BRANCH   4  11
ATOM     11  C   UNL     1       2.152   7.325  20.151  0.00  0.00    +0.000 C 
BRANCH  11  12
ATOM     12  N   UNL     1       1.602   8.502  19.517  0.00  0.00    +0.000 N 
ATOM     13  C   UNL     1       0.827   9.486  20.103  0.00  0.00    +0.000 C 
ATOM     14  N   UNL     1       0.535   9.458  21.372  0.00  0.00    +0.000 NA
ATOM     15  H   UNL     1       1.778   8.563  18.516  0.00  0.00    +0.000 HD
ATOM     16  H   UNL     1       0.950   8.647  21.827  0.00  0.00    +0.000 HD
BRANCH  13  17
ATOM     17  C   UNL     1       0.270  10.678  19.224  0.00  0.00    +0.000 C 
ATOM     18 CL   UNL     1      -0.782  11.731  20.220  0.00  0.00    +0.000 Cl
ATOM     19 CL   UNL     1       1.647  11.630  18.619  0.00  0.00    +0.000 Cl
ATOM     20 CL   UNL     1      -0.685  10.002  17.882  0.00  0.00    +0.000 Cl
ENDBRANCH  13  17
ENDBRANCH  11  12
ENDBRANCH   4  11
TORSDOF 3
ENDMDL
