MODEL 1
REMARK VINA RESULT:      -7.4      0.000      0.000
REMARK  Name = 
REMARK  4 active torsions:
REMARK  status: ('A' for Active; 'I' for Inactive)
REMARK    1  A    between atoms: S_2  and  C_4
REMARK    2  A    between atoms: S_2  and  N_11
REMARK    3  A    between atoms: C_19  and  C_20
REMARK    4  A    between atoms: C_20  and  O_21
REMARK                            x       y       z     vdW  Elec       q    Type
REMARK                         _______ _______ _______ _____ _____    ______ ____
ROOT
ATOM      1  N   UNL     1       3.777   4.891  17.381  0.00  0.00    +0.000 NA
ATOM      2  C   UNL     1       4.307   3.774  16.525  0.00  0.00    +0.000 C 
ATOM      3  C   UNL     1       5.246   4.292  15.429  0.00  0.00    +0.000 C 
ATOM      4  C   UNL     1       6.197   5.267  15.999  0.00  0.00    +0.000 A 
ATOM      5  N   UNL     1       7.322   5.648  15.384  0.00  0.00    +0.000 NA
ATOM      6  N   UNL     1       7.856   6.541  16.236  0.00  0.00    +0.000 N 
ATOM      7  C   UNL     1       7.089   6.760  17.348  0.00  0.00    +0.000 A 
ATOM      8  C   UNL     1       6.001   5.923  17.232  0.00  0.00    +0.000 A 
ATOM      9  C   UNL     1       4.831   5.679  18.140  0.00  0.00    +0.000 C 
ATOM     10  H   UNL     1       8.744   6.968  15.991  0.00  0.00    +0.000 HD
ENDROOT
BRANCH   1  12
ATOM     11  O   UNL     1       2.735   3.567  19.300  0.00  0.00    +0.000 OA
ATOM     12  S   UNL     1       2.383   4.530  18.280  0.00  0.00    +0.000 S 
ATOM     13  O   UNL     1       1.331   4.264  17.320  0.00  0.00    +0.000 OA
BRANCH  12  14
ATOM     14  C   UNL     1       2.035   6.067  19.105  0.00  0.00    +0.000 A 
ATOM     15  C   UNL     1       1.688   6.082  20.460  0.00  0.00    +0.000 A 
ATOM     16  C   UNL     1       1.369   7.297  21.073  0.00  0.00    +0.000 A 
ATOM     17  C   UNL     1       1.406   8.481  20.334  0.00  0.00    +0.000 A 
ATOM     18 CL   UNL     1       0.973   9.969  21.083  0.00  0.00    +0.000 Cl
ATOM     19  C   UNL     1       1.781   8.468  18.989  0.00  0.00    +0.000 A 
ATOM     20  C   UNL     1       2.102   7.257  18.371  0.00  0.00    +0.000 A 
ENDBRANCH  12  14
ENDBRANCH   1  12
BRANCH   9  21
ATOM     21  C   UNL     1       5.267   5.039  19.481  0.00  0.00    +0.000 C 
BRANCH  21  22
ATOM     22  O   UNL     1       5.733   3.697  19.345  0.00  0.00    +0.000 OA
ATOM     23  H   UNL     1       6.617   3.749  18.938  0.00  0.00    +0.000 HD
ENDBRANCH  21  22
ENDBRANCH   9  21
TORSDOF 4
ENDMDL
MODEL 2
REMARK VINA RESULT:      -7.3      0.094      1.064
REMARK  Name = 
REMARK  4 active torsions:
REMARK  status: ('A' for Active; 'I' for Inactive)
REMARK    1  A    between atoms: S_2  and  C_4
REMARK    2  A    between atoms: S_2  and  N_11
REMARK    3  A    between atoms: C_19  and  C_20
REMARK    4  A    between atoms: C_20  and  O_21
REMARK                            x       y       z     vdW  Elec       q    Type
REMARK                         _______ _______ _______ _____ _____    ______ ____
ROOT
ATOM      1  N   UNL     1       3.807   4.894  17.373  0.00  0.00    +0.000 NA
ATOM      2  C   UNL     1       4.355   3.808  16.489  0.00  0.00    +0.000 C 
ATOM      3  C   UNL     1       5.297   4.368  15.417  0.00  0.00    +0.000 C 
ATOM      4  C   UNL     1       6.235   5.333  16.024  0.00  0.00    +0.000 A 
ATOM      5  N   UNL     1       7.361   5.742  15.431  0.00  0.00    +0.000 NA
ATOM      6  N   UNL     1       7.880   6.615  16.314  0.00  0.00    +0.000 N 
ATOM      7  C   UNL     1       7.102   6.793  17.425  0.00  0.00    +0.000 A 
ATOM      8  C   UNL     1       6.022   5.950  17.275  0.00  0.00    +0.000 A 
ATOM      9  C   UNL     1       4.846   5.668  18.165  0.00  0.00    +0.000 C 
ATOM     10  H   UNL     1       8.766   7.056  16.089  0.00  0.00    +0.000 HD
ENDROOT
BRANCH   1  12
ATOM     11  O   UNL     1       2.772   3.545  19.279  0.00  0.00    +0.000 OA
ATOM     12  S   UNL     1       2.409   4.494  18.248  0.00  0.00    +0.000 S 
ATOM     13  O   UNL     1       1.383   4.192  17.271  0.00  0.00    +0.000 OA
BRANCH  12  14
ATOM     14  C   UNL     1       1.999   6.022  19.061  0.00  0.00    +0.000 A 
ATOM     15  C   UNL     1       2.021   7.229  18.355  0.00  0.00    +0.000 A 
ATOM     16  C   UNL     1       1.746   8.423  19.028  0.00  0.00    +0.000 A 
ATOM     17  C   UNL     1       1.444   8.401  20.391  0.00  0.00    +0.000 A 
ATOM     18 CL   UNL     1       1.146   9.877  21.223  0.00  0.00    +0.000 Cl
ATOM     19  C   UNL     1       1.393   7.191  21.088  0.00  0.00    +0.000 A 
ATOM     20  C   UNL     1       1.667   5.995  20.421  0.00  0.00    +0.000 A 
ENDBRANCH  12  14
ENDBRANCH   1  12
BRANCH   9  21
ATOM     21  C   UNL     1       5.277   4.993  19.489  0.00  0.00    +0.000 C 
BRANCH  21  22
ATOM     22  O   UNL     1       5.720   3.646  19.323  0.00  0.00    +0.000 OA
ATOM     23  H   UNL     1       6.452   3.513  19.952  0.00  0.00    +0.000 HD
ENDBRANCH  21  22
ENDBRANCH   9  21
TORSDOF 4
ENDMDL
MODEL 3
REMARK VINA RESULT:      -7.0      3.924      6.470
REMARK  Name = 
REMARK  4 active torsions:
REMARK  status: ('A' for Active; 'I' for Inactive)
REMARK    1  A    between atoms: S_2  and  C_4
REMARK    2  A    between atoms: S_2  and  N_11
REMARK    3  A    between atoms: C_19  and  C_20
REMARK    4  A    between atoms: C_20  and  O_21
REMARK                            x       y       z     vdW  Elec       q    Type
REMARK                         _______ _______ _______ _____ _____    ______ ____
ROOT
ATOM      1  N   UNL     1       4.188   4.518  17.808  0.00  0.00    +0.000 NA
ATOM      2  C   UNL     1       3.168   5.541  18.223  0.00  0.00    +0.000 C 
ATOM      3  C   UNL     1       1.743   5.102  17.868  0.00  0.00    +0.000 C 
ATOM      4  C   UNL     1       1.538   3.692  18.258  0.00  0.00    +0.000 A 
ATOM      5  N   UNL     1       0.333   3.126  18.374  0.00  0.00    +0.000 NA
ATOM      6  N   UNL     1       0.616   1.857  18.721  0.00  0.00    +0.000 N 
ATOM      7  C   UNL     1       1.958   1.600  18.794  0.00  0.00    +0.000 A 
ATOM      8  C   UNL     1       2.592   2.791  18.515  0.00  0.00    +0.000 A 
ATOM      9  C   UNL     1       4.047   3.159  18.471  0.00  0.00    +0.000 C 
ATOM     10  H   UNL     1      -0.156   1.220  18.885  0.00  0.00    +0.000 HD
ENDROOT
BRANCH   1  12
ATOM     11  O   UNL     1       6.630   4.232  18.499  0.00  0.00    +0.000 OA
ATOM     12  S   UNL     1       5.786   5.079  17.686  0.00  0.00    +0.000 S 
ATOM     13  O   UNL     1       5.736   6.513  17.888  0.00  0.00    +0.000 OA
BRANCH  12  14
ATOM     14  C   UNL     1       6.193   4.751  15.986  0.00  0.00    +0.000 A 
ATOM     15  C   UNL     1       7.401   5.204  15.445  0.00  0.00    +0.000 A 
ATOM     16  C   UNL     1       7.674   4.977  14.093  0.00  0.00    +0.000 A 
ATOM     17  C   UNL     1       6.749   4.298  13.299  0.00  0.00    +0.000 A 
ATOM     18 CL   UNL     1       7.073   4.057  11.626  0.00  0.00    +0.000 Cl
ATOM     19  C   UNL     1       5.557   3.820  13.848  0.00  0.00    +0.000 A 
ATOM     20  C   UNL     1       5.277   4.042  15.198  0.00  0.00    +0.000 A 
ENDBRANCH  12  14
ENDBRANCH   1  12
BRANCH   9  21
ATOM     21  C   UNL     1       4.708   3.055  19.867  0.00  0.00    +0.000 C 
BRANCH  21  22
ATOM     22  O   UNL     1       5.284   1.776  20.128  0.00  0.00    +0.000 OA
ATOM     23  H   UNL     1       4.906   1.161  19.474  0.00  0.00    +0.000 HD
ENDBRANCH  21  22
ENDBRANCH   9  21
TORSDOF 4
ENDMDL
MODEL 4
REMARK VINA RESULT:      -7.0      3.940      6.459
REMARK  Name = 
REMARK  4 active torsions:
REMARK  status: ('A' for Active; 'I' for Inactive)
REMARK    1  A    between atoms: S_2  and  C_4
REMARK    2  A    between atoms: S_2  and  N_11
REMARK    3  A    between atoms: C_19  and  C_20
REMARK    4  A    between atoms: C_20  and  O_21
REMARK                            x       y       z     vdW  Elec       q    Type
REMARK                         _______ _______ _______ _____ _____    ______ ____
ROOT
ATOM      1  N   UNL     1       4.152   4.518  17.766  0.00  0.00    +0.000 NA
ATOM      2  C   UNL     1       3.127   5.536  18.180  0.00  0.00    +0.000 C 
ATOM      3  C   UNL     1       1.702   5.077  17.850  0.00  0.00    +0.000 C 
ATOM      4  C   UNL     1       1.517   3.671  18.262  0.00  0.00    +0.000 A 
ATOM      5  N   UNL     1       0.320   3.093  18.402  0.00  0.00    +0.000 NA
ATOM      6  N   UNL     1       0.621   1.832  18.763  0.00  0.00    +0.000 N 
ATOM      7  C   UNL     1       1.966   1.590  18.822  0.00  0.00    +0.000 A 
ATOM      8  C   UNL     1       2.584   2.784  18.518  0.00  0.00    +0.000 A 
ATOM      9  C   UNL     1       4.034   3.167  18.450  0.00  0.00    +0.000 C 
ATOM     10  H   UNL     1      -0.142   1.189  18.946  0.00  0.00    +0.000 HD
ENDROOT
BRANCH   1  12
ATOM     11  O   UNL     1       6.614   4.233  18.384  0.00  0.00    +0.000 OA
ATOM     12  S   UNL     1       5.742   5.095  17.615  0.00  0.00    +0.000 S 
ATOM     13  O   UNL     1       5.687   6.522  17.855  0.00  0.00    +0.000 OA
BRANCH  12  14
ATOM     14  C   UNL     1       6.105   4.812  15.897  0.00  0.00    +0.000 A 
ATOM     15  C   UNL     1       5.196   4.126  15.084  0.00  0.00    +0.000 A 
ATOM     16  C   UNL     1       5.527   3.871  13.750  0.00  0.00    +0.000 A 
ATOM     17  C   UNL     1       6.751   4.307  13.240  0.00  0.00    +0.000 A 
ATOM     18 CL   UNL     1       7.171   3.955  11.608  0.00  0.00    +0.000 Cl
ATOM     19  C   UNL     1       7.644   5.018  14.045  0.00  0.00    +0.000 A 
ATOM     20  C   UNL     1       7.319   5.276  15.379  0.00  0.00    +0.000 A 
ENDBRANCH  12  14
ENDBRANCH   1  12
BRANCH   9  21
ATOM     21  C   UNL     1       4.714   3.090  19.838  0.00  0.00    +0.000 C 
BRANCH  21  22
ATOM     22  O   UNL     1       5.274   1.809  20.126  0.00  0.00    +0.000 OA
ATOM     23  H   UNL     1       6.225   1.868  19.921  0.00  0.00    +0.000 HD
ENDBRANCH  21  22
ENDBRANCH   9  21
TORSDOF 4
ENDMDL
MODEL 5
REMARK VINA RESULT:      -6.8      1.481      1.702
REMARK  Name = 
REMARK  4 active torsions:
REMARK  status: ('A' for Active; 'I' for Inactive)
REMARK    1  A    between atoms: S_2  and  C_4
REMARK    2  A    between atoms: S_2  and  N_11
REMARK    3  A    between atoms: C_19  and  C_20
REMARK    4  A    between atoms: C_20  and  O_21
REMARK                            x       y       z     vdW  Elec       q    Type
REMARK                         _______ _______ _______ _____ _____    ______ ____
ROOT
ATOM      1  N   UNL     1       3.899   5.696  18.559  0.00  0.00    +0.000 NA
ATOM      2  C   UNL     1       3.653   5.922  17.094  0.00  0.00    +0.000 C 
ATOM      3  C   UNL     1       4.899   6.461  16.382  0.00  0.00    +0.000 C 
ATOM      4  C   UNL     1       6.089   5.688  16.794  0.00  0.00    +0.000 A 
ATOM      5  N   UNL     1       7.246   5.702  16.126  0.00  0.00    +0.000 NA
ATOM      6  N   UNL     1       8.036   4.890  16.853  0.00  0.00    +0.000 N 
ATOM      7  C   UNL     1       7.425   4.396  17.972  0.00  0.00    +0.000 A 
ATOM      8  C   UNL     1       6.137   4.885  17.953  0.00  0.00    +0.000 A 
ATOM      9  C   UNL     1       4.977   4.676  18.883  0.00  0.00    +0.000 C 
ATOM     10  H   UNL     1       8.983   4.726  16.529  0.00  0.00    +0.000 HD
ENDROOT
BRANCH   1  12
ATOM     11  O   UNL     1       2.916   5.188  20.861  0.00  0.00    +0.000 OA
ATOM     12  S   UNL     1       2.511   5.586  19.530  0.00  0.00    +0.000 S 
ATOM     13  O   UNL     1       1.540   4.822  18.776  0.00  0.00    +0.000 OA
BRANCH  12  14
ATOM     14  C   UNL     1       1.963   7.275  19.630  0.00  0.00    +0.000 A 
ATOM     15  C   UNL     1       1.450   7.785  20.828  0.00  0.00    +0.000 A 
ATOM     16  C   UNL     1       0.978   9.100  20.867  0.00  0.00    +0.000 A 
ATOM     17  C   UNL     1       1.029   9.894  19.719  0.00  0.00    +0.000 A 
ATOM     18 CL   UNL     1       0.410  11.499  19.762  0.00  0.00    +0.000 Cl
ATOM     19  C   UNL     1       1.569   9.393  18.533  0.00  0.00    +0.000 A 
ATOM     20  C   UNL     1       2.043   8.080  18.487  0.00  0.00    +0.000 A 
ENDBRANCH  12  14
ENDBRANCH   1  12
BRANCH   9  21
ATOM     21  C   UNL     1       4.492   3.206  18.875  0.00  0.00    +0.000 C 
BRANCH  21  22
ATOM     22  O   UNL     1       5.142   2.389  19.847  0.00  0.00    +0.000 OA
ATOM     23  H   UNL     1       4.533   1.653  20.045  0.00  0.00    +0.000 HD
ENDBRANCH  21  22
ENDBRANCH   9  21
TORSDOF 4
ENDMDL
MODEL 6
REMARK VINA RESULT:      -6.7      4.297      6.559
REMARK  Name = 
REMARK  4 active torsions:
REMARK  status: ('A' for Active; 'I' for Inactive)
REMARK    1  A    between atoms: S_2  and  C_4
REMARK    2  A    between atoms: S_2  and  N_11
REMARK    3  A    between atoms: C_19  and  C_20
REMARK    4  A    between atoms: C_20  and  O_21
REMARK                            x       y       z     vdW  Elec       q    Type
REMARK                         _______ _______ _______ _____ _____    ______ ____
ROOT
ATOM      1  N   UNL     1       5.060   5.097  17.186  0.00  0.00    +0.000 NA
ATOM      2  C   UNL     1       3.728   5.767  17.378  0.00  0.00    +0.000 C 
ATOM      3  C   UNL     1       2.637   4.765  17.775  0.00  0.00    +0.000 C 
ATOM      4  C   UNL     1       3.141   3.865  18.832  0.00  0.00    +0.000 A 
ATOM      5  N   UNL     1       2.347   3.111  19.600  0.00  0.00    +0.000 NA
ATOM      6  N   UNL     1       3.214   2.452  20.391  0.00  0.00    +0.000 N 
ATOM      7  C   UNL     1       4.523   2.741  20.124  0.00  0.00    +0.000 A 
ATOM      8  C   UNL     1       4.510   3.683  19.118  0.00  0.00    +0.000 A 
ATOM      9  C   UNL     1       5.621   4.412  18.420  0.00  0.00    +0.000 C 
ATOM     10  H   UNL     1       2.839   1.814  21.086  0.00  0.00    +0.000 HD
ENDROOT
BRANCH   1  12
ATOM     11  O   UNL     1       7.483   5.864  16.946  0.00  0.00    +0.000 OA
ATOM     12  S   UNL     1       6.201   5.973  16.285  0.00  0.00    +0.000 S 
ATOM     13  O   UNL     1       5.603   7.261  16.004  0.00  0.00    +0.000 OA
BRANCH  12  14
ATOM     14  C   UNL     1       6.308   5.044  14.772  0.00  0.00    +0.000 A 
ATOM     15  C   UNL     1       5.289   4.157  14.410  0.00  0.00    +0.000 A 
ATOM     16  C   UNL     1       5.421   3.401  13.242  0.00  0.00    +0.000 A 
ATOM     17  C   UNL     1       6.559   3.541  12.446  0.00  0.00    +0.000 A 
ATOM     18 CL   UNL     1       6.735   2.578  11.030  0.00  0.00    +0.000 Cl
ATOM     19  C   UNL     1       7.562   4.448  12.793  0.00  0.00    +0.000 A 
ATOM     20  C   UNL     1       7.436   5.208  13.959  0.00  0.00    +0.000 A 
ENDBRANCH  12  14
ENDBRANCH   1  12
BRANCH   9  21
ATOM     21  C   UNL     1       6.385   5.353  19.384  0.00  0.00    +0.000 C 
BRANCH  21  22
ATOM     22  O   UNL     1       7.767   5.025  19.521  0.00  0.00    +0.000 OA
ATOM     23  H   UNL     1       8.028   4.568  18.700  0.00  0.00    +0.000 HD
ENDBRANCH  21  22
ENDBRANCH   9  21
TORSDOF 4
ENDMDL
MODEL 7
REMARK VINA RESULT:      -6.7      1.473      1.978
REMARK  Name = 
REMARK  4 active torsions:
REMARK  status: ('A' for Active; 'I' for Inactive)
REMARK    1  A    between atoms: S_2  and  C_4
REMARK    2  A    between atoms: S_2  and  N_11
REMARK    3  A    between atoms: C_19  and  C_20
REMARK    4  A    between atoms: C_20  and  O_21
REMARK                            x       y       z     vdW  Elec       q    Type
REMARK                         _______ _______ _______ _____ _____    ______ ____
ROOT
ATOM      1  N   UNL     1       3.885   5.680  18.586  0.00  0.00    +0.000 NA
ATOM      2  C   UNL     1       3.627   5.905  17.122  0.00  0.00    +0.000 C 
ATOM      3  C   UNL     1       4.865   6.453  16.403  0.00  0.00    +0.000 C 
ATOM      4  C   UNL     1       6.062   5.688  16.807  0.00  0.00    +0.000 A 
ATOM      5  N   UNL     1       7.216   5.709  16.130  0.00  0.00    +0.000 NA
ATOM      6  N   UNL     1       8.016   4.903  16.852  0.00  0.00    +0.000 N 
ATOM      7  C   UNL     1       7.415   4.403  17.975  0.00  0.00    +0.000 A 
ATOM      8  C   UNL     1       6.124   4.884  17.965  0.00  0.00    +0.000 A 
ATOM      9  C   UNL     1       4.971   4.667  18.902  0.00  0.00    +0.000 C 
ATOM     10  H   UNL     1       8.962   4.744  16.521  0.00  0.00    +0.000 HD
ENDROOT
BRANCH   1  12
ATOM     11  O   UNL     1       2.923   5.194  20.901  0.00  0.00    +0.000 OA
ATOM     12  S   UNL     1       2.504   5.561  19.566  0.00  0.00    +0.000 S 
ATOM     13  O   UNL     1       1.544   4.764  18.831  0.00  0.00    +0.000 OA
BRANCH  12  14
ATOM     14  C   UNL     1       1.924   7.240  19.639  0.00  0.00    +0.000 A 
ATOM     15  C   UNL     1       1.988   8.063  18.510  0.00  0.00    +0.000 A 
ATOM     16  C   UNL     1       1.574   9.394  18.607  0.00  0.00    +0.000 A 
ATOM     17  C   UNL     1       1.094   9.889  19.821  0.00  0.00    +0.000 A 
ATOM     18 CL   UNL     1       0.623  11.539  19.945  0.00  0.00    +0.000 Cl
ATOM     19  C   UNL     1       1.003   9.058  20.940  0.00  0.00    +0.000 A 
ATOM     20  C   UNL     1       1.415   7.726  20.850  0.00  0.00    +0.000 A 
ENDBRANCH  12  14
ENDBRANCH   1  12
BRANCH   9  21
ATOM     21  C   UNL     1       4.496   3.194  18.897  0.00  0.00    +0.000 C 
BRANCH  21  22
ATOM     22  O   UNL     1       5.130   2.389  19.890  0.00  0.00    +0.000 OA
ATOM     23  H   UNL     1       4.699   1.516  19.859  0.00  0.00    +0.000 HD
ENDBRANCH  21  22
ENDBRANCH   9  21
TORSDOF 4
ENDMDL
MODEL 8
REMARK VINA RESULT:      -6.7      1.290      1.390
REMARK  Name = 
REMARK  4 active torsions:
REMARK  status: ('A' for Active; 'I' for Inactive)
REMARK    1  A    between atoms: S_2  and  C_4
REMARK    2  A    between atoms: S_2  and  N_11
REMARK    3  A    between atoms: C_19  and  C_20
REMARK    4  A    between atoms: C_20  and  O_21
REMARK                            x       y       z     vdW  Elec       q    Type
REMARK                         _______ _______ _______ _____ _____    ______ ____
ROOT
ATOM      1  N   UNL     1       3.706   4.770  18.292  0.00  0.00    +0.000 NA
ATOM      2  C   UNL     1       3.496   3.897  17.086  0.00  0.00    +0.000 C 
ATOM      3  C   UNL     1       4.491   4.223  15.967  0.00  0.00    +0.000 C 
ATOM      4  C   UNL     1       5.852   4.354  16.524  0.00  0.00    +0.000 A 
ATOM      5  N   UNL     1       6.962   4.316  15.780  0.00  0.00    +0.000 NA
ATOM      6  N   UNL     1       7.948   4.491  16.680  0.00  0.00    +0.000 N 
ATOM      7  C   UNL     1       7.493   4.670  17.957  0.00  0.00    +0.000 A 
ATOM      8  C   UNL     1       6.120   4.565  17.893  0.00  0.00    +0.000 A 
ATOM      9  C   UNL     1       5.064   4.636  18.958  0.00  0.00    +0.000 C 
ATOM     10  H   UNL     1       8.907   4.483  16.349  0.00  0.00    +0.000 HD
ENDROOT
BRANCH   1  12
ATOM     11  O   UNL     1       2.866   4.478  20.687  0.00  0.00    +0.000 OA
ATOM     12  S   UNL     1       2.398   4.860  19.372  0.00  0.00    +0.000 S 
ATOM     13  O   UNL     1       1.291   4.175  18.736  0.00  0.00    +0.000 OA
BRANCH  12  14
ATOM     14  C   UNL     1       2.046   6.602  19.423  0.00  0.00    +0.000 A 
ATOM     15  C   UNL     1       1.546   7.191  20.590  0.00  0.00    +0.000 A 
ATOM     16  C   UNL     1       1.229   8.552  20.590  0.00  0.00    +0.000 A 
ATOM     17  C   UNL     1       1.418   9.311  19.434  0.00  0.00    +0.000 A 
ATOM     18 CL   UNL     1       0.988  10.978  19.427  0.00  0.00    +0.000 Cl
ATOM     19  C   UNL     1       1.945   8.729  18.279  0.00  0.00    +0.000 A 
ATOM     20  C   UNL     1       2.265   7.369  18.273  0.00  0.00    +0.000 A 
ENDBRANCH  12  14
ENDBRANCH   1  12
BRANCH   9  21
ATOM     21  C   UNL     1       5.176   3.460  19.957  0.00  0.00    +0.000 C 
BRANCH  21  22
ATOM     22  O   UNL     1       4.899   2.189  19.372  0.00  0.00    +0.000 OA
ATOM     23  H   UNL     1       4.836   2.332  18.409  0.00  0.00    +0.000 HD
ENDBRANCH  21  22
ENDBRANCH   9  21
TORSDOF 4
ENDMDL
MODEL 9
REMARK VINA RESULT:      -6.7      3.462      5.731
REMARK  Name = 
REMARK  4 active torsions:
REMARK  status: ('A' for Active; 'I' for Inactive)
REMARK    1  A    between atoms: S_2  and  C_4
REMARK    2  A    between atoms: S_2  and  N_11
REMARK    3  A    between atoms: C_19  and  C_20
REMARK    4  A    between atoms: C_20  and  O_21
REMARK                            x       y       z     vdW  Elec       q    Type
REMARK                         _______ _______ _______ _____ _____    ______ ____
ROOT
ATOM      1  N   UNL     1       4.270   3.720  18.564  0.00  0.00    +0.000 NA
ATOM      2  C   UNL     1       4.771   2.385  19.043  0.00  0.00    +0.000 C 
ATOM      3  C   UNL     1       4.565   2.206  20.551  0.00  0.00    +0.000 C 
ATOM      4  C   UNL     1       3.202   2.633  20.928  0.00  0.00    +0.000 A 
ATOM      5  N   UNL     1       2.619   2.307  22.086  0.00  0.00    +0.000 NA
ATOM      6  N   UNL     1       1.420   2.914  22.014  0.00  0.00    +0.000 N 
ATOM      7  C   UNL     1       1.244   3.636  20.866  0.00  0.00    +0.000 A 
ATOM      8  C   UNL     1       2.389   3.457  20.121  0.00  0.00    +0.000 A 
ATOM      9  C   UNL     1       2.784   3.961  18.764  0.00  0.00    +0.000 C 
ATOM     10  H   UNL     1       0.775   2.796  22.789  0.00  0.00    +0.000 HD
ENDROOT
BRANCH   1  12
ATOM     11  O   UNL     1       3.807   4.905  16.350  0.00  0.00    +0.000 OA
ATOM     12  S   UNL     1       4.874   4.237  17.064  0.00  0.00    +0.000 S 
ATOM     13  O   UNL     1       5.575   3.108  16.491  0.00  0.00    +0.000 OA
BRANCH  12  14
ATOM     14  C   UNL     1       6.059   5.481  17.521  0.00  0.00    +0.000 A 
ATOM     15  C   UNL     1       7.003   5.228  18.522  0.00  0.00    +0.000 A 
ATOM     16  C   UNL     1       7.891   6.239  18.900  0.00  0.00    +0.000 A 
ATOM     17  C   UNL     1       7.835   7.485  18.273  0.00  0.00    +0.000 A 
ATOM     18 CL   UNL     1       8.904   8.740  18.769  0.00  0.00    +0.000 Cl
ATOM     19  C   UNL     1       6.912   7.727  17.253  0.00  0.00    +0.000 A 
ATOM     20  C   UNL     1       6.022   6.720  16.871  0.00  0.00    +0.000 A 
ENDBRANCH  12  14
ENDBRANCH   1  12
BRANCH   9  21
ATOM     21  C   UNL     1       1.884   3.376  17.648  0.00  0.00    +0.000 C 
BRANCH  21  22
ATOM     22  O   UNL     1       0.944   4.313  17.126  0.00  0.00    +0.000 OA
ATOM     23  H   UNL     1       1.459   5.081  16.816  0.00  0.00    +0.000 HD
ENDBRANCH  21  22
ENDBRANCH   9  21
TORSDOF 4
ENDMDL
