MODEL 1
REMARK VINA RESULT:      -7.3      0.000      0.000
REMARK  Name = 
REMARK  7 active torsions:
REMARK  status: ('A' for Active; 'I' for Inactive)
REMARK    1  A    between atoms: C_1  and  C_2
REMARK    2  A    between atoms: C_8  and  N_9
REMARK    3  A    between atoms: C_10  and  C_12
REMARK    4  A    between atoms: C_12  and  N_13
REMARK    5  A    between atoms: C_14  and  C_16
REMARK    6  A    between atoms: C_16  and  S_17
REMARK    7  A    between atoms: S_17  and  C_18
REMARK                            x       y       z     vdW  Elec       q    Type
REMARK                         _______ _______ _______ _____ _____    ______ ____
ROOT
ATOM      1  C   UNL     1       3.286   4.142  20.269  0.00  0.00    +0.000 C 
ENDROOT
BRANCH   1   3
ATOM      2  N   UNL     1       2.646   6.520  20.106  0.00  0.00    +0.000 N 
ATOM      3  C   UNL     1       2.193   5.212  20.245  0.00  0.00    +0.000 C 
ATOM      4  O   UNL     1       1.021   4.850  20.362  0.00  0.00    +0.000 OA
ATOM      5  H   UNL     1       3.662   6.647  20.121  0.00  0.00    +0.000 HD
BRANCH   2  13
ATOM      6  C   UNL     1       2.504   8.281  17.676  0.00  0.00    +0.000 C 
ATOM      7  C   UNL     1       1.778   8.548  18.976  0.00  0.00    +0.000 A 
ATOM      8  C   UNL     1       1.099   9.784  19.076  0.00  0.00    +0.000 A 
ATOM      9  C   UNL     1       0.535  10.204  20.279  0.00  0.00    +0.000 A 
ATOM     10 BR   UNL     1      -0.223  11.927  20.433  0.00  0.00    +0.000 Br
ATOM     11  C   UNL     1       0.575   9.373  21.382  0.00  0.00    +0.000 A 
ATOM     12  C   UNL     1       1.213   8.132  21.293  0.00  0.00    +0.000 A 
ATOM     13  C   UNL     1       1.851   7.704  20.112  0.00  0.00    +0.000 A 
ENDBRANCH   2  13
ENDBRANCH   1   3
BRANCH   1  14
ATOM     14  N   UNL     1       3.826   3.872  18.952  0.00  0.00    +0.000 N 
ATOM     15  C   UNL     1       4.970   4.497  18.512  0.00  0.00    +0.000 C 
ATOM     16  O   UNL     1       5.565   5.310  19.216  0.00  0.00    +0.000 OA
ATOM     17  H   UNL     1       3.432   3.099  18.428  0.00  0.00    +0.000 HD
BRANCH  15  18
ATOM     18  C   UNL     1       5.394   4.117  17.103  0.00  0.00    +0.000 C 
BRANCH  18  19
ATOM     19  S   UNL     1       7.025   4.772  16.678  0.00  0.00    +0.000 S 
BRANCH  19  20
ATOM     20  C   UNL     1       6.933   4.668  14.909  0.00  0.00    +0.000 A 
ATOM     21  N   UNL     1       7.785   5.411  14.180  0.00  0.00    +0.000 NA
ATOM     22  C   UNL     1       7.767   5.196  12.849  0.00  0.00    +0.000 A 
ATOM     23  C   UNL     1       6.930   4.308  12.226  0.00  0.00    +0.000 A 
ATOM     24  C   UNL     1       6.120   3.608  13.075  0.00  0.00    +0.000 A 
ATOM     25  N   UNL     1       6.092   3.771  14.408  0.00  0.00    +0.000 NA
ENDBRANCH  19  20
ENDBRANCH  18  19
ENDBRANCH  15  18
ENDBRANCH   1  14
TORSDOF 6
ENDMDL
MODEL 2
REMARK VINA RESULT:      -7.2      0.703      1.193
REMARK  Name = 
REMARK  7 active torsions:
REMARK  status: ('A' for Active; 'I' for Inactive)
REMARK    1  A    between atoms: C_1  and  C_2
REMARK    2  A    between atoms: C_8  and  N_9
REMARK    3  A    between atoms: C_10  and  C_12
REMARK    4  A    between atoms: C_12  and  N_13
REMARK    5  A    between atoms: C_14  and  C_16
REMARK    6  A    between atoms: C_16  and  S_17
REMARK    7  A    between atoms: S_17  and  C_18
REMARK                            x       y       z     vdW  Elec       q    Type
REMARK                         _______ _______ _______ _____ _____    ______ ____
ROOT
ATOM      1  C   UNL     1       3.555   3.876  19.735  0.00  0.00    +0.000 C 
ENDROOT
BRANCH   1   3
ATOM      2  N   UNL     1       2.792   6.199  20.073  0.00  0.00    +0.000 N 
ATOM      3  C   UNL     1       2.555   4.992  19.423  0.00  0.00    +0.000 C 
ATOM      4  O   UNL     1       1.628   4.745  18.650  0.00  0.00    +0.000 OA
ATOM      5  H   UNL     1       3.553   6.198  20.758  0.00  0.00    +0.000 HD
BRANCH   2  13
ATOM      6  C   UNL     1       2.831   7.949  17.631  0.00  0.00    +0.000 C 
ATOM      7  C   UNL     1       2.000   8.214  18.867  0.00  0.00    +0.000 A 
ATOM      8  C   UNL     1       1.304   9.444  18.905  0.00  0.00    +0.000 A 
ATOM      9  C   UNL     1       0.640   9.864  20.056  0.00  0.00    +0.000 A 
ATOM     10 BR   UNL     1      -0.143  11.581  20.139  0.00  0.00    +0.000 Br
ATOM     11  C   UNL     1       0.599   9.038  21.163  0.00  0.00    +0.000 A 
ATOM     12  C   UNL     1       1.252   7.803  21.133  0.00  0.00    +0.000 A 
ATOM     13  C   UNL     1       1.988   7.376  20.009  0.00  0.00    +0.000 A 
ENDBRANCH   2  13
ENDBRANCH   1   3
BRANCH   1  14
ATOM     14  N   UNL     1       4.588   3.761  18.726  0.00  0.00    +0.000 N 
ATOM     15  C   UNL     1       5.701   4.571  18.754  0.00  0.00    +0.000 C 
ATOM     16  O   UNL     1       5.849   5.422  19.628  0.00  0.00    +0.000 OA
ATOM     17  H   UNL     1       4.548   2.969  18.095  0.00  0.00    +0.000 HD
BRANCH  15  18
ATOM     18  C   UNL     1       6.681   4.335  17.616  0.00  0.00    +0.000 C 
BRANCH  18  19
ATOM     19  S   UNL     1       6.894   5.801  16.581  0.00  0.00    +0.000 S 
BRANCH  19  20
ATOM     20  C   UNL     1       6.918   5.033  14.982  0.00  0.00    +0.000 A 
ATOM     21  N   UNL     1       5.985   4.104  14.704  0.00  0.00    +0.000 NA
ATOM     22  C   UNL     1       5.963   3.649  13.436  0.00  0.00    +0.000 A 
ATOM     23  C   UNL     1       6.834   4.055  12.459  0.00  0.00    +0.000 A 
ATOM     24  C   UNL     1       7.727   5.007  12.862  0.00  0.00    +0.000 A 
ATOM     25  N   UNL     1       7.799   5.505  14.107  0.00  0.00    +0.000 NA
ENDBRANCH  19  20
ENDBRANCH  18  19
ENDBRANCH  15  18
ENDBRANCH   1  14
TORSDOF 6
ENDMDL
MODEL 3
REMARK VINA RESULT:      -7.2      1.399      1.849
REMARK  Name = 
REMARK  7 active torsions:
REMARK  status: ('A' for Active; 'I' for Inactive)
REMARK    1  A    between atoms: C_1  and  C_2
REMARK    2  A    between atoms: C_8  and  N_9
REMARK    3  A    between atoms: C_10  and  C_12
REMARK    4  A    between atoms: C_12  and  N_13
REMARK    5  A    between atoms: C_14  and  C_16
REMARK    6  A    between atoms: C_16  and  S_17
REMARK    7  A    between atoms: S_17  and  C_18
REMARK                            x       y       z     vdW  Elec       q    Type
REMARK                         _______ _______ _______ _____ _____    ______ ____
ROOT
ATOM      1  C   UNL     1       3.476   3.149  17.724  0.00  0.00    +0.000 C 
ENDROOT
BRANCH   1   3
ATOM      2  N   UNL     1       2.997   5.279  18.875  0.00  0.00    +0.000 N 
ATOM      3  C   UNL     1       2.502   4.289  18.032  0.00  0.00    +0.000 C 
ATOM      4  O   UNL     1       1.375   4.242  17.537  0.00  0.00    +0.000 OA
ATOM      5  H   UNL     1       3.924   5.108  19.274  0.00  0.00    +0.000 HD
BRANCH   2  13
ATOM      6  C   UNL     1       3.067   7.891  17.391  0.00  0.00    +0.000 C 
ATOM      7  C   UNL     1       2.314   7.654  18.682  0.00  0.00    +0.000 A 
ATOM      8  C   UNL     1       1.720   8.789  19.281  0.00  0.00    +0.000 A 
ATOM      9  C   UNL     1       1.142   8.718  20.547  0.00  0.00    +0.000 A 
ATOM     10 BR   UNL     1       0.502  10.278  21.397  0.00  0.00    +0.000 Br
ATOM     11  C   UNL     1       1.084   7.506  21.208  0.00  0.00    +0.000 A 
ATOM     12  C   UNL     1       1.637   6.366  20.617  0.00  0.00    +0.000 A 
ATOM     13  C   UNL     1       2.287   6.415  19.366  0.00  0.00    +0.000 A 
ENDBRANCH   2  13
ENDBRANCH   1   3
BRANCH   1  14
ATOM     14  N   UNL     1       4.747   3.629  17.218  0.00  0.00    +0.000 N 
ATOM     15  C   UNL     1       5.781   3.932  18.072  0.00  0.00    +0.000 C 
ATOM     16  O   UNL     1       5.660   3.816  19.289  0.00  0.00    +0.000 OA
ATOM     17  H   UNL     1       4.905   3.584  16.218  0.00  0.00    +0.000 HD
BRANCH  15  18
ATOM     18  C   UNL     1       7.039   4.437  17.384  0.00  0.00    +0.000 C 
BRANCH  18  19
ATOM     19  S   UNL     1       6.706   5.837  16.289  0.00  0.00    +0.000 S 
BRANCH  19  20
ATOM     20  C   UNL     1       6.849   5.024  14.719  0.00  0.00    +0.000 A 
ATOM     21  N   UNL     1       5.976   4.045  14.423  0.00  0.00    +0.000 NA
ATOM     22  C   UNL     1       6.041   3.553  13.170  0.00  0.00    +0.000 A 
ATOM     23  C   UNL     1       6.943   3.971  12.227  0.00  0.00    +0.000 A 
ATOM     24  C   UNL     1       7.769   4.975  12.645  0.00  0.00    +0.000 A 
ATOM     25  N   UNL     1       7.753   5.512  13.876  0.00  0.00    +0.000 NA
ENDBRANCH  19  20
ENDBRANCH  18  19
ENDBRANCH  15  18
ENDBRANCH   1  14
TORSDOF 6
ENDMDL
MODEL 4
REMARK VINA RESULT:      -7.0      1.614      1.931
REMARK  Name = 
REMARK  7 active torsions:
REMARK  status: ('A' for Active; 'I' for Inactive)
REMARK    1  A    between atoms: C_1  and  C_2
REMARK    2  A    between atoms: C_8  and  N_9
REMARK    3  A    between atoms: C_10  and  C_12
REMARK    4  A    between atoms: C_12  and  N_13
REMARK    5  A    between atoms: C_14  and  C_16
REMARK    6  A    between atoms: C_16  and  S_17
REMARK    7  A    between atoms: S_17  and  C_18
REMARK                            x       y       z     vdW  Elec       q    Type
REMARK                         _______ _______ _______ _____ _____    ______ ____
ROOT
ATOM      1  C   UNL     1       3.438   5.028  19.303  0.00  0.00    +0.000 C 
ENDROOT
BRANCH   1   3
ATOM      2  N   UNL     1       2.454   7.249  19.742  0.00  0.00    +0.000 N 
ATOM      3  C   UNL     1       2.323   5.875  19.921  0.00  0.00    +0.000 C 
ATOM      4  O   UNL     1       1.420   5.298  20.529  0.00  0.00    +0.000 OA
ATOM      5  H   UNL     1       3.320   7.563  19.294  0.00  0.00    +0.000 HD
BRANCH   2  13
ATOM      6  C   UNL     1       1.373   9.403  17.948  0.00  0.00    +0.000 C 
ATOM      7  C   UNL     1       1.082   9.289  19.428  0.00  0.00    +0.000 A 
ATOM      8  C   UNL     1       0.357  10.354  20.010  0.00  0.00    +0.000 A 
ATOM      9  C   UNL     1       0.172  10.433  21.390  0.00  0.00    +0.000 A 
ATOM     10 BR   UNL     1      -0.655  11.946  22.161  0.00  0.00    +0.000 Br
ATOM     11  C   UNL     1       0.643   9.421  22.204  0.00  0.00    +0.000 A 
ATOM     12  C   UNL     1       1.333   8.342  21.642  0.00  0.00    +0.000 A 
ATOM     13  C   UNL     1       1.595   8.263  20.259  0.00  0.00    +0.000 A 
ENDBRANCH   2  13
ENDBRANCH   1   3
BRANCH   1  14
ATOM     14  N   UNL     1       4.741   5.650  19.429  0.00  0.00    +0.000 N 
ATOM     15  C   UNL     1       5.893   4.930  19.213  0.00  0.00    +0.000 C 
ATOM     16  O   UNL     1       5.857   3.739  18.916  0.00  0.00    +0.000 OA
ATOM     17  H   UNL     1       4.777   6.658  19.523  0.00  0.00    +0.000 HD
BRANCH  15  18
ATOM     18  C   UNL     1       7.176   5.725  19.400  0.00  0.00    +0.000 C 
BRANCH  18  19
ATOM     19  S   UNL     1       7.469   6.883  18.044  0.00  0.00    +0.000 S 
BRANCH  19  20
ATOM     20  C   UNL     1       6.783   5.947  16.702  0.00  0.00    +0.000 A 
ATOM     21  N   UNL     1       5.617   6.355  16.168  0.00  0.00    +0.000 NA
ATOM     22  C   UNL     1       5.207   5.693  15.068  0.00  0.00    +0.000 A 
ATOM     23  C   UNL     1       5.885   4.642  14.507  0.00  0.00    +0.000 A 
ATOM     24  C   UNL     1       7.058   4.330  15.134  0.00  0.00    +0.000 A 
ATOM     25  N   UNL     1       7.525   4.952  16.229  0.00  0.00    +0.000 NA
ENDBRANCH  19  20
ENDBRANCH  18  19
ENDBRANCH  15  18
ENDBRANCH   1  14
TORSDOF 6
ENDMDL
MODEL 5
REMARK VINA RESULT:      -6.9      0.922      1.002
REMARK  Name = 
REMARK  7 active torsions:
REMARK  status: ('A' for Active; 'I' for Inactive)
REMARK    1  A    between atoms: C_1  and  C_2
REMARK    2  A    between atoms: C_8  and  N_9
REMARK    3  A    between atoms: C_10  and  C_12
REMARK    4  A    between atoms: C_12  and  N_13
REMARK    5  A    between atoms: C_14  and  C_16
REMARK    6  A    between atoms: C_16  and  S_17
REMARK    7  A    between atoms: S_17  and  C_18
REMARK                            x       y       z     vdW  Elec       q    Type
REMARK                         _______ _______ _______ _____ _____    ______ ____
ROOT
ATOM      1  C   UNL     1       3.185   4.959  19.934  0.00  0.00    +0.000 C 
ENDROOT
BRANCH   1   3
ATOM      2  N   UNL     1       2.299   7.245  20.217  0.00  0.00    +0.000 N 
ATOM      3  C   UNL     1       2.047   5.885  20.369  0.00  0.00    +0.000 C 
ATOM      4  O   UNL     1       1.022   5.375  20.824  0.00  0.00    +0.000 OA
ATOM      5  H   UNL     1       3.245   7.496  19.914  0.00  0.00    +0.000 HD
BRANCH   2  13
ATOM      6  C   UNL     1       1.477   9.325  18.211  0.00  0.00    +0.000 C 
ATOM      7  C   UNL     1       1.048   9.311  19.661  0.00  0.00    +0.000 A 
ATOM      8  C   UNL     1       0.319  10.436  20.112  0.00  0.00    +0.000 A 
ATOM      9  C   UNL     1       0.013  10.605  21.462  0.00  0.00    +0.000 A 
ATOM     10 BR   UNL     1      -0.816  12.191  22.065  0.00  0.00    +0.000 Br
ATOM     11  C   UNL     1       0.365   9.627  22.372  0.00  0.00    +0.000 A 
ATOM     12  C   UNL     1       1.057   8.492  21.939  0.00  0.00    +0.000 A 
ATOM     13  C   UNL     1       1.440   8.320  20.593  0.00  0.00    +0.000 A 
ENDBRANCH   2  13
ENDBRANCH   1   3
BRANCH   1  14
ATOM     14  N   UNL     1       3.917   5.477  18.796  0.00  0.00    +0.000 N 
ATOM     15  C   UNL     1       5.127   4.937  18.426  0.00  0.00    +0.000 C 
ATOM     16  O   UNL     1       5.630   4.007  19.052  0.00  0.00    +0.000 OA
ATOM     17  H   UNL     1       3.444   6.136  18.189  0.00  0.00    +0.000 HD
BRANCH  15  18
ATOM     18  C   UNL     1       5.773   5.604  17.223  0.00  0.00    +0.000 C 
BRANCH  18  19
ATOM     19  S   UNL     1       7.333   4.818  16.759  0.00  0.00    +0.000 S 
BRANCH  19  20
ATOM     20  C   UNL     1       7.085   4.679  15.008  0.00  0.00    +0.000 A 
ATOM     21  N   UNL     1       7.888   5.383  14.189  0.00  0.00    +0.000 NA
ATOM     22  C   UNL     1       7.748   5.141  12.871  0.00  0.00    +0.000 A 
ATOM     23  C   UNL     1       6.838   4.262  12.344  0.00  0.00    +0.000 A 
ATOM     24  C   UNL     1       6.089   3.602  13.276  0.00  0.00    +0.000 A 
ATOM     25  N   UNL     1       6.181   3.793  14.602  0.00  0.00    +0.000 NA
ENDBRANCH  19  20
ENDBRANCH  18  19
ENDBRANCH  15  18
ENDBRANCH   1  14
TORSDOF 6
ENDMDL
MODEL 6
REMARK VINA RESULT:      -6.8      1.148      1.217
REMARK  Name = 
REMARK  7 active torsions:
REMARK  status: ('A' for Active; 'I' for Inactive)
REMARK    1  A    between atoms: C_1  and  C_2
REMARK    2  A    between atoms: C_8  and  N_9
REMARK    3  A    between atoms: C_10  and  C_12
REMARK    4  A    between atoms: C_12  and  N_13
REMARK    5  A    between atoms: C_14  and  C_16
REMARK    6  A    between atoms: C_16  and  S_17
REMARK    7  A    between atoms: S_17  and  C_18
REMARK                            x       y       z     vdW  Elec       q    Type
REMARK                         _______ _______ _______ _____ _____    ______ ____
ROOT
ATOM      1  C   UNL     1       2.991   4.470  19.816  0.00  0.00    +0.000 C 
ENDROOT
BRANCH   1   3
ATOM      2  N   UNL     1       2.385   6.857  19.980  0.00  0.00    +0.000 N 
ATOM      3  C   UNL     1       1.966   5.546  20.183  0.00  0.00    +0.000 C 
ATOM      4  O   UNL     1       0.878   5.185  20.634  0.00  0.00    +0.000 OA
ATOM      5  H   UNL     1       3.360   6.978  19.690  0.00  0.00    +0.000 HD
BRANCH   2  13
ATOM      6  C   UNL     1       1.815   8.905  17.857  0.00  0.00    +0.000 C 
ATOM      7  C   UNL     1       1.385   9.021  19.302  0.00  0.00    +0.000 A 
ATOM      8  C   UNL     1       0.792  10.246  19.685  0.00  0.00    +0.000 A 
ATOM      9  C   UNL     1       0.505  10.524  21.020  0.00  0.00    +0.000 A 
ATOM     10 BR   UNL     1      -0.135  12.227  21.529  0.00  0.00    +0.000 Br
ATOM     11  C   UNL     1       0.739   9.564  21.986  0.00  0.00    +0.000 A 
ATOM     12  C   UNL     1       1.294   8.334  21.621  0.00  0.00    +0.000 A 
ATOM     13  C   UNL     1       1.657   8.044  20.290  0.00  0.00    +0.000 A 
ENDBRANCH   2  13
ENDBRANCH   1   3
BRANCH   1  14
ATOM     14  N   UNL     1       4.185   5.026  19.211  0.00  0.00    +0.000 N 
ATOM     15  C   UNL     1       5.363   4.315  19.186  0.00  0.00    +0.000 C 
ATOM     16  O   UNL     1       5.443   3.194  19.680  0.00  0.00    +0.000 OA
ATOM     17  H   UNL     1       4.090   5.879  18.672  0.00  0.00    +0.000 HD
BRANCH  15  18
ATOM     18  C   UNL     1       6.524   5.045  18.531  0.00  0.00    +0.000 C 
BRANCH  18  19
ATOM     19  S   UNL     1       5.969   6.353  17.413  0.00  0.00    +0.000 S 
BRANCH  19  20
ATOM     20  C   UNL     1       6.121   5.502  15.864  0.00  0.00    +0.000 A 
ATOM     21  N   UNL     1       7.244   5.679  15.144  0.00  0.00    +0.000 NA
ATOM     22  C   UNL     1       7.369   4.910  14.044  0.00  0.00    +0.000 A 
ATOM     23  C   UNL     1       6.426   4.009  13.627  0.00  0.00    +0.000 A 
ATOM     24  C   UNL     1       5.337   3.914  14.446  0.00  0.00    +0.000 A 
ATOM     25  N   UNL     1       5.153   4.647  15.556  0.00  0.00    +0.000 NA
ENDBRANCH  19  20
ENDBRANCH  18  19
ENDBRANCH  15  18
ENDBRANCH   1  14
TORSDOF 6
ENDMDL
MODEL 7
REMARK VINA RESULT:      -6.7      0.971      1.951
REMARK  Name = 
REMARK  7 active torsions:
REMARK  status: ('A' for Active; 'I' for Inactive)
REMARK    1  A    between atoms: C_1  and  C_2
REMARK    2  A    between atoms: C_8  and  N_9
REMARK    3  A    between atoms: C_10  and  C_12
REMARK    4  A    between atoms: C_12  and  N_13
REMARK    5  A    between atoms: C_14  and  C_16
REMARK    6  A    between atoms: C_16  and  S_17
REMARK    7  A    between atoms: S_17  and  C_18
REMARK                            x       y       z     vdW  Elec       q    Type
REMARK                         _______ _______ _______ _____ _____    ______ ____
ROOT
ATOM      1  C   UNL     1       3.420   4.325  19.684  0.00  0.00    +0.000 C 
ENDROOT
BRANCH   1   3
ATOM      2  N   UNL     1       2.795   6.712  19.644  0.00  0.00    +0.000 N 
ATOM      3  C   UNL     1       2.473   5.430  19.210  0.00  0.00    +0.000 C 
ATOM      4  O   UNL     1       1.511   5.112  18.510  0.00  0.00    +0.000 OA
ATOM      5  H   UNL     1       3.576   6.781  20.303  0.00  0.00    +0.000 HD
BRANCH   2  13
ATOM      6  C   UNL     1       1.169   7.982  21.827  0.00  0.00    +0.000 C 
ATOM      7  C   UNL     1       1.280   8.515  20.416  0.00  0.00    +0.000 A 
ATOM      8  C   UNL     1       0.448   9.611  20.090  0.00  0.00    +0.000 A 
ATOM      9  C   UNL     1       0.349  10.079  18.780  0.00  0.00    +0.000 A 
ATOM     10 BR   UNL     1      -0.889  11.434  18.338  0.00  0.00    +0.000 Br
ATOM     11  C   UNL     1       1.126   9.511  17.789  0.00  0.00    +0.000 A 
ATOM     12  C   UNL     1       1.979   8.448  18.099  0.00  0.00    +0.000 A 
ATOM     13  C   UNL     1       2.056   7.907  19.399  0.00  0.00    +0.000 A 
ENDBRANCH   2  13
ENDBRANCH   1   3
BRANCH   1  14
ATOM     14  N   UNL     1       4.485   4.064  18.736  0.00  0.00    +0.000 N 
ATOM     15  C   UNL     1       5.673   4.756  18.795  0.00  0.00    +0.000 C 
ATOM     16  O   UNL     1       5.866   5.622  19.645  0.00  0.00    +0.000 OA
ATOM     17  H   UNL     1       4.394   3.255  18.132  0.00  0.00    +0.000 HD
BRANCH  15  18
ATOM     18  C   UNL     1       6.678   4.376  17.721  0.00  0.00    +0.000 C 
BRANCH  18  19
ATOM     19  S   UNL     1       7.132   5.781  16.679  0.00  0.00    +0.000 S 
BRANCH  19  20
ATOM     20  C   UNL     1       7.008   5.018  15.082  0.00  0.00    +0.000 A 
ATOM     21  N   UNL     1       6.048   4.096  14.886  0.00  0.00    +0.000 NA
ATOM     22  C   UNL     1       5.909   3.646  13.624  0.00  0.00    +0.000 A 
ATOM     23  C   UNL     1       6.692   4.050  12.574  0.00  0.00    +0.000 A 
ATOM     24  C   UNL     1       7.624   4.995  12.898  0.00  0.00    +0.000 A 
ATOM     25  N   UNL     1       7.811   5.488  14.133  0.00  0.00    +0.000 NA
ENDBRANCH  19  20
ENDBRANCH  18  19
ENDBRANCH  15  18
ENDBRANCH   1  14
TORSDOF 6
ENDMDL
MODEL 8
REMARK VINA RESULT:      -6.7      7.147      8.431
REMARK  Name = 
REMARK  7 active torsions:
REMARK  status: ('A' for Active; 'I' for Inactive)
REMARK    1  A    between atoms: C_1  and  C_2
REMARK    2  A    between atoms: C_8  and  N_9
REMARK    3  A    between atoms: C_10  and  C_12
REMARK    4  A    between atoms: C_12  and  N_13
REMARK    5  A    between atoms: C_14  and  C_16
REMARK    6  A    between atoms: C_16  and  S_17
REMARK    7  A    between atoms: S_17  and  C_18
REMARK                            x       y       z     vdW  Elec       q    Type
REMARK                         _______ _______ _______ _____ _____    ______ ____
ROOT
ATOM      1  C   UNL     1       8.813   9.176  18.706  0.00  0.00    +0.000 C 
ENDROOT
BRANCH   1   3
ATOM      2  N   UNL     1      10.326  11.126  18.662  0.00  0.00    +0.000 N 
ATOM      3  C   UNL     1       9.081  10.625  18.294  0.00  0.00    +0.000 C 
ATOM      4  O   UNL     1       8.194  11.234  17.693  0.00  0.00    +0.000 OA
ATOM      5  H   UNL     1      10.902  10.512  19.245  0.00  0.00    +0.000 HD
BRANCH   2  13
ATOM      6  C   UNL     1      10.267  13.141  20.890  0.00  0.00    +0.000 C 
ATOM      7  C   UNL     1      10.782  13.416  19.495  0.00  0.00    +0.000 A 
ATOM      8  C   UNL     1      11.130  14.755  19.205  0.00  0.00    +0.000 A 
ATOM      9  C   UNL     1      11.462  15.151  17.911  0.00  0.00    +0.000 A 
ATOM     10 BR   UNL     1      11.764  16.973  17.514  0.00  0.00    +0.000 Br
ATOM     11  C   UNL     1      11.519  14.212  16.899  0.00  0.00    +0.000 A 
ATOM     12  C   UNL     1      11.211  12.877  17.174  0.00  0.00    +0.000 A 
ATOM     13  C   UNL     1      10.808  12.453  18.456  0.00  0.00    +0.000 A 
ENDBRANCH   2  13
ENDBRANCH   1   3
BRANCH   1  14
ATOM     14  N   UNL     1       7.924   8.494  17.787  0.00  0.00    +0.000 N 
ATOM     15  C   UNL     1       7.623   7.161  17.949  0.00  0.00    +0.000 C 
ATOM     16  O   UNL     1       8.103   6.506  18.870  0.00  0.00    +0.000 OA
ATOM     17  H   UNL     1       7.410   9.057  17.119  0.00  0.00    +0.000 HD
BRANCH  15  18
ATOM     18  C   UNL     1       6.691   6.593  16.891  0.00  0.00    +0.000 C 
BRANCH  18  19
ATOM     19  S   UNL     1       6.513   4.799  17.028  0.00  0.00    +0.000 S 
BRANCH  19  20
ATOM     20  C   UNL     1       4.789   4.703  17.432  0.00  0.00    +0.000 A 
ATOM     21  N   UNL     1       4.174   5.812  17.883  0.00  0.00    +0.000 NA
ATOM     22  C   UNL     1       2.840   5.723  18.047  0.00  0.00    +0.000 A 
ATOM     23  C   UNL     1       2.111   4.587  17.812  0.00  0.00    +0.000 A 
ATOM     24  C   UNL     1       2.846   3.532  17.349  0.00  0.00    +0.000 A 
ATOM     25  N   UNL     1       4.175   3.556  17.159  0.00  0.00    +0.000 NA
ENDBRANCH  19  20
ENDBRANCH  18  19
ENDBRANCH  15  18
ENDBRANCH   1  14
TORSDOF 6
ENDMDL
MODEL 9
REMARK VINA RESULT:      -6.6      5.330      9.085
REMARK  Name = 
REMARK  7 active torsions:
REMARK  status: ('A' for Active; 'I' for Inactive)
REMARK    1  A    between atoms: C_1  and  C_2
REMARK    2  A    between atoms: C_8  and  N_9
REMARK    3  A    between atoms: C_10  and  C_12
REMARK    4  A    between atoms: C_12  and  N_13
REMARK    5  A    between atoms: C_14  and  C_16
REMARK    6  A    between atoms: C_16  and  S_17
REMARK    7  A    between atoms: S_17  and  C_18
REMARK                            x       y       z     vdW  Elec       q    Type
REMARK                         _______ _______ _______ _____ _____    ______ ____
ROOT
ATOM      1  C   UNL     1       1.233   9.202  19.763  0.00  0.00    +0.000 C 
ENDROOT
BRANCH   1   3
ATOM      2  N   UNL     1       2.542   7.328  18.834  0.00  0.00    +0.000 N 
ATOM      3  C   UNL     1       1.903   8.533  18.561  0.00  0.00    +0.000 C 
ATOM      4  O   UNL     1       1.842   9.100  17.469  0.00  0.00    +0.000 OA
ATOM      5  H   UNL     1       2.578   7.051  19.820  0.00  0.00    +0.000 HD
BRANCH   2  13
ATOM      6  C   UNL     1       1.955   4.398  18.521  0.00  0.00    +0.000 C 
ATOM      7  C   UNL     1       3.028   5.147  17.762  0.00  0.00    +0.000 A 
ATOM      8  C   UNL     1       3.887   4.367  16.954  0.00  0.00    +0.000 A 
ATOM      9  C   UNL     1       5.005   4.927  16.338  0.00  0.00    +0.000 A 
ATOM     10 BR   UNL     1       6.229   3.837  15.399  0.00  0.00    +0.000 Br
ATOM     11  C   UNL     1       5.249   6.281  16.460  0.00  0.00    +0.000 A 
ATOM     12  C   UNL     1       4.391   7.075  17.227  0.00  0.00    +0.000 A 
ATOM     13  C   UNL     1       3.289   6.530  17.917  0.00  0.00    +0.000 A 
ENDBRANCH   2  13
ENDBRANCH   1   3
BRANCH   1  14
ATOM     14  N   UNL     1       0.483  10.385  19.392  0.00  0.00    +0.000 N 
ATOM     15  C   UNL     1       0.395  11.464  20.242  0.00  0.00    +0.000 C 
ATOM     16  O   UNL     1       0.939  11.457  21.343  0.00  0.00    +0.000 OA
ATOM     17  H   UNL     1       0.160  10.460  18.434  0.00  0.00    +0.000 HD
BRANCH  15  18
ATOM     18  C   UNL     1      -0.442  12.617  19.710  0.00  0.00    +0.000 C 
BRANCH  18  19
ATOM     19  S   UNL     1      -2.190  12.449  20.139  0.00  0.00    +0.000 S 
BRANCH  19  20
ATOM     20  C   UNL     1      -2.824  11.888  18.579  0.00  0.00    +0.000 A 
ATOM     21  N   UNL     1      -1.947  11.561  17.612  0.00  0.00    +0.000 NA
ATOM     22  C   UNL     1      -2.472  11.015  16.498  0.00  0.00    +0.000 A 
ATOM     23  C   UNL     1      -3.813  10.811  16.301  0.00  0.00    +0.000 A 
ATOM     24  C   UNL     1      -4.598  11.174  17.358  0.00  0.00    +0.000 A 
ATOM     25  N   UNL     1      -4.139  11.719  18.497  0.00  0.00    +0.000 NA
ENDBRANCH  19  20
ENDBRANCH  18  19
ENDBRANCH  15  18
ENDBRANCH   1  14
TORSDOF 6
ENDMDL
