MODEL 1
REMARK VINA RESULT:      -7.8      0.000      0.000
REMARK  Name = 
REMARK  11 active torsions:
REMARK  status: ('A' for Active; 'I' for Inactive)
REMARK    1  A    between atoms: C_1  and  C_2
REMARK    2  A    between atoms: C_2  and  C_3
REMARK    3  A    between atoms: C_3  and  C_4
REMARK    4  A    between atoms: C_4  and  N_5
REMARK    5  A    between atoms: N_9  and  C_10
REMARK    6  A    between atoms: C_19  and  C_20
REMARK    7  A    between atoms: C_23  and  O_24
REMARK    8  A    between atoms: O_24  and  C_25
REMARK    9  A    between atoms: C_25  and  C_26
REMARK   10  A    between atoms: C_27  and  O_28
REMARK   11  A    between atoms: O_28  and  C_29
REMARK                            x       y       z     vdW  Elec       q    Type
REMARK                         _______ _______ _______ _____ _____    ______ ____
ROOT
ATOM      1  N   UNL     1       6.674   6.355  18.156  0.00  0.00    +0.000 N 
ATOM      2  C   UNL     1       6.569   5.295  19.043  0.00  0.00    +0.000 C 
ATOM      3  O   UNL     1       7.509   4.880  19.718  0.00  0.00    +0.000 OA
ATOM      4  C   UNL     1       5.211   4.590  19.043  0.00  0.00    +0.000 C 
ATOM      5  N   UNL     1       4.090   5.475  18.720  0.00  0.00    +0.000 N 
ATOM      6  C   UNL     1       4.246   6.431  17.714  0.00  0.00    +0.000 C 
ATOM      7  O   UNL     1       3.341   7.143  17.280  0.00  0.00    +0.000 OA
ATOM      8  C   UNL     1       5.660   6.539  17.104  0.00  0.00    +0.000 C 
ENDROOT
BRANCH   5   9
ATOM      9  C   UNL     1       2.855   5.347  19.521  0.00  0.00    +0.000 C 
ATOM     10  C   UNL     1       1.650   5.029  18.618  0.00  0.00    +0.000 C 
ATOM     11  C   UNL     1       1.484   3.576  18.194  0.00  0.00    +0.000 C 
ATOM     12  C   UNL     1       0.745   2.726  19.219  0.00  0.00    +0.000 C 
ATOM     13  C   UNL     1       1.455   2.536  20.556  0.00  0.00    +0.000 C 
ATOM     14  C   UNL     1       1.761   3.824  21.320  0.00  0.00    +0.000 C 
ATOM     15  C   UNL     1       3.016   4.532  20.819  0.00  0.00    +0.000 C 
ENDBRANCH   5   9
BRANCH   8  16
ATOM     16  C   UNL     1       5.873   5.718  15.852  0.00  0.00    +0.000 A 
ATOM     17  C   UNL     1       5.052   4.646  15.509  0.00  0.00    +0.000 A 
ATOM     18  C   UNL     1       5.344   3.850  14.404  0.00  0.00    +0.000 A 
ATOM     19  C   UNL     1       6.476   4.080  13.602  0.00  0.00    +0.000 A 
ATOM     20  C   UNL     1       7.306   5.168  13.921  0.00  0.00    +0.000 A 
ATOM     21  C   UNL     1       6.982   5.974  15.027  0.00  0.00    +0.000 A 
BRANCH  20  22
ATOM     22  O   UNL     1       8.472   5.561  13.320  0.00  0.00    +0.000 OA
ATOM     23  C   UNL     1       8.408   6.210  12.062  0.00  0.00    +0.000 C 
ENDBRANCH  20  22
BRANCH  19  24
ATOM     24  O   UNL     1       6.802   3.254  12.554  0.00  0.00    +0.000 OA
BRANCH  24  25
ATOM     25  C   UNL     1       5.708   2.633  11.875  0.00  0.00    +0.000 C 
ATOM     26  C   UNL     1       6.170   1.370  11.178  0.00  0.00    +0.000 C 
ENDBRANCH  24  25
ENDBRANCH  19  24
ENDBRANCH   8  16
BRANCH   1  27
ATOM     27  C   UNL     1       7.852   7.217  18.160  0.00  0.00    +0.000 C 
BRANCH  27  28
ATOM     28  C   UNL     1       7.509   8.672  17.813  0.00  0.00    +0.000 C 
BRANCH  28  30
ATOM     29  C   UNL     1       9.061  10.089  19.205  0.00  0.00    +0.000 C 
ATOM     30  C   UNL     1       8.742   9.578  17.811  0.00  0.00    +0.000 C 
ENDBRANCH  28  30
ENDBRANCH  27  28
ENDBRANCH   1  27
TORSDOF 8
ENDMDL
MODEL 2
REMARK VINA RESULT:      -6.4      5.894      9.446
REMARK  Name = 
REMARK  11 active torsions:
REMARK  status: ('A' for Active; 'I' for Inactive)
REMARK    1  A    between atoms: C_1  and  C_2
REMARK    2  A    between atoms: C_2  and  C_3
REMARK    3  A    between atoms: C_3  and  C_4
REMARK    4  A    between atoms: C_4  and  N_5
REMARK    5  A    between atoms: N_9  and  C_10
REMARK    6  A    between atoms: C_19  and  C_20
REMARK    7  A    between atoms: C_23  and  O_24
REMARK    8  A    between atoms: O_24  and  C_25
REMARK    9  A    between atoms: C_25  and  C_26
REMARK   10  A    between atoms: C_27  and  O_28
REMARK   11  A    between atoms: O_28  and  C_29
REMARK                            x       y       z     vdW  Elec       q    Type
REMARK                         _______ _______ _______ _____ _____    ______ ____
ROOT
ATOM      1  N   UNL     1      -0.270   9.859  19.462  0.00  0.00    +0.000 N 
ATOM      2  C   UNL     1       0.046   9.198  20.639  0.00  0.00    +0.000 C 
ATOM      3  O   UNL     1      -0.708   9.142  21.608  0.00  0.00    +0.000 OA
ATOM      4  C   UNL     1       1.466   8.629  20.695  0.00  0.00    +0.000 C 
ATOM      5  N   UNL     1       1.990   8.227  19.388  0.00  0.00    +0.000 N 
ATOM      6  C   UNL     1       1.732   9.031  18.275  0.00  0.00    +0.000 C 
ATOM      7  O   UNL     1       2.218   8.855  17.158  0.00  0.00    +0.000 OA
ATOM      8  C   UNL     1       0.798  10.236  18.519  0.00  0.00    +0.000 C 
ENDROOT
BRANCH   5   9
ATOM      9  C   UNL     1       2.726   6.949  19.302  0.00  0.00    +0.000 C 
ATOM     10  C   UNL     1       2.404   6.052  20.511  0.00  0.00    +0.000 C 
ATOM     11  C   UNL     1       1.101   5.267  20.447  0.00  0.00    +0.000 C 
ATOM     12  C   UNL     1       1.225   3.947  19.696  0.00  0.00    +0.000 C 
ATOM     13  C   UNL     1       1.544   4.061  18.209  0.00  0.00    +0.000 C 
ATOM     14  C   UNL     1       2.850   4.780  17.875  0.00  0.00    +0.000 C 
ATOM     15  C   UNL     1       2.719   6.300  17.905  0.00  0.00    +0.000 C 
ENDBRANCH   5   9
BRANCH   8  16
ATOM     16  C   UNL     1       1.509  11.532  18.834  0.00  0.00    +0.000 A 
ATOM     17  C   UNL     1       2.456  12.096  17.982  0.00  0.00    +0.000 A 
ATOM     18  C   UNL     1       3.165  13.234  18.357  0.00  0.00    +0.000 A 
ATOM     19  C   UNL     1       2.970  13.853  19.605  0.00  0.00    +0.000 A 
ATOM     20  C   UNL     1       2.005  13.310  20.471  0.00  0.00    +0.000 A 
ATOM     21  C   UNL     1       1.283  12.173  20.065  0.00  0.00    +0.000 A 
BRANCH  20  22
ATOM     22  O   UNL     1       1.672  13.707  21.739  0.00  0.00    +0.000 OA
ATOM     23  C   UNL     1       0.435  14.368  21.945  0.00  0.00    +0.000 C 
ENDBRANCH  20  22
BRANCH  19  24
ATOM     24  O   UNL     1       3.716  14.934  20.003  0.00  0.00    +0.000 OA
BRANCH  24  25
ATOM     25  C   UNL     1       3.673  16.081  19.150  0.00  0.00    +0.000 C 
ATOM     26  C   UNL     1       2.359  16.813  19.320  0.00  0.00    +0.000 C 
ENDBRANCH  24  25
ENDBRANCH  19  24
ENDBRANCH   8  16
BRANCH   1  27
ATOM     27  C   UNL     1      -1.632  10.312  19.203  0.00  0.00    +0.000 C 
BRANCH  27  28
ATOM     28  C   UNL     1      -2.015  10.189  17.723  0.00  0.00    +0.000 C 
BRANCH  28  30
ATOM     29  C   UNL     1      -4.105  11.055  16.612  0.00  0.00    +0.000 C 
ATOM     30  C   UNL     1      -3.520   9.992  17.524  0.00  0.00    +0.000 C 
ENDBRANCH  28  30
ENDBRANCH  27  28
ENDBRANCH   1  27
TORSDOF 8
ENDMDL
MODEL 3
REMARK VINA RESULT:      -6.3      2.452      5.021
REMARK  Name = 
REMARK  11 active torsions:
REMARK  status: ('A' for Active; 'I' for Inactive)
REMARK    1  A    between atoms: C_1  and  C_2
REMARK    2  A    between atoms: C_2  and  C_3
REMARK    3  A    between atoms: C_3  and  C_4
REMARK    4  A    between atoms: C_4  and  N_5
REMARK    5  A    between atoms: N_9  and  C_10
REMARK    6  A    between atoms: C_19  and  C_20
REMARK    7  A    between atoms: C_23  and  O_24
REMARK    8  A    between atoms: O_24  and  C_25
REMARK    9  A    between atoms: C_25  and  C_26
REMARK   10  A    between atoms: C_27  and  O_28
REMARK   11  A    between atoms: O_28  and  C_29
REMARK                            x       y       z     vdW  Elec       q    Type
REMARK                         _______ _______ _______ _____ _____    ______ ____
ROOT
ATOM      1  N   UNL     1       2.657   3.892  18.008  0.00  0.00    +0.000 N 
ATOM      2  C   UNL     1       1.658   4.754  17.585  0.00  0.00    +0.000 C 
ATOM      3  O   UNL     1       0.643   4.381  17.001  0.00  0.00    +0.000 OA
ATOM      4  C   UNL     1       1.962   6.240  17.793  0.00  0.00    +0.000 C 
ATOM      5  N   UNL     1       2.808   6.509  18.957  0.00  0.00    +0.000 N 
ATOM      6  C   UNL     1       3.879   5.655  19.231  0.00  0.00    +0.000 C 
ATOM      7  O   UNL     1       4.722   5.850  20.106  0.00  0.00    +0.000 OA
ATOM      8  C   UNL     1       3.999   4.414  18.320  0.00  0.00    +0.000 C 
ENDROOT
BRANCH   5   9
ATOM      9  C   UNL     1       2.449   7.649  19.825  0.00  0.00    +0.000 C 
ATOM     10  C   UNL     1       2.443   8.963  19.023  0.00  0.00    +0.000 C 
ATOM     11  C   UNL     1       1.199   9.247  18.193  0.00  0.00    +0.000 C 
ATOM     12  C   UNL     1       0.078   9.906  18.987  0.00  0.00    +0.000 C 
ATOM     13  C   UNL     1      -0.529   9.059  20.100  0.00  0.00    +0.000 C 
ATOM     14  C   UNL     1       0.450   8.606  21.183  0.00  0.00    +0.000 C 
ATOM     15  C   UNL     1       1.266   7.383  20.775  0.00  0.00    +0.000 C 
ENDBRANCH   5   9
BRANCH   8  16
ATOM     16  C   UNL     1       4.916   4.590  17.131  0.00  0.00    +0.000 A 
ATOM     17  C   UNL     1       4.915   3.716  16.046  0.00  0.00    +0.000 A 
ATOM     18  C   UNL     1       5.848   3.852  15.020  0.00  0.00    +0.000 A 
ATOM     19  C   UNL     1       6.831   4.857  15.039  0.00  0.00    +0.000 A 
ATOM     20  C   UNL     1       6.836   5.760  16.115  0.00  0.00    +0.000 A 
ATOM     21  C   UNL     1       5.872   5.620  17.131  0.00  0.00    +0.000 A 
BRANCH  20  22
ATOM     22  O   UNL     1       7.710   6.783  16.372  0.00  0.00    +0.000 OA
ATOM     23  C   UNL     1       7.504   7.586  17.521  0.00  0.00    +0.000 C 
ENDBRANCH  20  22
BRANCH  19  24
ATOM     24  O   UNL     1       7.792   4.949  14.063  0.00  0.00    +0.000 OA
BRANCH  24  25
ATOM     25  C   UNL     1       7.322   5.168  12.730  0.00  0.00    +0.000 C 
ATOM     26  C   UNL     1       7.145   3.848  12.012  0.00  0.00    +0.000 C 
ENDBRANCH  24  25
ENDBRANCH  19  24
ENDBRANCH   8  16
BRANCH   1  27
ATOM     27  C   UNL     1       2.442   2.448  18.018  0.00  0.00    +0.000 C 
BRANCH  27  28
ATOM     28  C   UNL     1       2.345   1.885  19.441  0.00  0.00    +0.000 C 
BRANCH  28  30
ATOM     29  C   UNL     1       2.092   3.250  21.545  0.00  0.00    +0.000 C 
ATOM     30  C   UNL     1       1.387   2.689  20.323  0.00  0.00    +0.000 C 
ENDBRANCH  28  30
ENDBRANCH  27  28
ENDBRANCH   1  27
TORSDOF 8
ENDMDL
MODEL 4
REMARK VINA RESULT:      -6.1      5.844      9.311
REMARK  Name = 
REMARK  11 active torsions:
REMARK  status: ('A' for Active; 'I' for Inactive)
REMARK    1  A    between atoms: C_1  and  C_2
REMARK    2  A    between atoms: C_2  and  C_3
REMARK    3  A    between atoms: C_3  and  C_4
REMARK    4  A    between atoms: C_4  and  N_5
REMARK    5  A    between atoms: N_9  and  C_10
REMARK    6  A    between atoms: C_19  and  C_20
REMARK    7  A    between atoms: C_23  and  O_24
REMARK    8  A    between atoms: O_24  and  C_25
REMARK    9  A    between atoms: C_25  and  C_26
REMARK   10  A    between atoms: C_27  and  O_28
REMARK   11  A    between atoms: O_28  and  C_29
REMARK                            x       y       z     vdW  Elec       q    Type
REMARK                         _______ _______ _______ _____ _____    ______ ____
ROOT
ATOM      1  N   UNL     1      -0.312   9.834  19.609  0.00  0.00    +0.000 N 
ATOM      2  C   UNL     1      -0.045   9.036  20.711  0.00  0.00    +0.000 C 
ATOM      3  O   UNL     1      -0.844   8.859  21.629  0.00  0.00    +0.000 OA
ATOM      4  C   UNL     1       1.377   8.473  20.768  0.00  0.00    +0.000 C 
ATOM      5  N   UNL     1       1.967   8.235  19.449  0.00  0.00    +0.000 N 
ATOM      6  C   UNL     1       1.753   9.167  18.430  0.00  0.00    +0.000 C 
ATOM      7  O   UNL     1       2.295   9.131  17.325  0.00  0.00    +0.000 OA
ATOM      8  C   UNL     1       0.795  10.328  18.772  0.00  0.00    +0.000 C 
ENDROOT
BRANCH   5   9
ATOM      9  C   UNL     1       2.721   6.982  19.244  0.00  0.00    +0.000 C 
ATOM     10  C   UNL     1       2.530   6.030  20.439  0.00  0.00    +0.000 C 
ATOM     11  C   UNL     1       1.244   5.214  20.459  0.00  0.00    +0.000 C 
ATOM     12  C   UNL     1       1.330   3.929  19.646  0.00  0.00    +0.000 C 
ATOM     13  C   UNL     1       1.511   4.108  18.142  0.00  0.00    +0.000 C 
ATOM     14  C   UNL     1       2.766   4.875  17.723  0.00  0.00    +0.000 C 
ATOM     15  C   UNL     1       2.604   6.388  17.828  0.00  0.00    +0.000 C 
ENDBRANCH   5   9
BRANCH   8  16
ATOM     16  C   UNL     1       1.476  11.581  19.276  0.00  0.00    +0.000 A 
ATOM     17  C   UNL     1       1.284  12.073  20.565  0.00  0.00    +0.000 A 
ATOM     18  C   UNL     1       1.845  13.286  20.956  0.00  0.00    +0.000 A 
ATOM     19  C   UNL     1       2.611  14.069  20.073  0.00  0.00    +0.000 A 
ATOM     20  C   UNL     1       2.832  13.580  18.774  0.00  0.00    +0.000 A 
ATOM     21  C   UNL     1       2.275  12.342  18.405  0.00  0.00    +0.000 A 
BRANCH  20  22
ATOM     22  O   UNL     1       3.500  14.174  17.737  0.00  0.00    +0.000 OA
ATOM     23  C   UNL     1       4.866  14.514  17.909  0.00  0.00    +0.000 C 
ENDBRANCH  20  22
BRANCH  19  24
ATOM     24  O   UNL     1       3.108  15.296  20.436  0.00  0.00    +0.000 OA
BRANCH  24  25
ATOM     25  C   UNL     1       2.278  16.424  20.148  0.00  0.00    +0.000 C 
ATOM     26  C   UNL     1       1.713  17.003  21.427  0.00  0.00    +0.000 C 
ENDBRANCH  24  25
ENDBRANCH  19  24
ENDBRANCH   8  16
BRANCH   1  27
ATOM     27  C   UNL     1      -1.666  10.308  19.341  0.00  0.00    +0.000 C 
BRANCH  27  28
ATOM     28  C   UNL     1      -1.868  10.688  17.869  0.00  0.00    +0.000 C 
BRANCH  28  30
ATOM     29  C   UNL     1      -2.827   9.880  15.681  0.00  0.00    +0.000 C 
ATOM     30  C   UNL     1      -2.957   9.849  17.194  0.00  0.00    +0.000 C 
ENDBRANCH  28  30
ENDBRANCH  27  28
ENDBRANCH   1  27
TORSDOF 8
ENDMDL
MODEL 5
REMARK VINA RESULT:      -6.0      1.068      1.755
REMARK  Name = 
REMARK  11 active torsions:
REMARK  status: ('A' for Active; 'I' for Inactive)
REMARK    1  A    between atoms: C_1  and  C_2
REMARK    2  A    between atoms: C_2  and  C_3
REMARK    3  A    between atoms: C_3  and  C_4
REMARK    4  A    between atoms: C_4  and  N_5
REMARK    5  A    between atoms: N_9  and  C_10
REMARK    6  A    between atoms: C_19  and  C_20
REMARK    7  A    between atoms: C_23  and  O_24
REMARK    8  A    between atoms: O_24  and  C_25
REMARK    9  A    between atoms: C_25  and  C_26
REMARK   10  A    between atoms: C_27  and  O_28
REMARK   11  A    between atoms: O_28  and  C_29
REMARK                            x       y       z     vdW  Elec       q    Type
REMARK                         _______ _______ _______ _____ _____    ______ ____
ROOT
ATOM      1  N   UNL     1       6.866   6.258  17.504  0.00  0.00    +0.000 N 
ATOM      2  C   UNL     1       6.710   5.211  18.399  0.00  0.00    +0.000 C 
ATOM      3  O   UNL     1       7.597   4.836  19.164  0.00  0.00    +0.000 OA
ATOM      4  C   UNL     1       5.378   4.466  18.292  0.00  0.00    +0.000 C 
ATOM      5  N   UNL     1       4.266   5.311  17.851  0.00  0.00    +0.000 N 
ATOM      6  C   UNL     1       4.486   6.253  16.843  0.00  0.00    +0.000 C 
ATOM      7  O   UNL     1       3.604   6.930  16.315  0.00  0.00    +0.000 OA
ATOM      8  C   UNL     1       5.946   6.392  16.361  0.00  0.00    +0.000 C 
ENDROOT
BRANCH   5   9
ATOM      9  C   UNL     1       2.968   5.162  18.541  0.00  0.00    +0.000 C 
ATOM     10  C   UNL     1       1.995   4.322  17.695  0.00  0.00    +0.000 C 
ATOM     11  C   UNL     1       2.166   2.811  17.762  0.00  0.00    +0.000 C 
ATOM     12  C   UNL     1       1.448   2.172  18.944  0.00  0.00    +0.000 C 
ATOM     13  C   UNL     1       1.967   2.563  20.323  0.00  0.00    +0.000 C 
ATOM     14  C   UNL     1       1.911   4.057  20.642  0.00  0.00    +0.000 C 
ATOM     15  C   UNL     1       3.076   4.840  20.044  0.00  0.00    +0.000 C 
ENDBRANCH   5   9
BRANCH   8  16
ATOM     16  C   UNL     1       6.294   5.555  15.151  0.00  0.00    +0.000 A 
ATOM     17  C   UNL     1       7.536   5.618  14.525  0.00  0.00    +0.000 A 
ATOM     18  C   UNL     1       7.781   4.910  13.350  0.00  0.00    +0.000 A 
ATOM     19  C   UNL     1       6.791   4.118  12.742  0.00  0.00    +0.000 A 
ATOM     20  C   UNL     1       5.537   4.025  13.369  0.00  0.00    +0.000 A 
ATOM     21  C   UNL     1       5.316   4.731  14.566  0.00  0.00    +0.000 A 
BRANCH  20  22
ATOM     22  O   UNL     1       4.416   3.359  12.949  0.00  0.00    +0.000 OA
ATOM     23  C   UNL     1       4.005   3.495  11.600  0.00  0.00    +0.000 C 
ENDBRANCH  20  22
BRANCH  19  24
ATOM     24  O   UNL     1       7.009   3.474  11.549  0.00  0.00    +0.000 OA
BRANCH  24  25
ATOM     25  C   UNL     1       7.530   2.145  11.634  0.00  0.00    +0.000 C 
ATOM     26  C   UNL     1       6.562   1.160  11.013  0.00  0.00    +0.000 C 
ENDBRANCH  24  25
ENDBRANCH  19  24
ENDBRANCH   8  16
BRANCH   1  27
ATOM     27  C   UNL     1       8.014   7.154  17.595  0.00  0.00    +0.000 C 
BRANCH  27  28
ATOM     28  C   UNL     1       7.639   8.519  18.186  0.00  0.00    +0.000 C 
BRANCH  28  30
ATOM     29  C   UNL     1       9.226  10.236  19.130  0.00  0.00    +0.000 C 
ATOM     30  C   UNL     1       8.677   9.598  17.866  0.00  0.00    +0.000 C 
ENDBRANCH  28  30
ENDBRANCH  27  28
ENDBRANCH   1  27
TORSDOF 8
ENDMDL
MODEL 6
REMARK VINA RESULT:      -5.9      8.404     11.955
REMARK  Name = 
REMARK  11 active torsions:
REMARK  status: ('A' for Active; 'I' for Inactive)
REMARK    1  A    between atoms: C_1  and  C_2
REMARK    2  A    between atoms: C_2  and  C_3
REMARK    3  A    between atoms: C_3  and  C_4
REMARK    4  A    between atoms: C_4  and  N_5
REMARK    5  A    between atoms: N_9  and  C_10
REMARK    6  A    between atoms: C_19  and  C_20
REMARK    7  A    between atoms: C_23  and  O_24
REMARK    8  A    between atoms: O_24  and  C_25
REMARK    9  A    between atoms: C_25  and  C_26
REMARK   10  A    between atoms: C_27  and  O_28
REMARK   11  A    between atoms: O_28  and  C_29
REMARK                            x       y       z     vdW  Elec       q    Type
REMARK                         _______ _______ _______ _____ _____    ______ ____
ROOT
ATOM      1  N   UNL     1      -0.590  11.947  21.366  0.00  0.00    +0.000 N 
ATOM      2  C   UNL     1      -0.675  13.064  22.182  0.00  0.00    +0.000 C 
ATOM      3  O   UNL     1      -0.893  13.005  23.391  0.00  0.00    +0.000 OA
ATOM      4  C   UNL     1      -0.594  14.405  21.448  0.00  0.00    +0.000 C 
ATOM      5  N   UNL     1       0.230  14.362  20.238  0.00  0.00    +0.000 N 
ATOM      6  C   UNL     1       0.150  13.247  19.400  0.00  0.00    +0.000 C 
ATOM      7  O   UNL     1       0.702  13.156  18.304  0.00  0.00    +0.000 OA
ATOM      8  C   UNL     1      -0.736  12.088  19.907  0.00  0.00    +0.000 C 
ENDROOT
BRANCH   5   9
ATOM      9  C   UNL     1       1.153  15.488  19.990  0.00  0.00    +0.000 C 
ATOM     10  C   UNL     1       2.543  15.193  20.584  0.00  0.00    +0.000 C 
ATOM     11  C   UNL     1       3.461  14.303  19.757  0.00  0.00    +0.000 C 
ATOM     12  C   UNL     1       4.245  15.061  18.694  0.00  0.00    +0.000 C 
ATOM     13  C   UNL     1       3.413  15.694  17.584  0.00  0.00    +0.000 C 
ATOM     14  C   UNL     1       2.372  16.713  18.049  0.00  0.00    +0.000 C 
ATOM     15  C   UNL     1       1.090  16.065  18.563  0.00  0.00    +0.000 C 
ENDBRANCH   5   9
BRANCH   8  16
ATOM     16  C   UNL     1      -2.161  12.115  19.400  0.00  0.00    +0.000 A 
ATOM     17  C   UNL     1      -3.223  12.584  20.170  0.00  0.00    +0.000 A 
ATOM     18  C   UNL     1      -4.533  12.493  19.708  0.00  0.00    +0.000 A 
ATOM     19  C   UNL     1      -4.843  11.919  18.462  0.00  0.00    +0.000 A 
ATOM     20  C   UNL     1      -3.783  11.458  17.662  0.00  0.00    +0.000 A 
ATOM     21  C   UNL     1      -2.465  11.578  18.137  0.00  0.00    +0.000 A 
BRANCH  20  22
ATOM     22  O   UNL     1      -3.838  10.831  16.446  0.00  0.00    +0.000 OA
ATOM     23  C   UNL     1      -2.639  10.327  15.882  0.00  0.00    +0.000 C 
ENDBRANCH  20  22
BRANCH  19  24
ATOM     24  O   UNL     1      -6.139  11.768  18.035  0.00  0.00    +0.000 OA
BRANCH  24  25
ATOM     25  C   UNL     1      -7.068  11.267  19.000  0.00  0.00    +0.000 C 
ATOM     26  C   UNL     1      -6.881   9.776  19.186  0.00  0.00    +0.000 C 
ENDBRANCH  24  25
ENDBRANCH  19  24
ENDBRANCH   8  16
BRANCH   1  27
ATOM     27  C   UNL     1      -0.494  10.609  21.939  0.00  0.00    +0.000 C 
BRANCH  27  28
ATOM     28  C   UNL     1       0.029   9.580  20.929  0.00  0.00    +0.000 C 
BRANCH  28  30
ATOM     29  C   UNL     1       1.704   7.751  20.475  0.00  0.00    +0.000 C 
ATOM     30  C   UNL     1       1.113   8.677  21.523  0.00  0.00    +0.000 C 
ENDBRANCH  28  30
ENDBRANCH  27  28
ENDBRANCH   1  27
TORSDOF 8
ENDMDL
MODEL 7
REMARK VINA RESULT:      -5.9      9.162     13.195
REMARK  Name = 
REMARK  11 active torsions:
REMARK  status: ('A' for Active; 'I' for Inactive)
REMARK    1  A    between atoms: C_1  and  C_2
REMARK    2  A    between atoms: C_2  and  C_3
REMARK    3  A    between atoms: C_3  and  C_4
REMARK    4  A    between atoms: C_4  and  N_5
REMARK    5  A    between atoms: N_9  and  C_10
REMARK    6  A    between atoms: C_19  and  C_20
REMARK    7  A    between atoms: C_23  and  O_24
REMARK    8  A    between atoms: O_24  and  C_25
REMARK    9  A    between atoms: C_25  and  C_26
REMARK   10  A    between atoms: C_27  and  O_28
REMARK   11  A    between atoms: O_28  and  C_29
REMARK                            x       y       z     vdW  Elec       q    Type
REMARK                         _______ _______ _______ _____ _____    ______ ____
ROOT
ATOM      1  N   UNL     1      -1.127  11.033  19.144  0.00  0.00    +0.000 N 
ATOM      2  C   UNL     1      -0.221  10.653  20.121  0.00  0.00    +0.000 C 
ATOM      3  O   UNL     1       0.064   9.482  20.362  0.00  0.00    +0.000 OA
ATOM      4  C   UNL     1       0.325  11.802  20.973  0.00  0.00    +0.000 C 
ATOM      5  N   UNL     1       0.413  13.075  20.255  0.00  0.00    +0.000 N 
ATOM      6  C   UNL     1      -0.619  13.438  19.386  0.00  0.00    +0.000 C 
ATOM      7  O   UNL     1      -0.708  14.530  18.825  0.00  0.00    +0.000 OA
ATOM      8  C   UNL     1      -1.724  12.380  19.175  0.00  0.00    +0.000 C 
ENDROOT
BRANCH   5   9
ATOM      9  C   UNL     1       1.627  13.894  20.446  0.00  0.00    +0.000 C 
ATOM     10  C   UNL     1       2.729  13.475  19.455  0.00  0.00    +0.000 C 
ATOM     11  C   UNL     1       2.618  14.029  18.041  0.00  0.00    +0.000 C 
ATOM     12  C   UNL     1       3.222  15.419  17.886  0.00  0.00    +0.000 C 
ATOM     13  C   UNL     1       2.529  16.531  18.666  0.00  0.00    +0.000 C 
ATOM     14  C   UNL     1       2.481  16.334  20.181  0.00  0.00    +0.000 C 
ATOM     15  C   UNL     1       1.360  15.400  20.627  0.00  0.00    +0.000 C 
ENDBRANCH   5   9
BRANCH   8  16
ATOM     16  C   UNL     1      -2.925  12.532  20.081  0.00  0.00    +0.000 A 
ATOM     17  C   UNL     1      -2.810  12.830  21.437  0.00  0.00    +0.000 A 
ATOM     18  C   UNL     1      -3.935  12.857  22.258  0.00  0.00    +0.000 A 
ATOM     19  C   UNL     1      -5.222  12.576  21.765  0.00  0.00    +0.000 A 
ATOM     20  C   UNL     1      -5.360  12.293  20.396  0.00  0.00    +0.000 A 
ATOM     21  C   UNL     1      -4.216  12.292  19.578  0.00  0.00    +0.000 A 
BRANCH  20  22
ATOM     22  O   UNL     1      -6.490  11.952  19.701  0.00  0.00    +0.000 OA
ATOM     23  C   UNL     1      -7.319  12.984  19.194  0.00  0.00    +0.000 C 
ENDBRANCH  20  22
BRANCH  19  24
ATOM     24  O   UNL     1      -6.320  12.537  22.587  0.00  0.00    +0.000 OA
BRANCH  24  25
ATOM     25  C   UNL     1      -6.954  13.790  22.856  0.00  0.00    +0.000 C 
ATOM     26  C   UNL     1      -7.660  13.745  24.195  0.00  0.00    +0.000 C 
ENDBRANCH  24  25
ENDBRANCH  19  24
ENDBRANCH   8  16
BRANCH   1  27
ATOM     27  C   UNL     1      -1.608  10.071  18.157  0.00  0.00    +0.000 C 
BRANCH  27  28
ATOM     28  C   UNL     1      -2.103  10.752  16.875  0.00  0.00    +0.000 C 
BRANCH  28  30
ATOM     29  C   UNL     1      -3.047  10.177  14.609  0.00  0.00    +0.000 C 
ATOM     30  C   UNL     1      -3.095   9.883  16.098  0.00  0.00    +0.000 C 
ENDBRANCH  28  30
ENDBRANCH  27  28
ENDBRANCH   1  27
TORSDOF 8
ENDMDL
MODEL 8
REMARK VINA RESULT:      -5.9      7.380     10.989
REMARK  Name = 
REMARK  11 active torsions:
REMARK  status: ('A' for Active; 'I' for Inactive)
REMARK    1  A    between atoms: C_1  and  C_2
REMARK    2  A    between atoms: C_2  and  C_3
REMARK    3  A    between atoms: C_3  and  C_4
REMARK    4  A    between atoms: C_4  and  N_5
REMARK    5  A    between atoms: N_9  and  C_10
REMARK    6  A    between atoms: C_19  and  C_20
REMARK    7  A    between atoms: C_23  and  O_24
REMARK    8  A    between atoms: O_24  and  C_25
REMARK    9  A    between atoms: C_25  and  C_26
REMARK   10  A    between atoms: C_27  and  O_28
REMARK   11  A    between atoms: O_28  and  C_29
REMARK                            x       y       z     vdW  Elec       q    Type
REMARK                         _______ _______ _______ _____ _____    ______ ____
ROOT
ATOM      1  N   UNL     1       0.646   9.970  20.613  0.00  0.00    +0.000 N 
ATOM      2  C   UNL     1       0.616  10.972  21.570  0.00  0.00    +0.000 C 
ATOM      3  O   UNL     1       0.364  10.769  22.756  0.00  0.00    +0.000 OA
ATOM      4  C   UNL     1       0.807  12.389  21.023  0.00  0.00    +0.000 C 
ATOM      5  N   UNL     1       1.656  12.449  19.831  0.00  0.00    +0.000 N 
ATOM      6  C   UNL     1       1.522  11.463  18.851  0.00  0.00    +0.000 C 
ATOM      7  O   UNL     1       2.094  11.479  17.761  0.00  0.00    +0.000 OA
ATOM      8  C   UNL     1       0.547  10.313  19.183  0.00  0.00    +0.000 C 
ENDROOT
BRANCH   5   9
ATOM      9  C   UNL     1       2.660  13.529  19.751  0.00  0.00    +0.000 C 
ATOM     10  C   UNL     1       2.265  14.562  18.681  0.00  0.00    +0.000 C 
ATOM     11  C   UNL     1       1.229  15.601  19.089  0.00  0.00    +0.000 C 
ATOM     12  C   UNL     1       1.828  16.803  19.808  0.00  0.00    +0.000 C 
ATOM     13  C   UNL     1       2.466  16.513  21.162  0.00  0.00    +0.000 C 
ATOM     14  C   UNL     1       3.617  15.507  21.139  0.00  0.00    +0.000 C 
ATOM     15  C   UNL     1       3.142  14.057  21.116  0.00  0.00    +0.000 C 
ENDBRANCH   5   9
BRANCH   8  16
ATOM     16  C   UNL     1      -0.860  10.507  18.663  0.00  0.00    +0.000 A 
ATOM     17  C   UNL     1      -1.315   9.912  17.488  0.00  0.00    +0.000 A 
ATOM     18  C   UNL     1      -2.582  10.200  16.987  0.00  0.00    +0.000 A 
ATOM     19  C   UNL     1      -3.445  11.106  17.629  0.00  0.00    +0.000 A 
ATOM     20  C   UNL     1      -3.012  11.702  18.825  0.00  0.00    +0.000 A 
ATOM     21  C   UNL     1      -1.737  11.381  19.328  0.00  0.00    +0.000 A 
BRANCH  20  22
ATOM     22  O   UNL     1      -3.650  12.635  19.598  0.00  0.00    +0.000 OA
ATOM     23  C   UNL     1      -2.921  13.289  20.623  0.00  0.00    +0.000 C 
ENDBRANCH  20  22
BRANCH  19  24
ATOM     24  O   UNL     1      -4.666  11.442  17.100  0.00  0.00    +0.000 OA
BRANCH  24  25
ATOM     25  C   UNL     1      -5.815  10.989  17.822  0.00  0.00    +0.000 C 
ATOM     26  C   UNL     1      -6.819  12.113  17.970  0.00  0.00    +0.000 C 
ENDBRANCH  24  25
ENDBRANCH  19  24
ENDBRANCH   8  16
BRANCH   1  27
ATOM     27  C   UNL     1       0.636   8.564  21.004  0.00  0.00    +0.000 C 
BRANCH  27  28
ATOM     28  C   UNL     1       1.748   7.762  20.315  0.00  0.00    +0.000 C 
BRANCH  28  30
ATOM     29  C   UNL     1       2.670   5.468  19.822  0.00  0.00    +0.000 C 
ATOM     30  C   UNL     1       1.690   6.271  20.658  0.00  0.00    +0.000 C 
ENDBRANCH  28  30
ENDBRANCH  27  28
ENDBRANCH   1  27
TORSDOF 8
ENDMDL
MODEL 9
REMARK VINA RESULT:      -5.9      7.392      9.384
REMARK  Name = 
REMARK  11 active torsions:
REMARK  status: ('A' for Active; 'I' for Inactive)
REMARK    1  A    between atoms: C_1  and  C_2
REMARK    2  A    between atoms: C_2  and  C_3
REMARK    3  A    between atoms: C_3  and  C_4
REMARK    4  A    between atoms: C_4  and  N_5
REMARK    5  A    between atoms: N_9  and  C_10
REMARK    6  A    between atoms: C_19  and  C_20
REMARK    7  A    between atoms: C_23  and  O_24
REMARK    8  A    between atoms: O_24  and  C_25
REMARK    9  A    between atoms: C_25  and  C_26
REMARK   10  A    between atoms: C_27  and  O_28
REMARK   11  A    between atoms: O_28  and  C_29
REMARK                            x       y       z     vdW  Elec       q    Type
REMARK                         _______ _______ _______ _____ _____    ______ ____
ROOT
ATOM      1  N   UNL     1       1.965  13.122  19.302  0.00  0.00    +0.000 N 
ATOM      2  C   UNL     1       1.814  13.438  20.643  0.00  0.00    +0.000 C 
ATOM      3  O   UNL     1       2.699  13.960  21.320  0.00  0.00    +0.000 OA
ATOM      4  C   UNL     1       0.493  12.982  21.267  0.00  0.00    +0.000 C 
ATOM      5  N   UNL     1      -0.625  12.961  20.321  0.00  0.00    +0.000 N 
ATOM      6  C   UNL     1      -0.408  12.498  19.021  0.00  0.00    +0.000 C 
ATOM      7  O   UNL     1      -1.294  12.325  18.184  0.00  0.00    +0.000 OA
ATOM      8  C   UNL     1       1.055  12.154  18.666  0.00  0.00    +0.000 C 
ENDROOT
BRANCH   5   9
ATOM      9  C   UNL     1      -1.928  13.487  20.779  0.00  0.00    +0.000 C 
ATOM     10  C   UNL     1      -2.772  12.370  21.419  0.00  0.00    +0.000 C 
ATOM     11  C   UNL     1      -2.447  12.015  22.863  0.00  0.00    +0.000 C 
ATOM     12  C   UNL     1      -3.142  12.912  23.879  0.00  0.00    +0.000 C 
ATOM     13  C   UNL     1      -2.723  14.378  23.862  0.00  0.00    +0.000 C 
ATOM     14  C   UNL     1      -2.949  15.106  22.537  0.00  0.00    +0.000 C 
ATOM     15  C   UNL     1      -1.849  14.838  21.514  0.00  0.00    +0.000 C 
ENDBRANCH   5   9
BRANCH   8  16
ATOM     16  C   UNL     1       1.425  10.700  18.855  0.00  0.00    +0.000 A 
ATOM     17  C   UNL     1       2.105   9.966  17.886  0.00  0.00    +0.000 A 
ATOM     18  C   UNL     1       2.333   8.602  18.054  0.00  0.00    +0.000 A 
ATOM     19  C   UNL     1       1.882   7.909  19.191  0.00  0.00    +0.000 A 
ATOM     20  C   UNL     1       1.211   8.636  20.189  0.00  0.00    +0.000 A 
ATOM     21  C   UNL     1       1.009  10.017  20.011  0.00  0.00    +0.000 A 
BRANCH  20  22
ATOM     22  O   UNL     1       0.649   8.178  21.351  0.00  0.00    +0.000 OA
ATOM     23  C   UNL     1      -0.222   9.033  22.072  0.00  0.00    +0.000 C 
ENDBRANCH  20  22
BRANCH  19  24
ATOM     24  O   UNL     1       2.047   6.553  19.326  0.00  0.00    +0.000 OA
BRANCH  24  25
ATOM     25  C   UNL     1       2.555   5.860  18.182  0.00  0.00    +0.000 C 
ATOM     26  C   UNL     1       1.837   4.539  18.006  0.00  0.00    +0.000 C 
ENDBRANCH  24  25
ENDBRANCH  19  24
ENDBRANCH   8  16
BRANCH   1  27
ATOM     27  C   UNL     1       3.100  13.631  18.538  0.00  0.00    +0.000 C 
BRANCH  27  28
ATOM     28  C   UNL     1       2.911  15.095  18.122  0.00  0.00    +0.000 C 
BRANCH  28  30
ATOM     29  C   UNL     1       4.277  16.841  19.323  0.00  0.00    +0.000 C 
ATOM     30  C   UNL     1       4.224  15.882  18.147  0.00  0.00    +0.000 C 
ENDBRANCH  28  30
ENDBRANCH  27  28
ENDBRANCH   1  27
TORSDOF 8
ENDMDL
