MODEL 1
REMARK VINA RESULT:      -7.1      0.000      0.000
REMARK  Name = 
REMARK  7 active torsions:
REMARK  status: ('A' for Active; 'I' for Inactive)
REMARK    1  A    between atoms: C_1  and  C_2
REMARK    2  A    between atoms: C_2  and  C_3
REMARK    3  A    between atoms: C_3  and  C_4
REMARK    4  A    between atoms: C_9  and  O_10
REMARK    5  A    between atoms: O_10  and  C_11
REMARK    6  A    between atoms: C_14  and  C_15
REMARK    7  A    between atoms: C_17  and  C_18
REMARK                            x       y       z     vdW  Elec       q    Type
REMARK                         _______ _______ _______ _____ _____    ______ ____
ROOT
ATOM      1  C   UNL     1       3.815   5.529  17.998  0.00  0.00    +0.000 A 
ATOM      2  C   UNL     1       3.183   6.211  19.032  0.00  0.00    +0.000 A 
ATOM      3  C   UNL     1       2.645   5.501  20.114  0.00  0.00    +0.000 A 
ATOM      4  C   UNL     1       2.704   4.095  20.157  0.00  0.00    +0.000 A 
ATOM      5  C   UNL     1       3.358   3.402  19.122  0.00  0.00    +0.000 A 
ATOM      6  C   UNL     1       3.982   4.144  18.095  0.00  0.00    +0.000 A 
ENDROOT
BRANCH   5   7
ATOM      7  C   UNL     1       3.361   1.899  18.980  0.00  0.00    +0.000 C 
ATOM      8  F   UNL     1       3.773   1.430  17.776  0.00  0.00    +0.000 F 
ATOM      9  F   UNL     1       4.190   1.319  19.895  0.00  0.00    +0.000 F 
ATOM     10  F   UNL     1       2.134   1.353  19.197  0.00  0.00    +0.000 F 
ENDBRANCH   5   7
BRANCH   4  11
ATOM     11  C   UNL     1       2.074   3.429  21.267  0.00  0.00    +0.000 C 
ATOM     12  N   UNL     1       1.598   2.867  22.164  0.00  0.00    +0.000 NA
ENDBRANCH   4  11
BRANCH   1  13
ATOM     13  O   UNL     1       4.218   6.267  16.898  0.00  0.00    +0.000 OA
BRANCH  13  19
ATOM     14  C   UNL     1       6.559   6.042  16.344  0.00  0.00    +0.000 A 
ATOM     15  C   UNL     1       7.540   5.423  15.534  0.00  0.00    +0.000 A 
ATOM     16  C   UNL     1       7.201   4.547  14.504  0.00  0.00    +0.000 A 
ATOM     17  C   UNL     1       5.867   4.320  14.208  0.00  0.00    +0.000 A 
ATOM     18  C   UNL     1       4.882   4.951  14.963  0.00  0.00    +0.000 A 
ATOM     19  C   UNL     1       5.209   5.748  16.078  0.00  0.00    +0.000 A 
BRANCH  14  20
ATOM     20  C   UNL     1       7.079   7.055  17.346  0.00  0.00    +0.000 C 
BRANCH  20  22
ATOM     21  C   UNL     1       7.194   5.563  19.396  0.00  0.00    +0.000 C 
ATOM     22  C   UNL     1       7.907   6.601  18.546  0.00  0.00    +0.000 C 
ENDBRANCH  20  22
ENDBRANCH  14  20
ENDBRANCH  13  19
ENDBRANCH   1  13
TORSDOF 6
ENDMDL
MODEL 2
REMARK VINA RESULT:      -7.0      0.877      1.386
REMARK  Name = 
REMARK  7 active torsions:
REMARK  status: ('A' for Active; 'I' for Inactive)
REMARK    1  A    between atoms: C_1  and  C_2
REMARK    2  A    between atoms: C_2  and  C_3
REMARK    3  A    between atoms: C_3  and  C_4
REMARK    4  A    between atoms: C_9  and  O_10
REMARK    5  A    between atoms: O_10  and  C_11
REMARK    6  A    between atoms: C_14  and  C_15
REMARK    7  A    between atoms: C_17  and  C_18
REMARK                            x       y       z     vdW  Elec       q    Type
REMARK                         _______ _______ _______ _____ _____    ______ ____
ROOT
ATOM      1  C   UNL     1       3.707   5.438  18.263  0.00  0.00    +0.000 A 
ATOM      2  C   UNL     1       3.501   5.973  19.529  0.00  0.00    +0.000 A 
ATOM      3  C   UNL     1       2.856   5.213  20.515  0.00  0.00    +0.000 A 
ATOM      4  C   UNL     1       2.379   3.919  20.234  0.00  0.00    +0.000 A 
ATOM      5  C   UNL     1       2.601   3.367  18.959  0.00  0.00    +0.000 A 
ATOM      6  C   UNL     1       3.343   4.110  18.015  0.00  0.00    +0.000 A 
ENDROOT
BRANCH   5   7
ATOM      7  C   UNL     1       2.015   2.056  18.492  0.00  0.00    +0.000 C 
ATOM      8  F   UNL     1       0.666   1.956  18.585  0.00  0.00    +0.000 F 
ATOM      9  F   UNL     1       2.303   1.829  17.177  0.00  0.00    +0.000 F 
ATOM     10  F   UNL     1       2.519   0.989  19.168  0.00  0.00    +0.000 F 
ENDBRANCH   5   7
BRANCH   4  11
ATOM     11  C   UNL     1       1.670   3.222  21.275  0.00  0.00    +0.000 C 
ATOM     12  N   UNL     1       1.074   2.692  22.118  0.00  0.00    +0.000 NA
ENDBRANCH   4  11
BRANCH   1  13
ATOM     13  O   UNL     1       4.236   6.272  17.293  0.00  0.00    +0.000 OA
BRANCH  13  19
ATOM     14  C   UNL     1       6.521   5.551  16.979  0.00  0.00    +0.000 A 
ATOM     15  C   UNL     1       7.481   4.967  16.121  0.00  0.00    +0.000 A 
ATOM     16  C   UNL     1       7.179   4.619  14.804  0.00  0.00    +0.000 A 
ATOM     17  C   UNL     1       5.927   4.911  14.288  0.00  0.00    +0.000 A 
ATOM     18  C   UNL     1       4.978   5.525  15.101  0.00  0.00    +0.000 A 
ATOM     19  C   UNL     1       5.231   5.778  16.464  0.00  0.00    +0.000 A 
BRANCH  14  20
ATOM     20  C   UNL     1       7.033   5.976  18.342  0.00  0.00    +0.000 C 
BRANCH  20  22
ATOM     21  C   UNL     1       7.737   8.311  17.642  0.00  0.00    +0.000 C 
ATOM     22  C   UNL     1       8.079   7.082  18.466  0.00  0.00    +0.000 C 
ENDBRANCH  20  22
ENDBRANCH  14  20
ENDBRANCH  13  19
ENDBRANCH   1  13
TORSDOF 6
ENDMDL
MODEL 3
REMARK VINA RESULT:      -7.0      3.318      6.272
REMARK  Name = 
REMARK  7 active torsions:
REMARK  status: ('A' for Active; 'I' for Inactive)
REMARK    1  A    between atoms: C_1  and  C_2
REMARK    2  A    between atoms: C_2  and  C_3
REMARK    3  A    between atoms: C_3  and  C_4
REMARK    4  A    between atoms: C_9  and  O_10
REMARK    5  A    between atoms: O_10  and  C_11
REMARK    6  A    between atoms: C_14  and  C_15
REMARK    7  A    between atoms: C_17  and  C_18
REMARK                            x       y       z     vdW  Elec       q    Type
REMARK                         _______ _______ _______ _____ _____    ______ ____
ROOT
ATOM      1  C   UNL     1       4.832   3.717  18.353  0.00  0.00    +0.000 A 
ATOM      2  C   UNL     1       5.474   4.485  19.319  0.00  0.00    +0.000 A 
ATOM      3  C   UNL     1       6.245   5.590  18.935  0.00  0.00    +0.000 A 
ATOM      4  C   UNL     1       6.411   5.921  17.577  0.00  0.00    +0.000 A 
ATOM      5  C   UNL     1       5.750   5.157  16.598  0.00  0.00    +0.000 A 
ATOM      6  C   UNL     1       4.896   4.112  17.013  0.00  0.00    +0.000 A 
ENDROOT
BRANCH   5   7
ATOM      7  C   UNL     1       5.962   5.319  15.112  0.00  0.00    +0.000 C 
ATOM      8  F   UNL     1       7.257   5.333  14.708  0.00  0.00    +0.000 F 
ATOM      9  F   UNL     1       5.379   4.299  14.417  0.00  0.00    +0.000 F 
ATOM     10  F   UNL     1       5.404   6.461  14.627  0.00  0.00    +0.000 F 
ENDBRANCH   5   7
BRANCH   4  11
ATOM     11  C   UNL     1       7.270   7.031  17.254  0.00  0.00    +0.000 C 
ATOM     12  N   UNL     1       7.944   7.946  17.023  0.00  0.00    +0.000 NA
ENDBRANCH   4  11
BRANCH   1  13
ATOM     13  O   UNL     1       4.186   2.567  18.776  0.00  0.00    +0.000 OA
BRANCH  13  19
ATOM     14  C   UNL     1       1.882   3.118  19.252  0.00  0.00    +0.000 A 
ATOM     15  C   UNL     1       0.832   3.144  20.199  0.00  0.00    +0.000 A 
ATOM     16  C   UNL     1       1.025   2.756  21.525  0.00  0.00    +0.000 A 
ATOM     17  C   UNL     1       2.291   2.399  21.958  0.00  0.00    +0.000 A 
ATOM     18  C   UNL     1       3.350   2.408  21.055  0.00  0.00    +0.000 A 
ATOM     19  C   UNL     1       3.149   2.686  19.688  0.00  0.00    +0.000 A 
BRANCH  14  20
ATOM     20  C   UNL     1       1.544   3.676  17.883  0.00  0.00    +0.000 C 
BRANCH  20  22
ATOM     21  C   UNL     1       2.238   5.995  18.647  0.00  0.00    +0.000 C 
ATOM     22  C   UNL     1       1.399   5.182  17.675  0.00  0.00    +0.000 C 
ENDBRANCH  20  22
ENDBRANCH  14  20
ENDBRANCH  13  19
ENDBRANCH   1  13
TORSDOF 6
ENDMDL
MODEL 4
REMARK VINA RESULT:      -6.9      2.341      3.922
REMARK  Name = 
REMARK  7 active torsions:
REMARK  status: ('A' for Active; 'I' for Inactive)
REMARK    1  A    between atoms: C_1  and  C_2
REMARK    2  A    between atoms: C_2  and  C_3
REMARK    3  A    between atoms: C_3  and  C_4
REMARK    4  A    between atoms: C_9  and  O_10
REMARK    5  A    between atoms: O_10  and  C_11
REMARK    6  A    between atoms: C_14  and  C_15
REMARK    7  A    between atoms: C_17  and  C_18
REMARK                            x       y       z     vdW  Elec       q    Type
REMARK                         _______ _______ _______ _____ _____    ______ ____
ROOT
ATOM      1  C   UNL     1       3.039   3.505  17.421  0.00  0.00    +0.000 A 
ATOM      2  C   UNL     1       2.932   2.187  17.852  0.00  0.00    +0.000 A 
ATOM      3  C   UNL     1       2.414   1.906  19.124  0.00  0.00    +0.000 A 
ATOM      4  C   UNL     1       2.027   2.943  19.993  0.00  0.00    +0.000 A 
ATOM      5  C   UNL     1       2.117   4.276  19.555  0.00  0.00    +0.000 A 
ATOM      6  C   UNL     1       2.545   4.531  18.233  0.00  0.00    +0.000 A 
ENDROOT
BRANCH   5   7
ATOM      7  C   UNL     1       1.873   5.477  20.439  0.00  0.00    +0.000 C 
ATOM      8  F   UNL     1       0.573   5.729  20.731  0.00  0.00    +0.000 F 
ATOM      9  F   UNL     1       2.493   5.333  21.646  0.00  0.00    +0.000 F 
ATOM     10  F   UNL     1       2.369   6.625  19.905  0.00  0.00    +0.000 F 
ENDBRANCH   5   7
BRANCH   4  11
ATOM     11  C   UNL     1       1.564   2.582  21.308  0.00  0.00    +0.000 C 
ATOM     12  N   UNL     1       1.180   2.329  22.373  0.00  0.00    +0.000 NA
ENDBRANCH   4  11
BRANCH   1  13
ATOM     13  O   UNL     1       3.670   3.732  16.210  0.00  0.00    +0.000 OA
BRANCH  13  19
ATOM     14  C   UNL     1       5.682   4.300  14.999  0.00  0.00    +0.000 A 
ATOM     15  C   UNL     1       7.017   4.763  15.053  0.00  0.00    +0.000 A 
ATOM     16  C   UNL     1       7.659   5.026  16.264  0.00  0.00    +0.000 A 
ATOM     17  C   UNL     1       7.005   4.765  17.456  0.00  0.00    +0.000 A 
ATOM     18  C   UNL     1       5.705   4.268  17.430  0.00  0.00    +0.000 A 
ATOM     19  C   UNL     1       5.005   4.106  16.217  0.00  0.00    +0.000 A 
BRANCH  14  20
ATOM     20  C   UNL     1       5.165   3.951  13.616  0.00  0.00    +0.000 C 
BRANCH  20  22
ATOM     21  C   UNL     1       5.514   2.407  11.634  0.00  0.00    +0.000 C 
ATOM     22  C   UNL     1       6.123   3.472  12.529  0.00  0.00    +0.000 C 
ENDBRANCH  20  22
ENDBRANCH  14  20
ENDBRANCH  13  19
ENDBRANCH   1  13
TORSDOF 6
ENDMDL
MODEL 5
REMARK VINA RESULT:      -6.9      0.748      1.300
REMARK  Name = 
REMARK  7 active torsions:
REMARK  status: ('A' for Active; 'I' for Inactive)
REMARK    1  A    between atoms: C_1  and  C_2
REMARK    2  A    between atoms: C_2  and  C_3
REMARK    3  A    between atoms: C_3  and  C_4
REMARK    4  A    between atoms: C_9  and  O_10
REMARK    5  A    between atoms: O_10  and  C_11
REMARK    6  A    between atoms: C_14  and  C_15
REMARK    7  A    between atoms: C_17  and  C_18
REMARK                            x       y       z     vdW  Elec       q    Type
REMARK                         _______ _______ _______ _____ _____    ______ ____
ROOT
ATOM      1  C   UNL     1       3.997   5.665  18.478  0.00  0.00    +0.000 A 
ATOM      2  C   UNL     1       3.204   6.236  19.467  0.00  0.00    +0.000 A 
ATOM      3  C   UNL     1       2.538   5.419  20.390  0.00  0.00    +0.000 A 
ATOM      4  C   UNL     1       2.631   4.017  20.314  0.00  0.00    +0.000 A 
ATOM      5  C   UNL     1       3.445   3.434  19.326  0.00  0.00    +0.000 A 
ATOM      6  C   UNL     1       4.188   4.279  18.472  0.00  0.00    +0.000 A 
ENDROOT
BRANCH   5   7
ATOM      7  C   UNL     1       3.512   1.951  19.050  0.00  0.00    +0.000 C 
ATOM      8  F   UNL     1       2.354   1.272  19.237  0.00  0.00    +0.000 F 
ATOM      9  F   UNL     1       3.868   1.706  17.755  0.00  0.00    +0.000 F 
ATOM     10  F   UNL     1       4.446   1.321  19.813  0.00  0.00    +0.000 F 
ENDBRANCH   5   7
BRANCH   4  11
ATOM     11  C   UNL     1       1.868   3.239  21.256  0.00  0.00    +0.000 C 
ATOM     12  N   UNL     1       1.239   2.646  22.030  0.00  0.00    +0.000 NA
ENDBRANCH   4  11
BRANCH   1  13
ATOM     13  O   UNL     1       4.532   6.508  17.519  0.00  0.00    +0.000 OA
BRANCH  13  19
ATOM     14  C   UNL     1       6.776   6.084  16.733  0.00  0.00    +0.000 A 
ATOM     15  C   UNL     1       7.608   5.451  15.780  0.00  0.00    +0.000 A 
ATOM     16  C   UNL     1       7.084   4.734  14.704  0.00  0.00    +0.000 A 
ATOM     17  C   UNL     1       5.713   4.690  14.512  0.00  0.00    +0.000 A 
ATOM     18  C   UNL     1       4.875   5.342  15.412  0.00  0.00    +0.000 A 
ATOM     19  C   UNL     1       5.383   5.973  16.565  0.00  0.00    +0.000 A 
BRANCH  14  20
ATOM     20  C   UNL     1       7.494   6.919  17.777  0.00  0.00    +0.000 C 
BRANCH  20  22
ATOM     21  C   UNL     1       8.649   9.028  18.588  0.00  0.00    +0.000 C 
ATOM     22  C   UNL     1       7.730   8.410  17.547  0.00  0.00    +0.000 C 
ENDBRANCH  20  22
ENDBRANCH  14  20
ENDBRANCH  13  19
ENDBRANCH   1  13
TORSDOF 6
ENDMDL
MODEL 6
REMARK VINA RESULT:      -6.9      4.539      6.363
REMARK  Name = 
REMARK  7 active torsions:
REMARK  status: ('A' for Active; 'I' for Inactive)
REMARK    1  A    between atoms: C_1  and  C_2
REMARK    2  A    between atoms: C_2  and  C_3
REMARK    3  A    between atoms: C_3  and  C_4
REMARK    4  A    between atoms: C_9  and  O_10
REMARK    5  A    between atoms: O_10  and  C_11
REMARK    6  A    between atoms: C_14  and  C_15
REMARK    7  A    between atoms: C_17  and  C_18
REMARK                            x       y       z     vdW  Elec       q    Type
REMARK                         _______ _______ _______ _____ _____    ______ ____
ROOT
ATOM      1  C   UNL     1       2.509   7.092  19.485  0.00  0.00    +0.000 A 
ATOM      2  C   UNL     1       2.463   7.724  18.248  0.00  0.00    +0.000 A 
ATOM      3  C   UNL     1       1.700   8.888  18.084  0.00  0.00    +0.000 A 
ATOM      4  C   UNL     1       0.945   9.415  19.148  0.00  0.00    +0.000 A 
ATOM      5  C   UNL     1       1.001   8.788  20.406  0.00  0.00    +0.000 A 
ATOM      6  C   UNL     1       1.857   7.678  20.576  0.00  0.00    +0.000 A 
ENDROOT
BRANCH   5   7
ATOM      7  C   UNL     1       0.130   9.167  21.581  0.00  0.00    +0.000 C 
ATOM      8  F   UNL     1      -0.421  10.404  21.520  0.00  0.00    +0.000 F 
ATOM      9  F   UNL     1      -0.923   8.308  21.710  0.00  0.00    +0.000 F 
ATOM     10  F   UNL     1       0.798   9.110  22.764  0.00  0.00    +0.000 F 
ENDBRANCH   5   7
BRANCH   4  11
ATOM     11  C   UNL     1       0.133  10.576  18.889  0.00  0.00    +0.000 C 
ATOM     12  N   UNL     1      -0.551  11.487  18.673  0.00  0.00    +0.000 NA
ENDBRANCH   4  11
BRANCH   1  13
ATOM     13  O   UNL     1       3.176   5.881  19.561  0.00  0.00    +0.000 OA
BRANCH  13  19
ATOM     14  C   UNL     1       2.815   3.981  18.114  0.00  0.00    +0.000 A 
ATOM     15  C   UNL     1       2.137   2.759  17.894  0.00  0.00    +0.000 A 
ATOM     16  C   UNL     1       1.167   2.285  18.777  0.00  0.00    +0.000 A 
ATOM     17  C   UNL     1       0.798   3.054  19.868  0.00  0.00    +0.000 A 
ATOM     18  C   UNL     1       1.420   4.281  20.082  0.00  0.00    +0.000 A 
ATOM     19  C   UNL     1       2.480   4.720  19.263  0.00  0.00    +0.000 A 
BRANCH  14  20
ATOM     20  C   UNL     1       3.757   4.415  17.007  0.00  0.00    +0.000 C 
BRANCH  20  22
ATOM     21  C   UNL     1       5.785   5.924  17.237  0.00  0.00    +0.000 C 
ATOM     22  C   UNL     1       5.261   4.498  17.259  0.00  0.00    +0.000 C 
ENDBRANCH  20  22
ENDBRANCH  14  20
ENDBRANCH  13  19
ENDBRANCH   1  13
TORSDOF 6
ENDMDL
MODEL 7
REMARK VINA RESULT:      -6.8      4.566      6.411
REMARK  Name = 
REMARK  7 active torsions:
REMARK  status: ('A' for Active; 'I' for Inactive)
REMARK    1  A    between atoms: C_1  and  C_2
REMARK    2  A    between atoms: C_2  and  C_3
REMARK    3  A    between atoms: C_3  and  C_4
REMARK    4  A    between atoms: C_9  and  O_10
REMARK    5  A    between atoms: O_10  and  C_11
REMARK    6  A    between atoms: C_14  and  C_15
REMARK    7  A    between atoms: C_17  and  C_18
REMARK                            x       y       z     vdW  Elec       q    Type
REMARK                         _______ _______ _______ _____ _____    ______ ____
ROOT
ATOM      1  C   UNL     1       2.606   7.222  19.514  0.00  0.00    +0.000 A 
ATOM      2  C   UNL     1       2.499   7.758  18.236  0.00  0.00    +0.000 A 
ATOM      3  C   UNL     1       1.632   8.833  17.997  0.00  0.00    +0.000 A 
ATOM      4  C   UNL     1       0.835   9.363  19.029  0.00  0.00    +0.000 A 
ATOM      5  C   UNL     1       0.953   8.835  20.328  0.00  0.00    +0.000 A 
ATOM      6  C   UNL     1       1.907   7.823  20.567  0.00  0.00    +0.000 A 
ENDROOT
BRANCH   5   7
ATOM      7  C   UNL     1       0.054   9.216  21.481  0.00  0.00    +0.000 C 
ATOM      8  F   UNL     1      -0.288  10.527  21.542  0.00  0.00    +0.000 F 
ATOM      9  F   UNL     1      -1.128   8.537  21.429  0.00  0.00    +0.000 F 
ATOM     10  F   UNL     1       0.601   8.912  22.689  0.00  0.00    +0.000 F 
ENDBRANCH   5   7
BRANCH   4  11
ATOM     11  C   UNL     1      -0.080  10.424  18.697  0.00  0.00    +0.000 C 
ATOM     12  N   UNL     1      -0.791  11.305  18.444  0.00  0.00    +0.000 NA
ENDBRANCH   4  11
BRANCH   1  13
ATOM     13  O   UNL     1       3.382   6.086  19.669  0.00  0.00    +0.000 OA
BRANCH  13  19
ATOM     14  C   UNL     1       2.071   4.184  18.960  0.00  0.00    +0.000 A 
ATOM     15  C   UNL     1       1.864   3.168  17.998  0.00  0.00    +0.000 A 
ATOM     16  C   UNL     1       2.726   2.991  16.916  0.00  0.00    +0.000 A 
ATOM     17  C   UNL     1       3.858   3.781  16.804  0.00  0.00    +0.000 A 
ATOM     18  C   UNL     1       4.106   4.760  17.763  0.00  0.00    +0.000 A 
ATOM     19  C   UNL     1       3.187   5.026  18.797  0.00  0.00    +0.000 A 
BRANCH  14  20
ATOM     20  C   UNL     1       1.114   4.176  20.137  0.00  0.00    +0.000 C 
BRANCH  20  22
ATOM     21  C   UNL     1       2.494   2.745  21.713  0.00  0.00    +0.000 C 
ATOM     22  C   UNL     1       1.118   3.017  21.130  0.00  0.00    +0.000 C 
ENDBRANCH  20  22
ENDBRANCH  14  20
ENDBRANCH  13  19
ENDBRANCH   1  13
TORSDOF 6
ENDMDL
MODEL 8
REMARK VINA RESULT:      -6.7      4.551      6.227
REMARK  Name = 
REMARK  7 active torsions:
REMARK  status: ('A' for Active; 'I' for Inactive)
REMARK    1  A    between atoms: C_1  and  C_2
REMARK    2  A    between atoms: C_2  and  C_3
REMARK    3  A    between atoms: C_3  and  C_4
REMARK    4  A    between atoms: C_9  and  O_10
REMARK    5  A    between atoms: O_10  and  C_11
REMARK    6  A    between atoms: C_14  and  C_15
REMARK    7  A    between atoms: C_17  and  C_18
REMARK                            x       y       z     vdW  Elec       q    Type
REMARK                         _______ _______ _______ _____ _____    ______ ____
ROOT
ATOM      1  C   UNL     1       2.523   7.320  19.343  0.00  0.00    +0.000 A 
ATOM      2  C   UNL     1       2.327   7.958  18.123  0.00  0.00    +0.000 A 
ATOM      3  C   UNL     1       1.432   9.032  18.030  0.00  0.00    +0.000 A 
ATOM      4  C   UNL     1       0.696   9.460  19.151  0.00  0.00    +0.000 A 
ATOM      5  C   UNL     1       0.904   8.829  20.391  0.00  0.00    +0.000 A 
ATOM      6  C   UNL     1       1.885   7.818  20.484  0.00  0.00    +0.000 A 
ENDROOT
BRANCH   5   7
ATOM      7  C   UNL     1       0.076   9.096  21.626  0.00  0.00    +0.000 C 
ATOM      8  F   UNL     1       0.739   8.990  22.804  0.00  0.00    +0.000 F 
ATOM      9  F   UNL     1      -0.434  10.362  21.612  0.00  0.00    +0.000 F 
ATOM     10  F   UNL     1      -0.998   8.267  21.722  0.00  0.00    +0.000 F 
ENDBRANCH   5   7
BRANCH   4  11
ATOM     11  C   UNL     1      -0.252  10.528  18.967  0.00  0.00    +0.000 C 
ATOM     12  N   UNL     1      -1.006  11.390  18.779  0.00  0.00    +0.000 NA
ENDBRANCH   4  11
BRANCH   1  13
ATOM     13  O   UNL     1       3.322   6.189  19.353  0.00  0.00    +0.000 OA
BRANCH  13  19
ATOM     14  C   UNL     1       3.348   4.346  17.791  0.00  0.00    +0.000 A 
ATOM     15  C   UNL     1       2.822   3.086  17.423  0.00  0.00    +0.000 A 
ATOM     16  C   UNL     1       1.780   2.487  18.130  0.00  0.00    +0.000 A 
ATOM     17  C   UNL     1       1.188   3.163  19.184  0.00  0.00    +0.000 A 
ATOM     18  C   UNL     1       1.660   4.424  19.538  0.00  0.00    +0.000 A 
ATOM     19  C   UNL     1       2.784   4.992  18.907  0.00  0.00    +0.000 A 
BRANCH  14  20
ATOM     20  C   UNL     1       4.399   4.916  16.857  0.00  0.00    +0.000 C 
BRANCH  20  22
ATOM     21  C   UNL     1       6.315   4.732  15.205  0.00  0.00    +0.000 C 
ATOM     22  C   UNL     1       5.252   3.989  15.995  0.00  0.00    +0.000 C 
ENDBRANCH  20  22
ENDBRANCH  14  20
ENDBRANCH  13  19
ENDBRANCH   1  13
TORSDOF 6
ENDMDL
MODEL 9
REMARK VINA RESULT:      -6.6      4.320      5.832
REMARK  Name = 
REMARK  7 active torsions:
REMARK  status: ('A' for Active; 'I' for Inactive)
REMARK    1  A    between atoms: C_1  and  C_2
REMARK    2  A    between atoms: C_2  and  C_3
REMARK    3  A    between atoms: C_3  and  C_4
REMARK    4  A    between atoms: C_9  and  O_10
REMARK    5  A    between atoms: O_10  and  C_11
REMARK    6  A    between atoms: C_14  and  C_15
REMARK    7  A    between atoms: C_17  and  C_18
REMARK                            x       y       z     vdW  Elec       q    Type
REMARK                         _______ _______ _______ _____ _____    ______ ____
ROOT
ATOM      1  C   UNL     1       2.590   6.640  19.414  0.00  0.00    +0.000 A 
ATOM      2  C   UNL     1       2.657   7.296  18.190  0.00  0.00    +0.000 A 
ATOM      3  C   UNL     1       2.037   8.543  18.029  0.00  0.00    +0.000 A 
ATOM      4  C   UNL     1       1.313   9.133  19.083  0.00  0.00    +0.000 A 
ATOM      5  C   UNL     1       1.257   8.480  20.328  0.00  0.00    +0.000 A 
ATOM      6  C   UNL     1       1.975   7.276  20.498  0.00  0.00    +0.000 A 
ENDROOT
BRANCH   5   7
ATOM      7  C   UNL     1       0.398   8.935  21.484  0.00  0.00    +0.000 C 
ATOM      8  F   UNL     1      -0.073  10.203  21.394  0.00  0.00    +0.000 F 
ATOM      9  F   UNL     1      -0.708   8.147  21.615  0.00  0.00    +0.000 F 
ATOM     10  F   UNL     1       1.048   8.857  22.677  0.00  0.00    +0.000 F 
ENDBRANCH   5   7
BRANCH   4  11
ATOM     11  C   UNL     1       0.648  10.384  18.826  0.00  0.00    +0.000 C 
ATOM     12  N   UNL     1       0.126  11.405  18.654  0.00  0.00    +0.000 NA
ENDBRANCH   4  11
BRANCH   1  13
ATOM     13  O   UNL     1       3.113   5.360  19.483  0.00  0.00    +0.000 OA
BRANCH  13  19
ATOM     14  C   UNL     1       4.100   4.294  17.553  0.00  0.00    +0.000 A 
ATOM     15  C   UNL     1       5.257   4.084  16.766  0.00  0.00    +0.000 A 
ATOM     16  C   UNL     1       6.498   4.611  17.124  0.00  0.00    +0.000 A 
ATOM     17  C   UNL     1       6.631   5.305  18.315  0.00  0.00    +0.000 A 
ATOM     18  C   UNL     1       5.516   5.488  19.128  0.00  0.00    +0.000 A 
ATOM     19  C   UNL     1       4.234   5.060  18.726  0.00  0.00    +0.000 A 
BRANCH  14  20
ATOM     20  C   UNL     1       2.854   3.562  17.094  0.00  0.00    +0.000 C 
BRANCH  20  22
ATOM     21  C   UNL     1       3.437   1.489  18.436  0.00  0.00    +0.000 C 
ATOM     22  C   UNL     1       2.327   2.363  17.879  0.00  0.00    +0.000 C 
ENDBRANCH  20  22
ENDBRANCH  14  20
ENDBRANCH  13  19
ENDBRANCH   1  13
TORSDOF 6
ENDMDL
