MODEL 1
REMARK VINA RESULT:      -7.8      0.000      0.000
REMARK  Name = 
REMARK  3 active torsions:
REMARK  status: ('A' for Active; 'I' for Inactive)
REMARK    1  A    between atoms: C_5  and  C_6
REMARK    2  A    between atoms: C_11  and  O_12
REMARK    3  A    between atoms: O_12  and  C_13
REMARK                            x       y       z     vdW  Elec       q    Type
REMARK                         _______ _______ _______ _____ _____    ______ ____
ROOT
ATOM      1  C   UNL     1       6.609   4.824  15.371  0.00  0.00    +0.000 A 
ATOM      2  C   UNL     1       7.480   4.861  14.248  0.00  0.00    +0.000 A 
ATOM      3  C   UNL     1       7.097   4.374  13.005  0.00  0.00    +0.000 A 
ATOM      4  C   UNL     1       5.840   3.817  12.831  0.00  0.00    +0.000 A 
ATOM      5  C   UNL     1       4.947   3.774  13.898  0.00  0.00    +0.000 A 
ATOM      6  C   UNL     1       5.292   4.277  15.165  0.00  0.00    +0.000 A 
ENDROOT
BRANCH   1  11
ATOM      7  C   UNL     1       7.740   7.323  18.063  0.00  0.00    +0.000 A 
ATOM      8  C   UNL     1       8.123   6.465  19.088  0.00  0.00    +0.000 A 
ATOM      9  N   UNL     1       7.986   5.126  18.926  0.00  0.00    +0.000 NA
ATOM     10  C   UNL     1       7.504   4.579  17.778  0.00  0.00    +0.000 A 
ATOM     11  C   UNL     1       7.123   5.390  16.688  0.00  0.00    +0.000 A 
ATOM     12  C   UNL     1       7.245   6.793  16.879  0.00  0.00    +0.000 A 
ENDBRANCH   1  11
BRANCH   6  13
ATOM     13  O   UNL     1       4.293   4.314  16.085  0.00  0.00    +0.000 OA
BRANCH  13  14
ATOM     14  C   UNL     1       3.981   3.653  17.280  0.00  0.00    +0.000 C 
ATOM     15  C   UNL     1       2.563   3.010  17.256  0.00  0.00    +0.000 C 
ATOM     16  C   UNL     1       1.634   4.054  17.943  0.00  0.00    +0.000 C 
ATOM     17  C   UNL     1       1.455   3.741  19.453  0.00  0.00    +0.000 C 
ATOM     18  N   UNL     1       2.748   3.472  20.099  0.00  0.00    +0.000 NA
ATOM     19  C   UNL     1       3.772   4.472  19.777  0.00  0.00    +0.000 C 
ATOM     20  C   UNL     1       3.809   4.828  18.272  0.00  0.00    +0.000 C 
ATOM     21  C   UNL     1       2.430   5.346  17.853  0.00  0.00    +0.000 C 
ATOM     22  H   UNL     1       2.615   3.439  21.138  0.00  0.00    +0.000 HD
ENDBRANCH  13  14
ENDBRANCH   6  13
TORSDOF 3
ENDMDL
MODEL 2
REMARK VINA RESULT:      -7.7      2.301      6.412
REMARK  Name = 
REMARK  3 active torsions:
REMARK  status: ('A' for Active; 'I' for Inactive)
REMARK    1  A    between atoms: C_5  and  C_6
REMARK    2  A    between atoms: C_11  and  O_12
REMARK    3  A    between atoms: O_12  and  C_13
REMARK                            x       y       z     vdW  Elec       q    Type
REMARK                         _______ _______ _______ _____ _____    ______ ____
ROOT
ATOM      1  C   UNL     1       1.884   6.375  19.924  0.00  0.00    +0.000 A 
ATOM      2  C   UNL     1       1.238   7.393  20.678  0.00  0.00    +0.000 A 
ATOM      3  C   UNL     1       1.222   8.717  20.261  0.00  0.00    +0.000 A 
ATOM      4  C   UNL     1       1.857   9.086  19.086  0.00  0.00    +0.000 A 
ATOM      5  C   UNL     1       2.488   8.121  18.306  0.00  0.00    +0.000 A 
ATOM      6  C   UNL     1       2.506   6.767  18.686  0.00  0.00    +0.000 A 
ENDROOT
BRANCH   1  11
ATOM      7  C   UNL     1       0.986   2.659  20.320  0.00  0.00    +0.000 A 
ATOM      8  C   UNL     1       1.688   2.330  21.474  0.00  0.00    +0.000 A 
ATOM      9  N   UNL     1       2.454   3.269  22.081  0.00  0.00    +0.000 NA
ATOM     10  C   UNL     1       2.546   4.544  21.615  0.00  0.00    +0.000 A 
ATOM     11  C   UNL     1       1.838   4.952  20.466  0.00  0.00    +0.000 A 
ATOM     12  C   UNL     1       1.060   3.953  19.821  0.00  0.00    +0.000 A 
ENDBRANCH   1  11
BRANCH   6  13
ATOM     13  O   UNL     1       3.022   5.899  17.776  0.00  0.00    +0.000 OA
BRANCH  13  14
ATOM     14  C   UNL     1       4.076   4.978  17.729  0.00  0.00    +0.000 C 
ATOM     15  C   UNL     1       5.172   5.266  18.797  0.00  0.00    +0.000 C 
ATOM     16  C   UNL     1       6.259   6.094  18.050  0.00  0.00    +0.000 C 
ATOM     17  C   UNL     1       7.397   5.179  17.521  0.00  0.00    +0.000 C 
ATOM     18  N   UNL     1       6.856   4.003  16.825  0.00  0.00    +0.000 NA
ATOM     19  C   UNL     1       5.812   4.339  15.851  0.00  0.00    +0.000 C 
ATOM     20  C   UNL     1       4.782   5.352  16.404  0.00  0.00    +0.000 C 
ATOM     21  C   UNL     1       5.520   6.624  16.831  0.00  0.00    +0.000 C 
ATOM     22  H   UNL     1       7.637   3.503  16.333  0.00  0.00    +0.000 HD
ENDBRANCH  13  14
ENDBRANCH   6  13
TORSDOF 3
ENDMDL
MODEL 3
REMARK VINA RESULT:      -7.6      2.059      6.035
REMARK  Name = 
REMARK  3 active torsions:
REMARK  status: ('A' for Active; 'I' for Inactive)
REMARK    1  A    between atoms: C_5  and  C_6
REMARK    2  A    between atoms: C_11  and  O_12
REMARK    3  A    between atoms: O_12  and  C_13
REMARK                            x       y       z     vdW  Elec       q    Type
REMARK                         _______ _______ _______ _____ _____    ______ ____
ROOT
ATOM      1  C   UNL     1       2.569   5.376  19.388  0.00  0.00    +0.000 A 
ATOM      2  C   UNL     1       1.712   5.674  20.483  0.00  0.00    +0.000 A 
ATOM      3  C   UNL     1       1.313   6.972  20.772  0.00  0.00    +0.000 A 
ATOM      4  C   UNL     1       1.760   8.029  19.994  0.00  0.00    +0.000 A 
ATOM      5  C   UNL     1       2.588   7.784  18.902  0.00  0.00    +0.000 A 
ATOM      6  C   UNL     1       2.994   6.481  18.566  0.00  0.00    +0.000 A 
ENDROOT
BRANCH   1  11
ATOM      7  C   UNL     1       2.588   1.811  17.952  0.00  0.00    +0.000 A 
ATOM      8  C   UNL     1       3.568   1.208  18.733  0.00  0.00    +0.000 A 
ATOM      9  N   UNL     1       4.223   1.940  19.667  0.00  0.00    +0.000 NA
ATOM     10  C   UNL     1       3.942   3.252  19.891  0.00  0.00    +0.000 A 
ATOM     11  C   UNL     1       2.942   3.919  19.153  0.00  0.00    +0.000 A 
ATOM     12  C   UNL     1       2.280   3.150  18.157  0.00  0.00    +0.000 A 
ENDBRANCH   1  11
BRANCH   6  13
ATOM     13  O   UNL     1       3.678   6.350  17.399  0.00  0.00    +0.000 OA
BRANCH  13  14
ATOM     14  C   UNL     1       5.016   6.409  16.989  0.00  0.00    +0.000 C 
ATOM     15  C   UNL     1       5.163   6.558  15.447  0.00  0.00    +0.000 C 
ATOM     16  C   UNL     1       5.377   5.109  14.917  0.00  0.00    +0.000 C 
ATOM     17  C   UNL     1       6.888   4.786  14.759  0.00  0.00    +0.000 C 
ATOM     18  N   UNL     1       7.646   5.178  15.955  0.00  0.00    +0.000 NA
ATOM     19  C   UNL     1       7.029   4.720  17.205  0.00  0.00    +0.000 C 
ATOM     20  C   UNL     1       5.501   4.961  17.241  0.00  0.00    +0.000 C 
ATOM     21  C   UNL     1       4.859   4.241  16.052  0.00  0.00    +0.000 C 
ATOM     22  H   UNL     1       8.619   4.792  15.890  0.00  0.00    +0.000 HD
ENDBRANCH  13  14
ENDBRANCH   6  13
TORSDOF 3
ENDMDL
MODEL 4
REMARK VINA RESULT:      -7.6      2.509      6.256
REMARK  Name = 
REMARK  3 active torsions:
REMARK  status: ('A' for Active; 'I' for Inactive)
REMARK    1  A    between atoms: C_5  and  C_6
REMARK    2  A    between atoms: C_11  and  O_12
REMARK    3  A    between atoms: O_12  and  C_13
REMARK                            x       y       z     vdW  Elec       q    Type
REMARK                         _______ _______ _______ _____ _____    ______ ____
ROOT
ATOM      1  C   UNL     1       2.201   5.216  19.980  0.00  0.00    +0.000 A 
ATOM      2  C   UNL     1       1.105   4.512  20.551  0.00  0.00    +0.000 A 
ATOM      3  C   UNL     1       1.209   3.183  20.940  0.00  0.00    +0.000 A 
ATOM      4  C   UNL     1       2.399   2.496  20.766  0.00  0.00    +0.000 A 
ATOM      5  C   UNL     1       3.504   3.149  20.226  0.00  0.00    +0.000 A 
ATOM      6  C   UNL     1       3.443   4.500  19.840  0.00  0.00    +0.000 A 
ENDROOT
BRANCH   1  11
ATOM      7  C   UNL     1       2.038   8.441  17.895  0.00  0.00    +0.000 A 
ATOM      8  C   UNL     1       1.651   9.368  18.856  0.00  0.00    +0.000 A 
ATOM      9  N   UNL     1       1.417   8.957  20.126  0.00  0.00    +0.000 NA
ATOM     10  C   UNL     1       1.569   7.660  20.509  0.00  0.00    +0.000 A 
ATOM     11  C   UNL     1       1.985   6.673  19.592  0.00  0.00    +0.000 A 
ATOM     12  C   UNL     1       2.202   7.110  18.257  0.00  0.00    +0.000 A 
ENDBRANCH   1  11
BRANCH   6  13
ATOM     13  O   UNL     1       4.619   5.067  19.465  0.00  0.00    +0.000 OA
BRANCH  13  14
ATOM     14  C   UNL     1       5.725   4.703  18.688  0.00  0.00    +0.000 C 
ATOM     15  C   UNL     1       6.824   5.805  18.655  0.00  0.00    +0.000 C 
ATOM     16  C   UNL     1       6.551   6.611  17.350  0.00  0.00    +0.000 C 
ATOM     17  C   UNL     1       7.422   6.089  16.175  0.00  0.00    +0.000 C 
ATOM     18  N   UNL     1       7.365   4.624  16.079  0.00  0.00    +0.000 NA
ATOM     19  C   UNL     1       5.998   4.094  16.137  0.00  0.00    +0.000 C 
ATOM     20  C   UNL     1       5.149   4.750  17.252  0.00  0.00    +0.000 C 
ATOM     21  C   UNL     1       5.109   6.262  17.018  0.00  0.00    +0.000 C 
ATOM     22  H   UNL     1       7.814   4.318  15.182  0.00  0.00    +0.000 HD
ENDBRANCH  13  14
ENDBRANCH   6  13
TORSDOF 3
ENDMDL
MODEL 5
REMARK VINA RESULT:      -7.6      2.139      6.057
REMARK  Name = 
REMARK  3 active torsions:
REMARK  status: ('A' for Active; 'I' for Inactive)
REMARK    1  A    between atoms: C_5  and  C_6
REMARK    2  A    between atoms: C_11  and  O_12
REMARK    3  A    between atoms: O_12  and  C_13
REMARK                            x       y       z     vdW  Elec       q    Type
REMARK                         _______ _______ _______ _____ _____    ______ ____
ROOT
ATOM      1  C   UNL     1       2.553   5.358  19.403  0.00  0.00    +0.000 A 
ATOM      2  C   UNL     1       1.699   5.674  20.495  0.00  0.00    +0.000 A 
ATOM      3  C   UNL     1       1.316   6.979  20.775  0.00  0.00    +0.000 A 
ATOM      4  C   UNL     1       1.777   8.024  19.990  0.00  0.00    +0.000 A 
ATOM      5  C   UNL     1       2.602   7.762  18.900  0.00  0.00    +0.000 A 
ATOM      6  C   UNL     1       2.992   6.451  18.574  0.00  0.00    +0.000 A 
ENDROOT
BRANCH   1  11
ATOM      7  C   UNL     1       4.292   1.946  19.721  0.00  0.00    +0.000 A 
ATOM      8  C   UNL     1       3.626   1.208  18.748  0.00  0.00    +0.000 A 
ATOM      9  N   UNL     1       2.626   1.786  18.039  0.00  0.00    +0.000 NA
ATOM     10  C   UNL     1       2.257   3.082  18.227  0.00  0.00    +0.000 A 
ATOM     11  C   UNL     1       2.908   3.894  19.178  0.00  0.00    +0.000 A 
ATOM     12  C   UNL     1       3.937   3.271  19.935  0.00  0.00    +0.000 A 
ENDBRANCH   1  11
BRANCH   6  13
ATOM     13  O   UNL     1       3.676   6.304  17.408  0.00  0.00    +0.000 OA
BRANCH  13  14
ATOM     14  C   UNL     1       5.011   6.372  16.993  0.00  0.00    +0.000 C 
ATOM     15  C   UNL     1       5.152   6.513  15.450  0.00  0.00    +0.000 C 
ATOM     16  C   UNL     1       5.377   5.063  14.928  0.00  0.00    +0.000 C 
ATOM     17  C   UNL     1       6.890   4.752  14.766  0.00  0.00    +0.000 C 
ATOM     18  N   UNL     1       7.648   5.158  15.958  0.00  0.00    +0.000 NA
ATOM     19  C   UNL     1       7.040   4.701  17.212  0.00  0.00    +0.000 C 
ATOM     20  C   UNL     1       5.510   4.930  17.253  0.00  0.00    +0.000 C 
ATOM     21  C   UNL     1       4.870   4.197  16.070  0.00  0.00    +0.000 C 
ATOM     22  H   UNL     1       8.624   4.780  15.892  0.00  0.00    +0.000 HD
ENDBRANCH  13  14
ENDBRANCH   6  13
TORSDOF 3
ENDMDL
MODEL 6
REMARK VINA RESULT:      -7.5      2.613      6.287
REMARK  Name = 
REMARK  3 active torsions:
REMARK  status: ('A' for Active; 'I' for Inactive)
REMARK    1  A    between atoms: C_5  and  C_6
REMARK    2  A    between atoms: C_11  and  O_12
REMARK    3  A    between atoms: O_12  and  C_13
REMARK                            x       y       z     vdW  Elec       q    Type
REMARK                         _______ _______ _______ _____ _____    ______ ____
ROOT
ATOM      1  C   UNL     1       2.220   5.559  19.925  0.00  0.00    +0.000 A 
ATOM      2  C   UNL     1       1.193   4.783  20.528  0.00  0.00    +0.000 A 
ATOM      3  C   UNL     1       1.384   3.452  20.875  0.00  0.00    +0.000 A 
ATOM      4  C   UNL     1       2.598   2.834  20.623  0.00  0.00    +0.000 A 
ATOM      5  C   UNL     1       3.640   3.558  20.049  0.00  0.00    +0.000 A 
ATOM      6  C   UNL     1       3.489   4.913  19.705  0.00  0.00    +0.000 A 
ENDROOT
BRANCH   1  11
ATOM      7  C   UNL     1       1.785   8.822  17.941  0.00  0.00    +0.000 A 
ATOM      8  C   UNL     1       1.400   9.703  18.946  0.00  0.00    +0.000 A 
ATOM      9  N   UNL     1       1.253   9.247  20.214  0.00  0.00    +0.000 NA
ATOM     10  C   UNL     1       1.492   7.952  20.553  0.00  0.00    +0.000 A 
ATOM     11  C   UNL     1       1.910   7.011  19.589  0.00  0.00    +0.000 A 
ATOM     12  C   UNL     1       2.035   7.493  18.257  0.00  0.00    +0.000 A 
ENDBRANCH   1  11
BRANCH   6  13
ATOM     13  O   UNL     1       4.614   5.551  19.288  0.00  0.00    +0.000 OA
BRANCH  13  14
ATOM     14  C   UNL     1       5.125   6.031  18.076  0.00  0.00    +0.000 C 
ATOM     15  C   UNL     1       4.846   5.068  16.885  0.00  0.00    +0.000 C 
ATOM     16  C   UNL     1       6.138   4.210  16.745  0.00  0.00    +0.000 C 
ATOM     17  C   UNL     1       7.098   4.810  15.683  0.00  0.00    +0.000 C 
ATOM     18  N   UNL     1       7.275   6.256  15.879  0.00  0.00    +0.000 NA
ATOM     19  C   UNL     1       7.566   6.618  17.270  0.00  0.00    +0.000 C 
ATOM     20  C   UNL     1       6.652   5.887  18.282  0.00  0.00    +0.000 C 
ATOM     21  C   UNL     1       6.817   4.376  18.095  0.00  0.00    +0.000 C 
ATOM     22  H   UNL     1       8.054   6.595  15.265  0.00  0.00    +0.000 HD
ENDBRANCH  13  14
ENDBRANCH   6  13
TORSDOF 3
ENDMDL
MODEL 7
REMARK VINA RESULT:      -7.5      0.860      1.232
REMARK  Name = 
REMARK  3 active torsions:
REMARK  status: ('A' for Active; 'I' for Inactive)
REMARK    1  A    between atoms: C_5  and  C_6
REMARK    2  A    between atoms: C_11  and  O_12
REMARK    3  A    between atoms: O_12  and  C_13
REMARK                            x       y       z     vdW  Elec       q    Type
REMARK                         _______ _______ _______ _____ _____    ______ ____
ROOT
ATOM      1  C   UNL     1       6.588   4.867  15.563  0.00  0.00    +0.000 A 
ATOM      2  C   UNL     1       7.430   4.891  14.417  0.00  0.00    +0.000 A 
ATOM      3  C   UNL     1       7.011   4.400  13.188  0.00  0.00    +0.000 A 
ATOM      4  C   UNL     1       5.745   3.854  13.050  0.00  0.00    +0.000 A 
ATOM      5  C   UNL     1       4.880   3.823  14.140  0.00  0.00    +0.000 A 
ATOM      6  C   UNL     1       5.262   4.331  15.395  0.00  0.00    +0.000 A 
ENDROOT
BRANCH   1  11
ATOM      7  C   UNL     1       7.859   7.367  18.191  0.00  0.00    +0.000 A 
ATOM      8  C   UNL     1       8.215   6.514  19.230  0.00  0.00    +0.000 A 
ATOM      9  N   UNL     1       8.017   5.180  19.097  0.00  0.00    +0.000 NA
ATOM     10  C   UNL     1       7.499   4.632  17.965  0.00  0.00    +0.000 A 
ATOM     11  C   UNL     1       7.141   5.436  16.863  0.00  0.00    +0.000 A 
ATOM     12  C   UNL     1       7.328   6.836  17.023  0.00  0.00    +0.000 A 
ENDBRANCH   1  11
BRANCH   6  13
ATOM     13  O   UNL     1       4.288   4.381  16.341  0.00  0.00    +0.000 OA
BRANCH  13  14
ATOM     14  C   UNL     1       3.298   3.520  16.833  0.00  0.00    +0.000 C 
ATOM     15  C   UNL     1       2.170   4.277  17.593  0.00  0.00    +0.000 C 
ATOM     16  C   UNL     1       2.568   4.194  19.096  0.00  0.00    +0.000 C 
ATOM     17  C   UNL     1       1.867   2.999  19.797  0.00  0.00    +0.000 C 
ATOM     18  N   UNL     1       1.991   1.767  19.004  0.00  0.00    +0.000 NA
ATOM     19  C   UNL     1       3.360   1.515  18.543  0.00  0.00    +0.000 C 
ATOM     20  C   UNL     1       4.042   2.780  17.970  0.00  0.00    +0.000 C 
ATOM     21  C   UNL     1       4.051   3.867  19.050  0.00  0.00    +0.000 C 
ATOM     22  H   UNL     1       1.666   0.952  19.579  0.00  0.00    +0.000 HD
ENDBRANCH  13  14
ENDBRANCH   6  13
TORSDOF 3
ENDMDL
MODEL 8
REMARK VINA RESULT:      -7.5      0.816      1.429
REMARK  Name = 
REMARK  3 active torsions:
REMARK  status: ('A' for Active; 'I' for Inactive)
REMARK    1  A    between atoms: C_5  and  C_6
REMARK    2  A    between atoms: C_11  and  O_12
REMARK    3  A    between atoms: O_12  and  C_13
REMARK                            x       y       z     vdW  Elec       q    Type
REMARK                         _______ _______ _______ _____ _____    ______ ____
ROOT
ATOM      1  C   UNL     1       6.779   4.782  15.468  0.00  0.00    +0.000 A 
ATOM      2  C   UNL     1       7.448   5.174  14.276  0.00  0.00    +0.000 A 
ATOM      3  C   UNL     1       7.078   4.683  13.031  0.00  0.00    +0.000 A 
ATOM      4  C   UNL     1       6.038   3.774  12.920  0.00  0.00    +0.000 A 
ATOM      5  C   UNL     1       5.343   3.373  14.059  0.00  0.00    +0.000 A 
ATOM      6  C   UNL     1       5.676   3.866  15.333  0.00  0.00    +0.000 A 
ENDROOT
BRANCH   1  11
ATOM      7  C   UNL     1       7.780   7.356  18.141  0.00  0.00    +0.000 A 
ATOM      8  C   UNL     1       8.196   6.526  19.177  0.00  0.00    +0.000 A 
ATOM      9  N   UNL     1       8.121   5.181  19.027  0.00  0.00    +0.000 NA
ATOM     10  C   UNL     1       7.671   4.602  17.881  0.00  0.00    +0.000 A 
ATOM     11  C   UNL     1       7.259   5.383  16.782  0.00  0.00    +0.000 A 
ATOM     12  C   UNL     1       7.316   6.793  16.959  0.00  0.00    +0.000 A 
ENDBRANCH   1  11
BRANCH   6  13
ATOM     13  O   UNL     1       4.838   3.519  16.345  0.00  0.00    +0.000 OA
BRANCH  13  14
ATOM     14  C   UNL     1       3.655   4.016  16.906  0.00  0.00    +0.000 C 
ATOM     15  C   UNL     1       3.841   5.424  17.544  0.00  0.00    +0.000 C 
ATOM     16  C   UNL     1       4.091   5.153  19.057  0.00  0.00    +0.000 C 
ATOM     17  C   UNL     1       2.773   5.256  19.872  0.00  0.00    +0.000 C 
ATOM     18  N   UNL     1       1.689   4.500  19.229  0.00  0.00    +0.000 NA
ATOM     19  C   UNL     1       2.085   3.144  18.836  0.00  0.00    +0.000 C 
ATOM     20  C   UNL     1       3.466   3.102  18.140  0.00  0.00    +0.000 C 
ATOM     21  C   UNL     1       4.514   3.694  19.088  0.00  0.00    +0.000 C 
ATOM     22  H   UNL     1       0.871   4.444  19.884  0.00  0.00    +0.000 HD
ENDBRANCH  13  14
ENDBRANCH   6  13
TORSDOF 3
ENDMDL
MODEL 9
REMARK VINA RESULT:      -7.5      2.764      6.349
REMARK  Name = 
REMARK  3 active torsions:
REMARK  status: ('A' for Active; 'I' for Inactive)
REMARK    1  A    between atoms: C_5  and  C_6
REMARK    2  A    between atoms: C_11  and  O_12
REMARK    3  A    between atoms: O_12  and  C_13
REMARK                            x       y       z     vdW  Elec       q    Type
REMARK                         _______ _______ _______ _____ _____    ______ ____
ROOT
ATOM      1  C   UNL     1       2.173   5.471  20.071  0.00  0.00    +0.000 A 
ATOM      2  C   UNL     1       1.169   4.627  20.620  0.00  0.00    +0.000 A 
ATOM      3  C   UNL     1       1.371   3.264  20.794  0.00  0.00    +0.000 A 
ATOM      4  C   UNL     1       2.571   2.682  20.417  0.00  0.00    +0.000 A 
ATOM      5  C   UNL     1       3.589   3.472  19.890  0.00  0.00    +0.000 A 
ATOM      6  C   UNL     1       3.429   4.859  19.719  0.00  0.00    +0.000 A 
ENDROOT
BRANCH   1  11
ATOM      7  C   UNL     1       0.988   9.034  20.892  0.00  0.00    +0.000 A 
ATOM      8  C   UNL     1       1.200   9.679  19.678  0.00  0.00    +0.000 A 
ATOM      9  N   UNL     1       1.741   8.992  18.642  0.00  0.00    +0.000 NA
ATOM     10  C   UNL     1       2.068   7.675  18.735  0.00  0.00    +0.000 A 
ATOM     11  C   UNL     1       1.854   6.953  19.928  0.00  0.00    +0.000 A 
ATOM     12  C   UNL     1       1.312   7.689  21.017  0.00  0.00    +0.000 A 
ENDBRANCH   1  11
BRANCH   6  13
ATOM     13  O   UNL     1       4.537   5.545  19.335  0.00  0.00    +0.000 OA
BRANCH  13  14
ATOM     14  C   UNL     1       5.064   6.043  18.137  0.00  0.00    +0.000 C 
ATOM     15  C   UNL     1       4.775   5.112  16.923  0.00  0.00    +0.000 C 
ATOM     16  C   UNL     1       6.053   4.235  16.772  0.00  0.00    +0.000 C 
ATOM     17  C   UNL     1       7.031   4.841  15.729  0.00  0.00    +0.000 C 
ATOM     18  N   UNL     1       7.231   6.279  15.958  0.00  0.00    +0.000 NA
ATOM     19  C   UNL     1       7.520   6.605  17.359  0.00  0.00    +0.000 C 
ATOM     20  C   UNL     1       6.587   5.868  18.349  0.00  0.00    +0.000 C 
ATOM     21  C   UNL     1       6.727   4.359  18.129  0.00  0.00    +0.000 C 
ATOM     22  H   UNL     1       8.020   6.618  15.357  0.00  0.00    +0.000 HD
ENDBRANCH  13  14
ENDBRANCH   6  13
TORSDOF 3
ENDMDL
