MODEL 1
REMARK VINA RESULT:      -8.5      0.000      0.000
REMARK  Name = 
REMARK  7 active torsions:
REMARK  status: ('A' for Active; 'I' for Inactive)
REMARK    1  A    between atoms: C_1  and  C_2
REMARK    2  A    between atoms: C_4  and  O_5
REMARK    3  A    between atoms: C_12  and  C_13
REMARK    4  A    between atoms: C_13  and  N_14
REMARK    5  A    between atoms: N_14  and  C_15
REMARK    6  A    between atoms: C_15  and  C_16
REMARK    7  A    between atoms: N_18  and  C_19
REMARK                            x       y       z     vdW  Elec       q    Type
REMARK                         _______ _______ _______ _____ _____    ______ ____
ROOT
ATOM      1  C   UNL     1       1.920   7.351  20.002  0.00  0.00    +0.000 C 
ENDROOT
BRANCH   1  12
ATOM      2  C   UNL     1       3.526   7.494  17.508  0.00  0.00    +0.000 C 
ATOM      3  C   UNL     1       3.776   6.047  17.854  0.00  0.00    +0.000 A 
ATOM      4  C   UNL     1       4.613   5.358  16.939  0.00  0.00    +0.000 A 
ATOM      5  C   UNL     1       4.928   4.020  17.120  0.00  0.00    +0.000 A 
ATOM      6  C   UNL     1       4.428   3.330  18.204  0.00  0.00    +0.000 A 
ATOM      7  C   UNL     1       3.605   4.001  19.111  0.00  0.00    +0.000 A 
ATOM      8  O   UNL     1       3.155   3.193  20.177  0.00  0.00    +0.000 OA
ATOM      9  C   UNL     1       2.327   3.684  21.153  0.00  0.00    +0.000 A 
ATOM     10  O   UNL     1       1.931   2.999  22.097  0.00  0.00    +0.000 OA
ATOM     11  C   UNL     1       1.936   5.089  21.023  0.00  0.00    +0.000 A 
ATOM     12  C   UNL     1       2.352   5.904  20.045  0.00  0.00    +0.000 A 
ATOM     13  C   UNL     1       3.250   5.359  18.982  0.00  0.00    +0.000 A 
BRANCH   5  14
ATOM     14  O   UNL     1       5.727   3.353  16.244  0.00  0.00    +0.000 OA
ATOM     15  H   UNL     1       6.642   3.382  16.566  0.00  0.00    +0.000 HD
ENDBRANCH   5  14
ENDBRANCH   1  12
BRANCH   1  16
ATOM     16  N   UNL     1       1.824   8.029  21.295  0.00  0.00    +0.000 NA
ATOM     17  H   UNL     1       2.265   8.948  21.228  0.00  0.00    +0.000 HD
BRANCH  16  18
ATOM     18  C   UNL     1       0.414   8.241  21.622  0.00  0.00    +0.000 C 
BRANCH  18  19
ATOM     19  C   UNL     1       0.193   9.672  21.933  0.00  0.00    +0.000 A 
ATOM     20  C   UNL     1      -0.842  10.240  22.610  0.00  0.00    +0.000 A 
ATOM     21  N   UNL     1      -0.628  11.587  22.521  0.00  0.00    +0.000 N 
ATOM     22  N   UNL     1       0.482  11.825  21.788  0.00  0.00    +0.000 NA
ATOM     23  N   UNL     1       1.007  10.659  21.443  0.00  0.00    +0.000 NA
BRANCH  21  24
ATOM     24  C   UNL     1      -1.436  12.604  23.048  0.00  0.00    +0.000 A 
ATOM     25  C   UNL     1      -0.906  13.894  23.180  0.00  0.00    +0.000 A 
ATOM     26  C   UNL     1      -1.720  14.929  23.619  0.00  0.00    +0.000 A 
ATOM     27  C   UNL     1      -3.036  14.665  23.975  0.00  0.00    +0.000 A 
ATOM     28 BR   UNL     1      -4.146  16.068  24.574  0.00  0.00    +0.000 Br
ATOM     29  C   UNL     1      -3.558  13.366  23.890  0.00  0.00    +0.000 A 
ATOM     30  C   UNL     1      -2.758  12.334  23.410  0.00  0.00    +0.000 A 
ENDBRANCH  21  24
ENDBRANCH  18  19
ENDBRANCH  16  18
ENDBRANCH   1  16
TORSDOF 6
ENDMDL
MODEL 2
REMARK VINA RESULT:      -8.4      0.805      1.271
REMARK  Name = 
REMARK  7 active torsions:
REMARK  status: ('A' for Active; 'I' for Inactive)
REMARK    1  A    between atoms: C_1  and  C_2
REMARK    2  A    between atoms: C_4  and  O_5
REMARK    3  A    between atoms: C_12  and  C_13
REMARK    4  A    between atoms: C_13  and  N_14
REMARK    5  A    between atoms: N_14  and  C_15
REMARK    6  A    between atoms: C_15  and  C_16
REMARK    7  A    between atoms: N_18  and  C_19
REMARK                            x       y       z     vdW  Elec       q    Type
REMARK                         _______ _______ _______ _____ _____    ______ ____
ROOT
ATOM      1  C   UNL     1       1.357   6.722  20.193  0.00  0.00    +0.000 C 
ENDROOT
BRANCH   1  12
ATOM      2  C   UNL     1       3.117   7.371  17.890  0.00  0.00    +0.000 C 
ATOM      3  C   UNL     1       3.659   6.000  18.208  0.00  0.00    +0.000 A 
ATOM      4  C   UNL     1       4.714   5.572  17.363  0.00  0.00    +0.000 A 
ATOM      5  C   UNL     1       5.310   4.331  17.527  0.00  0.00    +0.000 A 
ATOM      6  C   UNL     1       4.882   3.483  18.526  0.00  0.00    +0.000 A 
ATOM      7  C   UNL     1       3.844   3.897  19.365  0.00  0.00    +0.000 A 
ATOM      8  O   UNL     1       3.493   2.946  20.347  0.00  0.00    +0.000 OA
ATOM      9  C   UNL     1       2.486   3.179  21.247  0.00  0.00    +0.000 A 
ATOM     10  O   UNL     1       2.170   2.367  22.118  0.00  0.00    +0.000 OA
ATOM     11  C   UNL     1       1.797   4.465  21.127  0.00  0.00    +0.000 A 
ATOM     12  C   UNL     1       2.104   5.410  20.230  0.00  0.00    +0.000 A 
ATOM     13  C   UNL     1       3.201   5.146  19.248  0.00  0.00    +0.000 A 
BRANCH   5  14
ATOM     14  O   UNL     1       6.321   3.915  16.717  0.00  0.00    +0.000 OA
ATOM     15  H   UNL     1       6.960   4.638  16.612  0.00  0.00    +0.000 HD
ENDBRANCH   5  14
ENDBRANCH   1  12
BRANCH   1  16
ATOM     16  N   UNL     1       1.812   7.744  21.137  0.00  0.00    +0.000 NA
ATOM     17  H   UNL     1       2.829   7.710  21.208  0.00  0.00    +0.000 HD
BRANCH  16  18
ATOM     18  C   UNL     1       1.451   9.065  20.621  0.00  0.00    +0.000 C 
BRANCH  18  19
ATOM     19  C   UNL     1       0.594   9.759  21.610  0.00  0.00    +0.000 A 
ATOM     20  C   UNL     1      -0.145  10.890  21.442  0.00  0.00    +0.000 A 
ATOM     21  N   UNL     1      -0.651  11.170  22.680  0.00  0.00    +0.000 N 
ATOM     22  N   UNL     1      -0.207  10.257  23.572  0.00  0.00    +0.000 NA
ATOM     23  N   UNL     1       0.537   9.373  22.923  0.00  0.00    +0.000 NA
BRANCH  21  24
ATOM     24  C   UNL     1      -1.466  12.255  23.030  0.00  0.00    +0.000 A 
ATOM     25  C   UNL     1      -2.786  12.012  23.432  0.00  0.00    +0.000 A 
ATOM     26  C   UNL     1      -3.577  13.068  23.863  0.00  0.00    +0.000 A 
ATOM     27  C   UNL     1      -3.071  14.361  23.840  0.00  0.00    +0.000 A 
ATOM     28 BR   UNL     1      -4.145  15.798  24.424  0.00  0.00    +0.000 Br
ATOM     29  C   UNL     1      -1.767  14.615  23.393  0.00  0.00    +0.000 A 
ATOM     30  C   UNL     1      -0.956  13.556  23.000  0.00  0.00    +0.000 A 
ENDBRANCH  21  24
ENDBRANCH  18  19
ENDBRANCH  16  18
ENDBRANCH   1  16
TORSDOF 6
ENDMDL
MODEL 3
REMARK VINA RESULT:      -8.3      3.174      4.637
REMARK  Name = 
REMARK  7 active torsions:
REMARK  status: ('A' for Active; 'I' for Inactive)
REMARK    1  A    between atoms: C_1  and  C_2
REMARK    2  A    between atoms: C_4  and  O_5
REMARK    3  A    between atoms: C_12  and  C_13
REMARK    4  A    between atoms: C_13  and  N_14
REMARK    5  A    between atoms: N_14  and  C_15
REMARK    6  A    between atoms: C_15  and  C_16
REMARK    7  A    between atoms: N_18  and  C_19
REMARK                            x       y       z     vdW  Elec       q    Type
REMARK                         _______ _______ _______ _____ _____    ______ ____
ROOT
ATOM      1  C   UNL     1       4.815   5.075  19.306  0.00  0.00    +0.000 C 
ENDROOT
BRANCH   1  12
ATOM      2  C   UNL     1       4.048   3.069  17.254  0.00  0.00    +0.000 C 
ATOM      3  C   UNL     1       5.095   3.812  16.462  0.00  0.00    +0.000 A 
ATOM      4  C   UNL     1       5.302   3.319  15.149  0.00  0.00    +0.000 A 
ATOM      5  C   UNL     1       6.238   3.894  14.303  0.00  0.00    +0.000 A 
ATOM      6  C   UNL     1       6.990   4.968  14.729  0.00  0.00    +0.000 A 
ATOM      7  C   UNL     1       6.792   5.462  16.020  0.00  0.00    +0.000 A 
ATOM      8  O   UNL     1       7.618   6.560  16.343  0.00  0.00    +0.000 OA
ATOM      9  C   UNL     1       7.567   7.162  17.573  0.00  0.00    +0.000 A 
ATOM     10  O   UNL     1       8.273   8.127  17.871  0.00  0.00    +0.000 OA
ATOM     11  C   UNL     1       6.612   6.600  18.529  0.00  0.00    +0.000 A 
ATOM     12  C   UNL     1       5.790   5.576  18.267  0.00  0.00    +0.000 A 
ATOM     13  C   UNL     1       5.856   4.920  16.925  0.00  0.00    +0.000 A 
BRANCH   5  14
ATOM     14  O   UNL     1       6.442   3.422  13.043  0.00  0.00    +0.000 OA
ATOM     15  H   UNL     1       7.215   2.835  13.047  0.00  0.00    +0.000 HD
ENDBRANCH   5  14
ENDBRANCH   1  12
BRANCH   1  16
ATOM     16  N   UNL     1       3.749   6.003  19.684  0.00  0.00    +0.000 NA
ATOM     17  H   UNL     1       4.159   6.831  20.119  0.00  0.00    +0.000 HD
BRANCH  16  18
ATOM     18  C   UNL     1       3.048   6.444  18.477  0.00  0.00    +0.000 C 
BRANCH  18  19
ATOM     19  C   UNL     1       2.325   7.704  18.763  0.00  0.00    +0.000 A 
ATOM     20  C   UNL     1       1.651   8.053  19.894  0.00  0.00    +0.000 A 
ATOM     21  N   UNL     1       1.073   9.258  19.604  0.00  0.00    +0.000 N 
ATOM     22  N   UNL     1       1.363   9.609  18.332  0.00  0.00    +0.000 NA
ATOM     23  N   UNL     1       2.150   8.676  17.814  0.00  0.00    +0.000 NA
BRANCH  21  24
ATOM     24  C   UNL     1       0.256  10.023  20.447  0.00  0.00    +0.000 A 
ATOM     25  C   UNL     1       0.129   9.652  21.792  0.00  0.00    +0.000 A 
ATOM     26  C   UNL     1      -0.608  10.449  22.657  0.00  0.00    +0.000 A 
ATOM     27  C   UNL     1      -1.256  11.577  22.169  0.00  0.00    +0.000 A 
ATOM     28 BR   UNL     1      -2.259  12.662  23.342  0.00  0.00    +0.000 Br
ATOM     29  C   UNL     1      -1.172  11.926  20.814  0.00  0.00    +0.000 A 
ATOM     30  C   UNL     1      -0.400  11.154  19.952  0.00  0.00    +0.000 A 
ENDBRANCH  21  24
ENDBRANCH  18  19
ENDBRANCH  16  18
ENDBRANCH   1  16
TORSDOF 6
ENDMDL
MODEL 4
REMARK VINA RESULT:      -8.2      3.188      3.731
REMARK  Name = 
REMARK  7 active torsions:
REMARK  status: ('A' for Active; 'I' for Inactive)
REMARK    1  A    between atoms: C_1  and  C_2
REMARK    2  A    between atoms: C_4  and  O_5
REMARK    3  A    between atoms: C_12  and  C_13
REMARK    4  A    between atoms: C_13  and  N_14
REMARK    5  A    between atoms: N_14  and  C_15
REMARK    6  A    between atoms: C_15  and  C_16
REMARK    7  A    between atoms: N_18  and  C_19
REMARK                            x       y       z     vdW  Elec       q    Type
REMARK                         _______ _______ _______ _____ _____    ______ ____
ROOT
ATOM      1  C   UNL     1       1.845   7.330  20.103  0.00  0.00    +0.000 C 
ENDROOT
BRANCH   1  12
ATOM      2  C   UNL     1       3.442   7.532  17.607  0.00  0.00    +0.000 C 
ATOM      3  C   UNL     1       3.694   6.078  17.918  0.00  0.00    +0.000 A 
ATOM      4  C   UNL     1       4.527   5.410  16.984  0.00  0.00    +0.000 A 
ATOM      5  C   UNL     1       4.842   4.068  17.132  0.00  0.00    +0.000 A 
ATOM      6  C   UNL     1       4.346   3.352  18.200  0.00  0.00    +0.000 A 
ATOM      7  C   UNL     1       3.526   4.003  19.126  0.00  0.00    +0.000 A 
ATOM      8  O   UNL     1       3.079   3.169  20.175  0.00  0.00    +0.000 OA
ATOM      9  C   UNL     1       2.255   3.636  21.165  0.00  0.00    +0.000 A 
ATOM     10  O   UNL     1       1.862   2.929  22.093  0.00  0.00    +0.000 OA
ATOM     11  C   UNL     1       1.864   5.044  21.069  0.00  0.00    +0.000 A 
ATOM     12  C   UNL     1       2.277   5.883  20.110  0.00  0.00    +0.000 A 
ATOM     13  C   UNL     1       3.171   5.363  19.031  0.00  0.00    +0.000 A 
BRANCH   5  14
ATOM     14  O   UNL     1       5.638   3.422  16.237  0.00  0.00    +0.000 OA
ATOM     15  H   UNL     1       6.161   4.078  15.748  0.00  0.00    +0.000 HD
ENDBRANCH   5  14
ENDBRANCH   1  12
BRANCH   1  16
ATOM     16  N   UNL     1       1.625   7.938  21.415  0.00  0.00    +0.000 NA
ATOM     17  H   UNL     1       2.316   8.674  21.568  0.00  0.00    +0.000 HD
BRANCH  16  18
ATOM     18  C   UNL     1       0.303   8.567  21.436  0.00  0.00    +0.000 C 
BRANCH  18  19
ATOM     19  C   UNL     1       0.290   9.710  20.494  0.00  0.00    +0.000 A 
ATOM     20  C   UNL     1       1.145  10.767  20.436  0.00  0.00    +0.000 A 
ATOM     21  N   UNL     1       0.629  11.587  19.472  0.00  0.00    +0.000 N 
ATOM     22  N   UNL     1      -0.515  11.058  18.986  0.00  0.00    +0.000 NA
ATOM     23  N   UNL     1      -0.720   9.895  19.587  0.00  0.00    +0.000 NA
BRANCH  21  24
ATOM     24  C   UNL     1       1.145  12.822  19.054  0.00  0.00    +0.000 A 
ATOM     25  C   UNL     1       0.421  13.990  19.327  0.00  0.00    +0.000 A 
ATOM     26  C   UNL     1       0.960  15.225  18.995  0.00  0.00    +0.000 A 
ATOM     27  C   UNL     1       2.187  15.288  18.348  0.00  0.00    +0.000 A 
ATOM     28 BR   UNL     1       2.923  16.966  17.895  0.00  0.00    +0.000 Br
ATOM     29  C   UNL     1       2.894  14.120  18.029  0.00  0.00    +0.000 A 
ATOM     30  C   UNL     1       2.377  12.882  18.397  0.00  0.00    +0.000 A 
ENDBRANCH  21  24
ENDBRANCH  18  19
ENDBRANCH  16  18
ENDBRANCH   1  16
TORSDOF 6
ENDMDL
MODEL 5
REMARK VINA RESULT:      -8.2      3.060      4.497
REMARK  Name = 
REMARK  7 active torsions:
REMARK  status: ('A' for Active; 'I' for Inactive)
REMARK    1  A    between atoms: C_1  and  C_2
REMARK    2  A    between atoms: C_4  and  O_5
REMARK    3  A    between atoms: C_12  and  C_13
REMARK    4  A    between atoms: C_13  and  N_14
REMARK    5  A    between atoms: N_14  and  C_15
REMARK    6  A    between atoms: C_15  and  C_16
REMARK    7  A    between atoms: N_18  and  C_19
REMARK                            x       y       z     vdW  Elec       q    Type
REMARK                         _______ _______ _______ _____ _____    ______ ____
ROOT
ATOM      1  C   UNL     1       4.768   4.577  19.267  0.00  0.00    +0.000 C 
ENDROOT
BRANCH   1  12
ATOM      2  C   UNL     1       3.991   2.949  16.907  0.00  0.00    +0.000 C 
ATOM      3  C   UNL     1       5.085   3.767  16.266  0.00  0.00    +0.000 A 
ATOM      4  C   UNL     1       5.312   3.478  14.896  0.00  0.00    +0.000 A 
ATOM      5  C   UNL     1       6.290   4.143  14.173  0.00  0.00    +0.000 A 
ATOM      6  C   UNL     1       7.066   5.107  14.780  0.00  0.00    +0.000 A 
ATOM      7  C   UNL     1       6.848   5.399  16.128  0.00  0.00    +0.000 A 
ATOM      8  O   UNL     1       7.703   6.401  16.639  0.00  0.00    +0.000 OA
ATOM      9  C   UNL     1       7.638   6.804  17.947  0.00  0.00    +0.000 A 
ATOM     10  O   UNL     1       8.367   7.682  18.410  0.00  0.00    +0.000 OA
ATOM     11  C   UNL     1       6.637   6.135  18.781  0.00  0.00    +0.000 A 
ATOM     12  C   UNL     1       5.789   5.197  18.342  0.00  0.00    +0.000 A 
ATOM     13  C   UNL     1       5.870   4.758  16.915  0.00  0.00    +0.000 A 
BRANCH   5  14
ATOM     14  O   UNL     1       6.513   3.868  12.859  0.00  0.00    +0.000 OA
ATOM     15  H   UNL     1       7.064   4.570  12.478  0.00  0.00    +0.000 HD
ENDBRANCH   5  14
ENDBRANCH   1  12
BRANCH   1  16
ATOM     16  N   UNL     1       4.069   5.500  20.160  0.00  0.00    +0.000 NA
ATOM     17  H   UNL     1       4.428   6.446  20.019  0.00  0.00    +0.000 HD
BRANCH  16  18
ATOM     18  C   UNL     1       2.646   5.515  19.815  0.00  0.00    +0.000 C 
BRANCH  18  19
ATOM     19  C   UNL     1       2.130   6.899  19.927  0.00  0.00    +0.000 A 
ATOM     20  C   UNL     1       1.365   7.439  20.914  0.00  0.00    +0.000 A 
ATOM     21  N   UNL     1       1.070   8.702  20.484  0.00  0.00    +0.000 N 
ATOM     22  N   UNL     1       1.612   8.907  19.264  0.00  0.00    +0.000 NA
ATOM     23  N   UNL     1       2.285   7.817  18.922  0.00  0.00    +0.000 NA
BRANCH  21  24
ATOM     24  C   UNL     1       0.286   9.655  21.148  0.00  0.00    +0.000 A 
ATOM     25  C   UNL     1      -0.153  10.785  20.445  0.00  0.00    +0.000 A 
ATOM     26  C   UNL     1      -1.000  11.693  21.065  0.00  0.00    +0.000 A 
ATOM     27  C   UNL     1      -1.361  11.501  22.392  0.00  0.00    +0.000 A 
ATOM     28 BR   UNL     1      -2.511  12.734  23.238  0.00  0.00    +0.000 Br
ATOM     29  C   UNL     1      -0.886  10.398  23.115  0.00  0.00    +0.000 A 
ATOM     30  C   UNL     1      -0.071   9.463  22.485  0.00  0.00    +0.000 A 
ENDBRANCH  21  24
ENDBRANCH  18  19
ENDBRANCH  16  18
ENDBRANCH   1  16
TORSDOF 6
ENDMDL
MODEL 6
REMARK VINA RESULT:      -8.1      1.108      1.153
REMARK  Name = 
REMARK  7 active torsions:
REMARK  status: ('A' for Active; 'I' for Inactive)
REMARK    1  A    between atoms: C_1  and  C_2
REMARK    2  A    between atoms: C_4  and  O_5
REMARK    3  A    between atoms: C_12  and  C_13
REMARK    4  A    between atoms: C_13  and  N_14
REMARK    5  A    between atoms: N_14  and  C_15
REMARK    6  A    between atoms: C_15  and  C_16
REMARK    7  A    between atoms: N_18  and  C_19
REMARK                            x       y       z     vdW  Elec       q    Type
REMARK                         _______ _______ _______ _____ _____    ______ ____
ROOT
ATOM      1  C   UNL     1       1.377   6.817  20.201  0.00  0.00    +0.000 C 
ENDROOT
BRANCH   1  12
ATOM      2  C   UNL     1       3.142   7.418  17.889  0.00  0.00    +0.000 C 
ATOM      3  C   UNL     1       3.647   6.031  18.204  0.00  0.00    +0.000 A 
ATOM      4  C   UNL     1       4.685   5.575  17.352  0.00  0.00    +0.000 A 
ATOM      5  C   UNL     1       5.246   4.317  17.513  0.00  0.00    +0.000 A 
ATOM      6  C   UNL     1       4.799   3.480  18.513  0.00  0.00    +0.000 A 
ATOM      7  C   UNL     1       3.778   3.923  19.358  0.00  0.00    +0.000 A 
ATOM      8  O   UNL     1       3.405   2.982  20.341  0.00  0.00    +0.000 OA
ATOM      9  C   UNL     1       2.409   3.243  21.247  0.00  0.00    +0.000 A 
ATOM     10  O   UNL     1       2.075   2.439  22.118  0.00  0.00    +0.000 OA
ATOM     11  C   UNL     1       1.756   4.548  21.131  0.00  0.00    +0.000 A 
ATOM     12  C   UNL     1       2.086   5.485  20.233  0.00  0.00    +0.000 A 
ATOM     13  C   UNL     1       3.169   5.190  19.245  0.00  0.00    +0.000 A 
BRANCH   5  14
ATOM     14  O   UNL     1       6.240   3.873  16.697  0.00  0.00    +0.000 OA
ATOM     15  H   UNL     1       6.625   3.067  17.077  0.00  0.00    +0.000 HD
ENDBRANCH   5  14
ENDBRANCH   1  12
BRANCH   1  16
ATOM     16  N   UNL     1       1.795   7.789  21.211  0.00  0.00    +0.000 NA
ATOM     17  H   UNL     1       2.800   7.702  21.370  0.00  0.00    +0.000 HD
BRANCH  16  18
ATOM     18  C   UNL     1       1.547   9.141  20.706  0.00  0.00    +0.000 C 
BRANCH  18  19
ATOM     19  C   UNL     1       0.553   9.812  21.576  0.00  0.00    +0.000 A 
ATOM     20  C   UNL     1      -0.366  10.757  21.236  0.00  0.00    +0.000 A 
ATOM     21  N   UNL     1      -0.949  11.125  22.416  0.00  0.00    +0.000 N 
ATOM     22  N   UNL     1      -0.379  10.449  23.437  0.00  0.00    +0.000 NA
ATOM     23  N   UNL     1       0.526   9.623  22.932  0.00  0.00    +0.000 NA
BRANCH  21  24
ATOM     24  C   UNL     1      -1.951  12.090  22.595  0.00  0.00    +0.000 A 
ATOM     25  C   UNL     1      -2.005  13.184  21.722  0.00  0.00    +0.000 A 
ATOM     26  C   UNL     1      -3.042  14.100  21.834  0.00  0.00    +0.000 A 
ATOM     27  C   UNL     1      -3.984  13.952  22.843  0.00  0.00    +0.000 A 
ATOM     28 BR   UNL     1      -5.394  15.196  22.999  0.00  0.00    +0.000 Br
ATOM     29  C   UNL     1      -3.906  12.886  23.750  0.00  0.00    +0.000 A 
ATOM     30  C   UNL     1      -2.893  11.942  23.615  0.00  0.00    +0.000 A 
ENDBRANCH  21  24
ENDBRANCH  18  19
ENDBRANCH  16  18
ENDBRANCH   1  16
TORSDOF 6
ENDMDL
MODEL 7
REMARK VINA RESULT:      -8.1      2.919      3.292
REMARK  Name = 
REMARK  7 active torsions:
REMARK  status: ('A' for Active; 'I' for Inactive)
REMARK    1  A    between atoms: C_1  and  C_2
REMARK    2  A    between atoms: C_4  and  O_5
REMARK    3  A    between atoms: C_12  and  C_13
REMARK    4  A    between atoms: C_13  and  N_14
REMARK    5  A    between atoms: N_14  and  C_15
REMARK    6  A    between atoms: C_15  and  C_16
REMARK    7  A    between atoms: N_18  and  C_19
REMARK                            x       y       z     vdW  Elec       q    Type
REMARK                         _______ _______ _______ _____ _____    ______ ____
ROOT
ATOM      1  C   UNL     1       1.927   7.285  20.043  0.00  0.00    +0.000 C 
ENDROOT
BRANCH   1  12
ATOM      2  C   UNL     1       3.534   7.470  17.552  0.00  0.00    +0.000 C 
ATOM      3  C   UNL     1       3.765   6.012  17.861  0.00  0.00    +0.000 A 
ATOM      4  C   UNL     1       4.591   5.335  16.928  0.00  0.00    +0.000 A 
ATOM      5  C   UNL     1       4.888   3.989  17.074  0.00  0.00    +0.000 A 
ATOM      6  C   UNL     1       4.380   3.278  18.140  0.00  0.00    +0.000 A 
ATOM      7  C   UNL     1       3.566   3.937  19.065  0.00  0.00    +0.000 A 
ATOM      8  O   UNL     1       3.106   3.108  20.111  0.00  0.00    +0.000 OA
ATOM      9  C   UNL     1       2.285   3.585  21.099  0.00  0.00    +0.000 A 
ATOM     10  O   UNL     1       1.880   2.881  22.025  0.00  0.00    +0.000 OA
ATOM     11  C   UNL     1       1.914   4.998  21.006  0.00  0.00    +0.000 A 
ATOM     12  C   UNL     1       2.340   5.832  20.049  0.00  0.00    +0.000 A 
ATOM     13  C   UNL     1       3.230   5.303  18.971  0.00  0.00    +0.000 A 
BRANCH   5  14
ATOM     14  O   UNL     1       5.678   3.334  16.180  0.00  0.00    +0.000 OA
ATOM     15  H   UNL     1       6.206   3.984  15.689  0.00  0.00    +0.000 HD
ENDBRANCH   5  14
ENDBRANCH   1  12
BRANCH   1  16
ATOM     16  N   UNL     1       1.308   7.779  21.273  0.00  0.00    +0.000 NA
ATOM     17  H   UNL     1       1.700   7.282  22.074  0.00  0.00    +0.000 HD
BRANCH  16  18
ATOM     18  C   UNL     1       1.631   9.198  21.435  0.00  0.00    +0.000 C 
BRANCH  18  19
ATOM     19  C   UNL     1       0.751  10.003  20.558  0.00  0.00    +0.000 A 
ATOM     20  C   UNL     1      -0.609  10.052  20.540  0.00  0.00    +0.000 A 
ATOM     21  N   UNL     1      -0.921  10.852  19.476  0.00  0.00    +0.000 N 
ATOM     22  N   UNL     1       0.211  11.248  18.855  0.00  0.00    +0.000 NA
ATOM     23  N   UNL     1       1.244  10.754  19.523  0.00  0.00    +0.000 NA
BRANCH  21  24
ATOM     24  C   UNL     1      -2.205  11.195  19.030  0.00  0.00    +0.000 A 
ATOM     25  C   UNL     1      -2.724  10.557  17.896  0.00  0.00    +0.000 A 
ATOM     26  C   UNL     1      -4.026  10.825  17.494  0.00  0.00    +0.000 A 
ATOM     27  C   UNL     1      -4.781  11.762  18.187  0.00  0.00    +0.000 A 
ATOM     28 BR   UNL     1      -6.550  12.129  17.643  0.00  0.00    +0.000 Br
ATOM     29  C   UNL     1      -4.249  12.440  19.293  0.00  0.00    +0.000 A 
ATOM     30  C   UNL     1      -2.960  12.143  19.726  0.00  0.00    +0.000 A 
ENDBRANCH  21  24
ENDBRANCH  18  19
ENDBRANCH  16  18
ENDBRANCH   1  16
TORSDOF 6
ENDMDL
MODEL 8
REMARK VINA RESULT:      -8.1      3.502      4.624
REMARK  Name = 
REMARK  7 active torsions:
REMARK  status: ('A' for Active; 'I' for Inactive)
REMARK    1  A    between atoms: C_1  and  C_2
REMARK    2  A    between atoms: C_4  and  O_5
REMARK    3  A    between atoms: C_12  and  C_13
REMARK    4  A    between atoms: C_13  and  N_14
REMARK    5  A    between atoms: N_14  and  C_15
REMARK    6  A    between atoms: C_15  and  C_16
REMARK    7  A    between atoms: N_18  and  C_19
REMARK                            x       y       z     vdW  Elec       q    Type
REMARK                         _______ _______ _______ _____ _____    ______ ____
ROOT
ATOM      1  C   UNL     1       2.519   7.491  18.753  0.00  0.00    +0.000 C 
ENDROOT
BRANCH   1  12
ATOM      2  C   UNL     1       1.474   5.086  20.147  0.00  0.00    +0.000 C 
ATOM      3  C   UNL     1       2.424   4.400  19.197  0.00  0.00    +0.000 A 
ATOM      4  C   UNL     1       2.458   2.988  19.314  0.00  0.00    +0.000 A 
ATOM      5  C   UNL     1       3.288   2.219  18.513  0.00  0.00    +0.000 A 
ATOM      6  C   UNL     1       4.103   2.822  17.578  0.00  0.00    +0.000 A 
ATOM      7  C   UNL     1       4.074   4.213  17.455  0.00  0.00    +0.000 A 
ATOM      8  O   UNL     1       4.949   4.715  16.467  0.00  0.00    +0.000 OA
ATOM      9  C   UNL     1       5.061   6.058  16.220  0.00  0.00    +0.000 A 
ATOM     10  O   UNL     1       5.811   6.516  15.357  0.00  0.00    +0.000 OA
ATOM     11  C   UNL     1       4.225   6.938  17.039  0.00  0.00    +0.000 A 
ATOM     12  C   UNL     1       3.363   6.514  17.971  0.00  0.00    +0.000 A 
ATOM     13  C   UNL     1       3.252   5.047  18.239  0.00  0.00    +0.000 A 
BRANCH   5  14
ATOM     14  O   UNL     1       3.327   0.863  18.623  0.00  0.00    +0.000 OA
ATOM     15  H   UNL     1       3.916   0.507  17.939  0.00  0.00    +0.000 HD
ENDBRANCH   5  14
ENDBRANCH   1  12
BRANCH   1  16
ATOM     16  N   UNL     1       1.658   8.370  17.961  0.00  0.00    +0.000 NA
ATOM     17  H   UNL     1       0.687   8.246  18.252  0.00  0.00    +0.000 HD
BRANCH  16  18
ATOM     18  C   UNL     1       2.021   9.763  18.227  0.00  0.00    +0.000 C 
BRANCH  18  19
ATOM     19  C   UNL     1       0.797  10.535  18.544  0.00  0.00    +0.000 A 
ATOM     20  C   UNL     1      -0.489  10.260  18.195  0.00  0.00    +0.000 A 
ATOM     21  N   UNL     1      -1.212  11.336  18.630  0.00  0.00    +0.000 N 
ATOM     22  N   UNL     1      -0.386  12.243  19.193  0.00  0.00    +0.000 NA
ATOM     23  N   UNL     1       0.846  11.753  19.168  0.00  0.00    +0.000 NA
BRANCH  21  24
ATOM     24  C   UNL     1      -2.593  11.534  18.490  0.00  0.00    +0.000 A 
ATOM     25  C   UNL     1      -3.303  12.139  19.535  0.00  0.00    +0.000 A 
ATOM     26  C   UNL     1      -4.653  12.419  19.375  0.00  0.00    +0.000 A 
ATOM     27  C   UNL     1      -5.298  12.048  18.202  0.00  0.00    +0.000 A 
ATOM     28 BR   UNL     1      -7.133  12.426  17.981  0.00  0.00    +0.000 Br
ATOM     29  C   UNL     1      -4.603  11.398  17.172  0.00  0.00    +0.000 A 
ATOM     30  C   UNL     1      -3.240  11.154  17.311  0.00  0.00    +0.000 A 
ENDBRANCH  21  24
ENDBRANCH  18  19
ENDBRANCH  16  18
ENDBRANCH   1  16
TORSDOF 6
ENDMDL
MODEL 9
REMARK VINA RESULT:      -8.1      3.344      4.473
REMARK  Name = 
REMARK  7 active torsions:
REMARK  status: ('A' for Active; 'I' for Inactive)
REMARK    1  A    between atoms: C_1  and  C_2
REMARK    2  A    between atoms: C_4  and  O_5
REMARK    3  A    between atoms: C_12  and  C_13
REMARK    4  A    between atoms: C_13  and  N_14
REMARK    5  A    between atoms: N_14  and  C_15
REMARK    6  A    between atoms: C_15  and  C_16
REMARK    7  A    between atoms: N_18  and  C_19
REMARK                            x       y       z     vdW  Elec       q    Type
REMARK                         _______ _______ _______ _____ _____    ______ ____
ROOT
ATOM      1  C   UNL     1       1.528   6.479  20.451  0.00  0.00    +0.000 C 
ENDROOT
BRANCH   1  12
ATOM      2  C   UNL     1       1.339   3.592  21.124  0.00  0.00    +0.000 C 
ATOM      3  C   UNL     1       2.279   3.488  19.949  0.00  0.00    +0.000 A 
ATOM      4  C   UNL     1       2.685   2.167  19.633  0.00  0.00    +0.000 A 
ATOM      5  C   UNL     1       3.554   1.912  18.583  0.00  0.00    +0.000 A 
ATOM      6  C   UNL     1       4.044   2.951  17.821  0.00  0.00    +0.000 A 
ATOM      7  C   UNL     1       3.648   4.256  18.124  0.00  0.00    +0.000 A 
ATOM      8  O   UNL     1       4.214   5.234  17.277  0.00  0.00    +0.000 OA
ATOM      9  C   UNL     1       3.947   6.568  17.438  0.00  0.00    +0.000 A 
ATOM     10  O   UNL     1       4.422   7.436  16.705  0.00  0.00    +0.000 OA
ATOM     11  C   UNL     1       3.046   6.919  18.539  0.00  0.00    +0.000 A 
ATOM     12  C   UNL     1       2.466   6.031  19.356  0.00  0.00    +0.000 A 
ATOM     13  C   UNL     1       2.768   4.577  19.177  0.00  0.00    +0.000 A 
BRANCH   5  14
ATOM     14  O   UNL     1       3.949   0.646  18.278  0.00  0.00    +0.000 OA
ATOM     15  H   UNL     1       4.880   0.536  18.529  0.00  0.00    +0.000 HD
ENDBRANCH   5  14
ENDBRANCH   1  12
BRANCH   1  16
ATOM     16  N   UNL     1       1.773   7.814  20.997  0.00  0.00    +0.000 NA
ATOM     17  H   UNL     1       2.175   8.409  20.271  0.00  0.00    +0.000 HD
BRANCH  16  18
ATOM     18  C   UNL     1       0.496   8.410  21.396  0.00  0.00    +0.000 C 
BRANCH  18  19
ATOM     19  C   UNL     1       0.561   9.877  21.207  0.00  0.00    +0.000 A 
ATOM     20  C   UNL     1       1.069  10.572  20.152  0.00  0.00    +0.000 A 
ATOM     21  N   UNL     1       0.992  11.885  20.522  0.00  0.00    +0.000 N 
ATOM     22  N   UNL     1       0.484  11.979  21.770  0.00  0.00    +0.000 NA
ATOM     23  N   UNL     1       0.193  10.756  22.191  0.00  0.00    +0.000 NA
BRANCH  21  24
ATOM     24  C   UNL     1       1.411  12.996  19.776  0.00  0.00    +0.000 A 
ATOM     25  C   UNL     1       0.868  14.254  20.066  0.00  0.00    +0.000 A 
ATOM     26  C   UNL     1       1.336  15.375  19.394  0.00  0.00    +0.000 A 
ATOM     27  C   UNL     1       2.298  15.230  18.403  0.00  0.00    +0.000 A 
ATOM     28 BR   UNL     1       2.936  16.751  17.487  0.00  0.00    +0.000 Br
ATOM     29  C   UNL     1       2.810  13.967  18.075  0.00  0.00    +0.000 A 
ATOM     30  C   UNL     1       2.375  12.847  18.776  0.00  0.00    +0.000 A 
ENDBRANCH  21  24
ENDBRANCH  18  19
ENDBRANCH  16  18
ENDBRANCH   1  16
TORSDOF 6
ENDMDL
