MODEL 1
REMARK VINA RESULT:      -7.7      0.000      0.000
REMARK  Name = 
REMARK  3 active torsions:
REMARK  status: ('A' for Active; 'I' for Inactive)
REMARK    1  A    between atoms: C_2  and  C_3
REMARK    2  A    between atoms: C_11  and  C_12
REMARK    3  A    between atoms: C_12  and  C_14
REMARK                            x       y       z     vdW  Elec       q    Type
REMARK                         _______ _______ _______ _____ _____    ______ ____
ROOT
ATOM      1  C   UNL     1       5.695   6.583  17.346  0.00  0.00    +0.000 A 
ATOM      2  C   UNL     1       4.434   6.862  17.919  0.00  0.00    +0.000 A 
ATOM      3  C   UNL     1       3.653   5.747  17.742  0.00  0.00    +0.000 A 
ATOM      4  C   UNL     1       2.305   5.443  18.091  0.00  0.00    +0.000 A 
ATOM      5  C   UNL     1       1.805   4.223  17.819  0.00  0.00    +0.000 A 
ATOM      6  C   UNL     1       2.622   3.195  17.207  0.00  0.00    +0.000 A 
ATOM      7  C   UNL     1       3.897   3.475  16.888  0.00  0.00    +0.000 A 
ATOM      8  N   UNL     1       4.414   4.758  17.113  0.00  0.00    +0.000 N 
ATOM      9  C   UNL     1       5.665   5.297  16.804  0.00  0.00    +0.000 A 
ENDROOT
BRANCH   1  11
ATOM     10  N   UNL     1       7.720   8.202  17.223  0.00  0.00    +0.000 NA
ATOM     11  C   UNL     1       6.795   7.503  17.297  0.00  0.00    +0.000 C 
ENDBRANCH   1  11
BRANCH   9  12
ATOM     12  C   UNL     1       6.773   4.650  16.122  0.00  0.00    +0.000 C 
ATOM     13  O   UNL     1       7.728   4.192  16.749  0.00  0.00    +0.000 OA
BRANCH  12  14
ATOM     14  C   UNL     1       6.847   4.550  14.636  0.00  0.00    +0.000 A 
ATOM     15  C   UNL     1       6.037   3.601  13.994  0.00  0.00    +0.000 A 
ATOM     16  C   UNL     1       6.098   3.439  12.610  0.00  0.00    +0.000 A 
ATOM     17  C   UNL     1       6.962   4.232  11.855  0.00  0.00    +0.000 A 
ATOM     18  C   UNL     1       7.772   5.177  12.485  0.00  0.00    +0.000 A 
ATOM     19  C   UNL     1       7.730   5.326  13.874  0.00  0.00    +0.000 A 
ENDBRANCH  12  14
ENDBRANCH   9  12
TORSDOF 3
ENDMDL
MODEL 2
REMARK VINA RESULT:      -7.7      0.103      1.113
REMARK  Name = 
REMARK  3 active torsions:
REMARK  status: ('A' for Active; 'I' for Inactive)
REMARK    1  A    between atoms: C_2  and  C_3
REMARK    2  A    between atoms: C_11  and  C_12
REMARK    3  A    between atoms: C_12  and  C_14
REMARK                            x       y       z     vdW  Elec       q    Type
REMARK                         _______ _______ _______ _____ _____    ______ ____
ROOT
ATOM      1  C   UNL     1       5.642   6.513  17.361  0.00  0.00    +0.000 A 
ATOM      2  C   UNL     1       4.375   6.772  17.931  0.00  0.00    +0.000 A 
ATOM      3  C   UNL     1       3.615   5.641  17.757  0.00  0.00    +0.000 A 
ATOM      4  C   UNL     1       2.272   5.314  18.104  0.00  0.00    +0.000 A 
ATOM      5  C   UNL     1       1.795   4.084  17.838  0.00  0.00    +0.000 A 
ATOM      6  C   UNL     1       2.633   3.068  17.231  0.00  0.00    +0.000 A 
ATOM      7  C   UNL     1       3.903   3.371  16.914  0.00  0.00    +0.000 A 
ATOM      8  N   UNL     1       4.396   4.664  17.134  0.00  0.00    +0.000 N 
ATOM      9  C   UNL     1       5.637   5.225  16.826  0.00  0.00    +0.000 A 
ENDROOT
BRANCH   1  11
ATOM     10  N   UNL     1       7.613   8.202  17.334  0.00  0.00    +0.000 NA
ATOM     11  C   UNL     1       6.725   7.453  17.310  0.00  0.00    +0.000 C 
ENDBRANCH   1  11
BRANCH   9  12
ATOM     12  C   UNL     1       6.759   4.594  16.149  0.00  0.00    +0.000 C 
ATOM     13  O   UNL     1       7.742   4.202  16.776  0.00  0.00    +0.000 OA
BRANCH  12  14
ATOM     14  C   UNL     1       6.811   4.436  14.668  0.00  0.00    +0.000 A 
ATOM     15  C   UNL     1       7.711   5.236  13.947  0.00  0.00    +0.000 A 
ATOM     16  C   UNL     1       7.771   5.157  12.555  0.00  0.00    +0.000 A 
ATOM     17  C   UNL     1       6.937   4.272  11.874  0.00  0.00    +0.000 A 
ATOM     18  C   UNL     1       6.038   3.474  12.581  0.00  0.00    +0.000 A 
ATOM     19  C   UNL     1       5.960   3.567  13.974  0.00  0.00    +0.000 A 
ENDBRANCH  12  14
ENDBRANCH   9  12
TORSDOF 3
ENDMDL
MODEL 3
REMARK VINA RESULT:      -7.3      3.411      4.388
REMARK  Name = 
REMARK  3 active torsions:
REMARK  status: ('A' for Active; 'I' for Inactive)
REMARK    1  A    between atoms: C_2  and  C_3
REMARK    2  A    between atoms: C_11  and  C_12
REMARK    3  A    between atoms: C_12  and  C_14
REMARK                            x       y       z     vdW  Elec       q    Type
REMARK                         _______ _______ _______ _____ _____    ______ ____
ROOT
ATOM      1  C   UNL     1       2.586   6.280  18.837  0.00  0.00    +0.000 A 
ATOM      2  C   UNL     1       1.718   5.882  19.878  0.00  0.00    +0.000 A 
ATOM      3  C   UNL     1       2.131   4.641  20.297  0.00  0.00    +0.000 A 
ATOM      4  C   UNL     1       1.645   3.743  21.292  0.00  0.00    +0.000 A 
ATOM      5  C   UNL     1       2.291   2.584  21.515  0.00  0.00    +0.000 A 
ATOM      6  C   UNL     1       3.496   2.241  20.786  0.00  0.00    +0.000 A 
ATOM      7  C   UNL     1       3.962   3.092  19.856  0.00  0.00    +0.000 A 
ATOM      8  N   UNL     1       3.269   4.276  19.573  0.00  0.00    +0.000 N 
ATOM      9  C   UNL     1       3.516   5.263  18.617  0.00  0.00    +0.000 A 
ENDROOT
BRANCH   1  11
ATOM     10  N   UNL     1       2.424   8.539  17.567  0.00  0.00    +0.000 NA
ATOM     11  C   UNL     1       2.480   7.511  18.107  0.00  0.00    +0.000 C 
ENDBRANCH   1  11
BRANCH   9  12
ATOM     12  C   UNL     1       4.575   5.297  17.621  0.00  0.00    +0.000 C 
ATOM     13  O   UNL     1       4.459   4.709  16.547  0.00  0.00    +0.000 OA
BRANCH  12  14
ATOM     14  C   UNL     1       5.872   5.992  17.859  0.00  0.00    +0.000 A 
ATOM     15  C   UNL     1       6.730   5.475  18.842  0.00  0.00    +0.000 A 
ATOM     16  C   UNL     1       7.938   6.111  19.132  0.00  0.00    +0.000 A 
ATOM     17  C   UNL     1       8.301   7.263  18.437  0.00  0.00    +0.000 A 
ATOM     18  C   UNL     1       7.454   7.785  17.459  0.00  0.00    +0.000 A 
ATOM     19  C   UNL     1       6.234   7.163  17.181  0.00  0.00    +0.000 A 
ENDBRANCH  12  14
ENDBRANCH   9  12
TORSDOF 3
ENDMDL
MODEL 4
REMARK VINA RESULT:      -7.3      2.731      6.105
REMARK  Name = 
REMARK  3 active torsions:
REMARK  status: ('A' for Active; 'I' for Inactive)
REMARK    1  A    between atoms: C_2  and  C_3
REMARK    2  A    between atoms: C_11  and  C_12
REMARK    3  A    between atoms: C_12  and  C_14
REMARK                            x       y       z     vdW  Elec       q    Type
REMARK                         _______ _______ _______ _____ _____    ______ ____
ROOT
ATOM      1  C   UNL     1       3.486   6.725  17.856  0.00  0.00    +0.000 A 
ATOM      2  C   UNL     1       4.707   7.189  17.317  0.00  0.00    +0.000 A 
ATOM      3  C   UNL     1       5.319   6.114  16.720  0.00  0.00    +0.000 A 
ATOM      4  C   UNL     1       6.560   5.965  16.034  0.00  0.00    +0.000 A 
ATOM      5  C   UNL     1       6.890   4.772  15.507  0.00  0.00    +0.000 A 
ATOM      6  C   UNL     1       5.992   3.637  15.594  0.00  0.00    +0.000 A 
ATOM      7  C   UNL     1       4.817   3.779  16.230  0.00  0.00    +0.000 A 
ATOM      8  N   UNL     1       4.485   4.999  16.832  0.00  0.00    +0.000 N 
ATOM      9  C   UNL     1       3.373   5.358  17.597  0.00  0.00    +0.000 A 
ENDROOT
BRANCH   1  11
ATOM     10  N   UNL     1       1.846   8.202  19.224  0.00  0.00    +0.000 NA
ATOM     11  C   UNL     1       2.553   7.533  18.587  0.00  0.00    +0.000 C 
ENDBRANCH   1  11
BRANCH   9  12
ATOM     12  C   UNL     1       2.255   4.519  17.998  0.00  0.00    +0.000 C 
ATOM     13  O   UNL     1       1.265   4.390  17.279  0.00  0.00    +0.000 OA
BRANCH  12  14
ATOM     14  C   UNL     1       2.217   3.816  19.312  0.00  0.00    +0.000 A 
ATOM     15  C   UNL     1       3.399   3.221  19.780  0.00  0.00    +0.000 A 
ATOM     16  C   UNL     1       3.408   2.516  20.984  0.00  0.00    +0.000 A 
ATOM     17  C   UNL     1       2.238   2.409  21.734  0.00  0.00    +0.000 A 
ATOM     18  C   UNL     1       1.058   2.996  21.277  0.00  0.00    +0.000 A 
ATOM     19  C   UNL     1       1.041   3.683  20.060  0.00  0.00    +0.000 A 
ENDBRANCH  12  14
ENDBRANCH   9  12
TORSDOF 3
ENDMDL
MODEL 5
REMARK VINA RESULT:      -7.2      2.735      6.065
REMARK  Name = 
REMARK  3 active torsions:
REMARK  status: ('A' for Active; 'I' for Inactive)
REMARK    1  A    between atoms: C_2  and  C_3
REMARK    2  A    between atoms: C_11  and  C_12
REMARK    3  A    between atoms: C_12  and  C_14
REMARK                            x       y       z     vdW  Elec       q    Type
REMARK                         _______ _______ _______ _____ _____    ______ ____
ROOT
ATOM      1  C   UNL     1       3.491   6.663  17.897  0.00  0.00    +0.000 A 
ATOM      2  C   UNL     1       4.701   7.153  17.357  0.00  0.00    +0.000 A 
ATOM      3  C   UNL     1       5.316   6.100  16.725  0.00  0.00    +0.000 A 
ATOM      4  C   UNL     1       6.549   5.980  16.020  0.00  0.00    +0.000 A 
ATOM      5  C   UNL     1       6.884   4.804  15.458  0.00  0.00    +0.000 A 
ATOM      6  C   UNL     1       5.997   3.659  15.525  0.00  0.00    +0.000 A 
ATOM      7  C   UNL     1       4.829   3.774  16.178  0.00  0.00    +0.000 A 
ATOM      8  N   UNL     1       4.493   4.975  16.817  0.00  0.00    +0.000 N 
ATOM      9  C   UNL     1       3.387   5.303  17.603  0.00  0.00    +0.000 A 
ENDROOT
BRANCH   1  11
ATOM     10  N   UNL     1       1.853   8.122  19.288  0.00  0.00    +0.000 NA
ATOM     11  C   UNL     1       2.560   7.444  18.661  0.00  0.00    +0.000 C 
ENDBRANCH   1  11
BRANCH   9  12
ATOM     12  C   UNL     1       2.282   4.443  17.995  0.00  0.00    +0.000 C 
ATOM     13  O   UNL     1       1.283   4.326  17.287  0.00  0.00    +0.000 OA
BRANCH  12  14
ATOM     14  C   UNL     1       2.267   3.703  19.290  0.00  0.00    +0.000 A 
ATOM     15  C   UNL     1       1.058   3.632  19.999  0.00  0.00    +0.000 A 
ATOM     16  C   UNL     1       0.999   2.987  21.234  0.00  0.00    +0.000 A 
ATOM     17  C   UNL     1       2.146   2.400  21.767  0.00  0.00    +0.000 A 
ATOM     18  C   UNL     1       3.353   2.467  21.070  0.00  0.00    +0.000 A 
ATOM     19  C   UNL     1       3.420   3.132  19.843  0.00  0.00    +0.000 A 
ENDBRANCH  12  14
ENDBRANCH   9  12
TORSDOF 3
ENDMDL
MODEL 6
REMARK VINA RESULT:      -7.2      3.449      4.457
REMARK  Name = 
REMARK  3 active torsions:
REMARK  status: ('A' for Active; 'I' for Inactive)
REMARK    1  A    between atoms: C_2  and  C_3
REMARK    2  A    between atoms: C_11  and  C_12
REMARK    3  A    between atoms: C_12  and  C_14
REMARK                            x       y       z     vdW  Elec       q    Type
REMARK                         _______ _______ _______ _____ _____    ______ ____
ROOT
ATOM      1  C   UNL     1       2.539   6.333  18.866  0.00  0.00    +0.000 A 
ATOM      2  C   UNL     1       1.647   5.916  19.879  0.00  0.00    +0.000 A 
ATOM      3  C   UNL     1       2.049   4.667  20.282  0.00  0.00    +0.000 A 
ATOM      4  C   UNL     1       1.539   3.750  21.247  0.00  0.00    +0.000 A 
ATOM      5  C   UNL     1       2.178   2.585  21.462  0.00  0.00    +0.000 A 
ATOM      6  C   UNL     1       3.398   2.254  20.753  0.00  0.00    +0.000 A 
ATOM      7  C   UNL     1       3.887   3.123  19.851  0.00  0.00    +0.000 A 
ATOM      8  N   UNL     1       3.202   4.314  19.576  0.00  0.00    +0.000 N 
ATOM      9  C   UNL     1       3.472   5.320  18.646  0.00  0.00    +0.000 A 
ENDROOT
BRANCH   1  11
ATOM     10  N   UNL     1       2.417   8.560  17.536  0.00  0.00    +0.000 NA
ATOM     11  C   UNL     1       2.451   7.579  18.159  0.00  0.00    +0.000 C 
ENDBRANCH   1  11
BRANCH   9  12
ATOM     12  C   UNL     1       4.553   5.372  17.675  0.00  0.00    +0.000 C 
ATOM     13  O   UNL     1       4.447   4.832  16.574  0.00  0.00    +0.000 OA
BRANCH  12  14
ATOM     14  C   UNL     1       5.860   6.026  17.970  0.00  0.00    +0.000 A 
ATOM     15  C   UNL     1       6.216   7.161  17.225  0.00  0.00    +0.000 A 
ATOM     16  C   UNL     1       7.445   7.787  17.434  0.00  0.00    +0.000 A 
ATOM     17  C   UNL     1       8.325   7.288  18.394  0.00  0.00    +0.000 A 
ATOM     18  C   UNL     1       7.980   6.160  19.138  0.00  0.00    +0.000 A 
ATOM     19  C   UNL     1       6.759   5.517  18.916  0.00  0.00    +0.000 A 
ENDBRANCH  12  14
ENDBRANCH   9  12
TORSDOF 3
ENDMDL
MODEL 7
REMARK VINA RESULT:      -7.1      3.052      4.130
REMARK  Name = 
REMARK  3 active torsions:
REMARK  status: ('A' for Active; 'I' for Inactive)
REMARK    1  A    between atoms: C_2  and  C_3
REMARK    2  A    between atoms: C_11  and  C_12
REMARK    3  A    between atoms: C_12  and  C_14
REMARK                            x       y       z     vdW  Elec       q    Type
REMARK                         _______ _______ _______ _____ _____    ______ ____
ROOT
ATOM      1  C   UNL     1       2.667   6.186  18.049  0.00  0.00    +0.000 A 
ATOM      2  C   UNL     1       1.614   5.518  18.715  0.00  0.00    +0.000 A 
ATOM      3  C   UNL     1       1.921   4.180  18.716  0.00  0.00    +0.000 A 
ATOM      4  C   UNL     1       1.244   3.032  19.220  0.00  0.00    +0.000 A 
ATOM      5  C   UNL     1       1.815   1.819  19.110  0.00  0.00    +0.000 A 
ATOM      6  C   UNL     1       3.128   1.657  18.515  0.00  0.00    +0.000 A 
ATOM      7  C   UNL     1       3.773   2.740  18.050  0.00  0.00    +0.000 A 
ATOM      8  N   UNL     1       3.166   4.001  18.107  0.00  0.00    +0.000 N 
ATOM      9  C   UNL     1       3.603   5.239  17.631  0.00  0.00    +0.000 A 
ENDROOT
BRANCH   1  11
ATOM     10  N   UNL     1       2.702   8.741  17.590  0.00  0.00    +0.000 NA
ATOM     11  C   UNL     1       2.720   7.599  17.810  0.00  0.00    +0.000 C 
ENDBRANCH   1  11
BRANCH   9  12
ATOM     12  C   UNL     1       4.827   5.535  16.905  0.00  0.00    +0.000 C 
ATOM     13  O   UNL     1       4.929   5.297  15.702  0.00  0.00    +0.000 OA
BRANCH  12  14
ATOM     14  C   UNL     1       6.039   6.087  17.576  0.00  0.00    +0.000 A 
ATOM     15  C   UNL     1       6.558   7.305  17.110  0.00  0.00    +0.000 A 
ATOM     16  C   UNL     1       7.713   7.845  17.676  0.00  0.00    +0.000 A 
ATOM     17  C   UNL     1       8.353   7.177  18.718  0.00  0.00    +0.000 A 
ATOM     18  C   UNL     1       7.846   5.965  19.188  0.00  0.00    +0.000 A 
ATOM     19  C   UNL     1       6.702   5.410  18.608  0.00  0.00    +0.000 A 
ENDBRANCH  12  14
ENDBRANCH   9  12
TORSDOF 3
ENDMDL
MODEL 8
REMARK VINA RESULT:      -7.1      3.027      4.019
REMARK  Name = 
REMARK  3 active torsions:
REMARK  status: ('A' for Active; 'I' for Inactive)
REMARK    1  A    between atoms: C_2  and  C_3
REMARK    2  A    between atoms: C_11  and  C_12
REMARK    3  A    between atoms: C_12  and  C_14
REMARK                            x       y       z     vdW  Elec       q    Type
REMARK                         _______ _______ _______ _____ _____    ______ ____
ROOT
ATOM      1  C   UNL     1       2.716   6.191  18.076  0.00  0.00    +0.000 A 
ATOM      2  C   UNL     1       1.687   5.527  18.780  0.00  0.00    +0.000 A 
ATOM      3  C   UNL     1       1.986   4.187  18.765  0.00  0.00    +0.000 A 
ATOM      4  C   UNL     1       1.323   3.040  19.291  0.00  0.00    +0.000 A 
ATOM      5  C   UNL     1       1.884   1.825  19.154  0.00  0.00    +0.000 A 
ATOM      6  C   UNL     1       3.172   1.659  18.509  0.00  0.00    +0.000 A 
ATOM      7  C   UNL     1       3.804   2.740  18.023  0.00  0.00    +0.000 A 
ATOM      8  N   UNL     1       3.206   4.004  18.108  0.00  0.00    +0.000 N 
ATOM      9  C   UNL     1       3.631   5.241  17.619  0.00  0.00    +0.000 A 
ENDROOT
BRANCH   1  11
ATOM     10  N   UNL     1       2.818   8.738  17.585  0.00  0.00    +0.000 NA
ATOM     11  C   UNL     1       2.767   7.606  17.841  0.00  0.00    +0.000 C 
ENDBRANCH   1  11
BRANCH   9  12
ATOM     12  C   UNL     1       4.828   5.534  16.848  0.00  0.00    +0.000 C 
ATOM     13  O   UNL     1       4.890   5.279  15.646  0.00  0.00    +0.000 OA
BRANCH  12  14
ATOM     14  C   UNL     1       6.058   6.103  17.469  0.00  0.00    +0.000 A 
ATOM     15  C   UNL     1       6.662   5.390  18.516  0.00  0.00    +0.000 A 
ATOM     16  C   UNL     1       7.792   5.898  19.159  0.00  0.00    +0.000 A 
ATOM     17  C   UNL     1       8.330   7.118  18.755  0.00  0.00    +0.000 A 
ATOM     18  C   UNL     1       7.736   7.835  17.717  0.00  0.00    +0.000 A 
ATOM     19  C   UNL     1       6.592   7.340  17.086  0.00  0.00    +0.000 A 
ENDBRANCH  12  14
ENDBRANCH   9  12
TORSDOF 3
ENDMDL
MODEL 9
REMARK VINA RESULT:      -7.1      2.880      4.545
REMARK  Name = 
REMARK  3 active torsions:
REMARK  status: ('A' for Active; 'I' for Inactive)
REMARK    1  A    between atoms: C_2  and  C_3
REMARK    2  A    between atoms: C_11  and  C_12
REMARK    3  A    between atoms: C_12  and  C_14
REMARK                            x       y       z     vdW  Elec       q    Type
REMARK                         _______ _______ _______ _____ _____    ______ ____
ROOT
ATOM      1  C   UNL     1       4.128   3.574  17.109  0.00  0.00    +0.000 A 
ATOM      2  C   UNL     1       3.420   2.428  17.535  0.00  0.00    +0.000 A 
ATOM      3  C   UNL     1       2.599   2.821  18.564  0.00  0.00    +0.000 A 
ATOM      4  C   UNL     1       1.673   2.116  19.387  0.00  0.00    +0.000 A 
ATOM      5  C   UNL     1       0.961   2.784  20.313  0.00  0.00    +0.000 A 
ATOM      6  C   UNL     1       1.090   4.220  20.469  0.00  0.00    +0.000 A 
ATOM      7  C   UNL     1       1.953   4.888  19.685  0.00  0.00    +0.000 A 
ATOM      8  N   UNL     1       2.743   4.197  18.757  0.00  0.00    +0.000 N 
ATOM      9  C   UNL     1       3.743   4.658  17.898  0.00  0.00    +0.000 A 
ENDROOT
BRANCH   1  11
ATOM     10  N   UNL     1       5.917   3.664  15.229  0.00  0.00    +0.000 NA
ATOM     11  C   UNL     1       5.113   3.587  16.065  0.00  0.00    +0.000 C 
ENDBRANCH   1  11
BRANCH   9  12
ATOM     12  C   UNL     1       4.254   6.013  17.768  0.00  0.00    +0.000 C 
ATOM     13  O   UNL     1       3.529   6.936  17.401  0.00  0.00    +0.000 OA
BRANCH  12  14
ATOM     14  C   UNL     1       5.685   6.352  18.015  0.00  0.00    +0.000 A 
ATOM     15  C   UNL     1       6.379   5.627  18.996  0.00  0.00    +0.000 A 
ATOM     16  C   UNL     1       7.707   5.931  19.295  0.00  0.00    +0.000 A 
ATOM     17  C   UNL     1       8.355   6.957  18.609  0.00  0.00    +0.000 A 
ATOM     18  C   UNL     1       7.674   7.685  17.634  0.00  0.00    +0.000 A 
ATOM     19  C   UNL     1       6.337   7.397  17.348  0.00  0.00    +0.000 A 
ENDBRANCH  12  14
ENDBRANCH   9  12
TORSDOF 3
ENDMDL
