MODEL 1
REMARK VINA RESULT:      -8.1      0.000      0.000
REMARK  Name = 
REMARK  5 active torsions:
REMARK  status: ('A' for Active; 'I' for Inactive)
REMARK    1  A    between atoms: C_1  and  O_2
REMARK    2  A    between atoms: O_2  and  C_3
REMARK    3  A    between atoms: C_6  and  N_7
REMARK    4  A    between atoms: C_9  and  C_10
REMARK    5  A    between atoms: C_13  and  C_14
REMARK                            x       y       z     vdW  Elec       q    Type
REMARK                         _______ _______ _______ _____ _____    ______ ____
ROOT
ATOM      1  N   UNL     1       1.793   7.541  20.121  0.00  0.00    +0.000 N 
ATOM      2  C   UNL     1       2.569   7.514  18.984  0.00  0.00    +0.000 A 
ATOM      3  C   UNL     1       3.056   6.230  18.846  0.00  0.00    +0.000 A 
ATOM      4  C   UNL     1       2.488   5.537  19.944  0.00  0.00    +0.000 A 
ATOM      5  N   UNL     1       2.666   4.237  20.223  0.00  0.00    +0.000 N 
ATOM      6  N   UNL     1       1.754   6.326  20.719  0.00  0.00    +0.000 NA
ATOM      7  H   UNL     1       3.482   3.743  19.878  0.00  0.00    +0.000 HD
ATOM      8  H   UNL     1       2.359   3.925  21.137  0.00  0.00    +0.000 HD
ENDROOT
BRANCH   1  12
ATOM      9  C   UNL     1      -0.270  10.874  21.722  0.00  0.00    +0.000 A 
ATOM     10  C   UNL     1       0.076   9.804  22.547  0.00  0.00    +0.000 A 
ATOM     11  C   UNL     1       0.760   8.698  22.030  0.00  0.00    +0.000 A 
ATOM     12  C   UNL     1       1.096   8.654  20.672  0.00  0.00    +0.000 A 
ATOM     13  C   UNL     1       0.732   9.725  19.842  0.00  0.00    +0.000 A 
ATOM     14  C   UNL     1       0.046  10.828  20.365  0.00  0.00    +0.000 A 
BRANCH   9  16
ATOM     15  C   UNL     1      -0.436  13.198  22.114  0.00  0.00    +0.000 C 
ATOM     16  O   UNL     1      -0.945  11.889  22.343  0.00  0.00    +0.000 OA
ENDBRANCH   9  16
ENDBRANCH   1  12
BRANCH   3  17
ATOM     17  C   UNL     1       3.916   5.817  17.746  0.00  0.00    +0.000 A 
ATOM     18  C   UNL     1       3.996   4.472  17.360  0.00  0.00    +0.000 A 
ATOM     19  C   UNL     1       4.837   4.065  16.315  0.00  0.00    +0.000 A 
ATOM     20  C   UNL     1       5.607   5.007  15.626  0.00  0.00    +0.000 A 
ATOM     21  C   UNL     1       5.522   6.354  16.002  0.00  0.00    +0.000 A 
ATOM     22  C   UNL     1       4.692   6.754  17.055  0.00  0.00    +0.000 A 
BRANCH  20  23
ATOM     23  C   UNL     1       6.534   4.654  14.512  0.00  0.00    +0.000 C 
ATOM     24  N   UNL     1       6.251   3.564  13.739  0.00  0.00    +0.000 N 
ATOM     25  O   UNL     1       7.539   5.318  14.283  0.00  0.00    +0.000 OA
ATOM     26  H   UNL     1       5.461   2.950  13.854  0.00  0.00    +0.000 HD
ATOM     27  H   UNL     1       6.914   3.347  13.006  0.00  0.00    +0.000 HD
ENDBRANCH  20  23
ENDBRANCH   3  17
TORSDOF 4
ENDMDL
MODEL 2
REMARK VINA RESULT:      -8.1      0.106      1.012
REMARK  Name = 
REMARK  5 active torsions:
REMARK  status: ('A' for Active; 'I' for Inactive)
REMARK    1  A    between atoms: C_1  and  O_2
REMARK    2  A    between atoms: O_2  and  C_3
REMARK    3  A    between atoms: C_6  and  N_7
REMARK    4  A    between atoms: C_9  and  C_10
REMARK    5  A    between atoms: C_13  and  C_14
REMARK                            x       y       z     vdW  Elec       q    Type
REMARK                         _______ _______ _______ _____ _____    ______ ____
ROOT
ATOM      1  N   UNL     1       1.836   7.487  20.111  0.00  0.00    +0.000 N 
ATOM      2  C   UNL     1       2.599   7.467  18.966  0.00  0.00    +0.000 A 
ATOM      3  C   UNL     1       3.087   6.183  18.817  0.00  0.00    +0.000 A 
ATOM      4  C   UNL     1       2.534   5.485  19.919  0.00  0.00    +0.000 A 
ATOM      5  N   UNL     1       2.718   4.185  20.191  0.00  0.00    +0.000 N 
ATOM      6  N   UNL     1       1.807   6.270  20.706  0.00  0.00    +0.000 NA
ATOM      7  H   UNL     1       3.530   3.695  19.836  0.00  0.00    +0.000 HD
ATOM      8  H   UNL     1       2.422   3.870  21.108  0.00  0.00    +0.000 HD
ENDROOT
BRANCH   1  12
ATOM      9  C   UNL     1      -0.236  10.761  21.820  0.00  0.00    +0.000 A 
ATOM     10  C   UNL     1       0.135  10.794  20.476  0.00  0.00    +0.000 A 
ATOM     11  C   UNL     1       0.818   9.716  19.899  0.00  0.00    +0.000 A 
ATOM     12  C   UNL     1       1.143   8.597  20.674  0.00  0.00    +0.000 A 
ATOM     13  C   UNL     1       0.782   8.575  22.030  0.00  0.00    +0.000 A 
ATOM     14  C   UNL     1       0.100   9.657  22.602  0.00  0.00    +0.000 A 
BRANCH   9  16
ATOM     15  C   UNL     1      -0.300  13.122  21.901  0.00  0.00    +0.000 C 
ATOM     16  O   UNL     1      -0.888  11.878  22.267  0.00  0.00    +0.000 OA
ENDBRANCH   9  16
ENDBRANCH   1  12
BRANCH   3  17
ATOM     17  C   UNL     1       3.935   5.777  17.705  0.00  0.00    +0.000 A 
ATOM     18  C   UNL     1       4.012   4.433  17.313  0.00  0.00    +0.000 A 
ATOM     19  C   UNL     1       4.841   4.032  16.257  0.00  0.00    +0.000 A 
ATOM     20  C   UNL     1       5.602   4.978  15.562  0.00  0.00    +0.000 A 
ATOM     21  C   UNL     1       5.520   6.323  15.945  0.00  0.00    +0.000 A 
ATOM     22  C   UNL     1       4.702   6.718  17.010  0.00  0.00    +0.000 A 
BRANCH  20  23
ATOM     23  C   UNL     1       6.517   4.631  14.437  0.00  0.00    +0.000 C 
ATOM     24  N   UNL     1       6.228   3.541  13.665  0.00  0.00    +0.000 N 
ATOM     25  O   UNL     1       7.516   5.299  14.197  0.00  0.00    +0.000 OA
ATOM     26  H   UNL     1       5.442   2.925  13.787  0.00  0.00    +0.000 HD
ATOM     27  H   UNL     1       6.883   3.329  12.923  0.00  0.00    +0.000 HD
ENDBRANCH  20  23
ENDBRANCH   3  17
TORSDOF 4
ENDMDL
MODEL 3
REMARK VINA RESULT:      -8.0      0.874      1.665
REMARK  Name = 
REMARK  5 active torsions:
REMARK  status: ('A' for Active; 'I' for Inactive)
REMARK    1  A    between atoms: C_1  and  O_2
REMARK    2  A    between atoms: O_2  and  C_3
REMARK    3  A    between atoms: C_6  and  N_7
REMARK    4  A    between atoms: C_9  and  C_10
REMARK    5  A    between atoms: C_13  and  C_14
REMARK                            x       y       z     vdW  Elec       q    Type
REMARK                         _______ _______ _______ _____ _____    ______ ____
ROOT
ATOM      1  N   UNL     1       1.640   7.683  20.219  0.00  0.00    +0.000 N 
ATOM      2  C   UNL     1       2.424   7.661  19.087  0.00  0.00    +0.000 A 
ATOM      3  C   UNL     1       2.915   6.378  18.950  0.00  0.00    +0.000 A 
ATOM      4  C   UNL     1       2.342   5.681  20.042  0.00  0.00    +0.000 A 
ATOM      5  N   UNL     1       2.522   4.381  20.320  0.00  0.00    +0.000 N 
ATOM      6  N   UNL     1       1.601   6.467  20.814  0.00  0.00    +0.000 NA
ATOM      7  H   UNL     1       3.341   3.890  19.980  0.00  0.00    +0.000 HD
ATOM      8  H   UNL     1       2.209   4.067  21.232  0.00  0.00    +0.000 HD
ENDROOT
BRANCH   1  12
ATOM      9  C   UNL     1      -0.469  10.957  21.881  0.00  0.00    +0.000 A 
ATOM     10  C   UNL     1       0.034  11.036  20.582  0.00  0.00    +0.000 A 
ATOM     11  C   UNL     1       0.730   9.959  20.021  0.00  0.00    +0.000 A 
ATOM     12  C   UNL     1       0.936   8.793  20.767  0.00  0.00    +0.000 A 
ATOM     13  C   UNL     1       0.442   8.723  22.079  0.00  0.00    +0.000 A 
ATOM     14  C   UNL     1      -0.252   9.805  22.635  0.00  0.00    +0.000 A 
BRANCH   9  16
ATOM     15  C   UNL     1      -2.216  11.849  23.199  0.00  0.00    +0.000 C 
ATOM     16  O   UNL     1      -1.120  12.078  22.318  0.00  0.00    +0.000 OA
ENDBRANCH   9  16
ENDBRANCH   1  12
BRANCH   3  17
ATOM     17  C   UNL     1       3.784   5.970  17.854  0.00  0.00    +0.000 A 
ATOM     18  C   UNL     1       4.503   6.919  17.114  0.00  0.00    +0.000 A 
ATOM     19  C   UNL     1       5.325   6.534  16.046  0.00  0.00    +0.000 A 
ATOM     20  C   UNL     1       5.451   5.184  15.707  0.00  0.00    +0.000 A 
ATOM     21  C   UNL     1       4.741   4.231  16.450  0.00  0.00    +0.000 A 
ATOM     22  C   UNL     1       3.910   4.620  17.507  0.00  0.00    +0.000 A 
BRANCH  20  23
ATOM     23  C   UNL     1       6.294   4.695  14.577  0.00  0.00    +0.000 C 
ATOM     24  N   UNL     1       7.514   5.273  14.368  0.00  0.00    +0.000 N 
ATOM     25  O   UNL     1       5.912   3.794  13.839  0.00  0.00    +0.000 OA
ATOM     26  H   UNL     1       7.910   6.024  14.908  0.00  0.00    +0.000 HD
ATOM     27  H   UNL     1       8.047   4.926  13.581  0.00  0.00    +0.000 HD
ENDBRANCH  20  23
ENDBRANCH   3  17
TORSDOF 4
ENDMDL
MODEL 4
REMARK VINA RESULT:      -7.9      0.319      1.049
REMARK  Name = 
REMARK  5 active torsions:
REMARK  status: ('A' for Active; 'I' for Inactive)
REMARK    1  A    between atoms: C_1  and  O_2
REMARK    2  A    between atoms: O_2  and  C_3
REMARK    3  A    between atoms: C_6  and  N_7
REMARK    4  A    between atoms: C_9  and  C_10
REMARK    5  A    between atoms: C_13  and  C_14
REMARK                            x       y       z     vdW  Elec       q    Type
REMARK                         _______ _______ _______ _____ _____    ______ ____
ROOT
ATOM      1  N   UNL     1       1.812   7.496  20.136  0.00  0.00    +0.000 N 
ATOM      2  C   UNL     1       2.613   7.507  19.016  0.00  0.00    +0.000 A 
ATOM      3  C   UNL     1       3.113   6.229  18.853  0.00  0.00    +0.000 A 
ATOM      4  C   UNL     1       2.525   5.502  19.918  0.00  0.00    +0.000 A 
ATOM      5  N   UNL     1       2.707   4.196  20.165  0.00  0.00    +0.000 N 
ATOM      6  N   UNL     1       1.769   6.265  20.699  0.00  0.00    +0.000 NA
ATOM      7  H   UNL     1       3.533   3.718  19.825  0.00  0.00    +0.000 HD
ATOM      8  H   UNL     1       2.381   3.857  21.063  0.00  0.00    +0.000 HD
ENDROOT
BRANCH   1  12
ATOM      9  C   UNL     1      -0.314  10.768  21.781  0.00  0.00    +0.000 A 
ATOM     10  C   UNL     1       0.122   9.731  22.606  0.00  0.00    +0.000 A 
ATOM     11  C   UNL     1       0.827   8.645  22.075  0.00  0.00    +0.000 A 
ATOM     12  C   UNL     1       1.095   8.588  20.701  0.00  0.00    +0.000 A 
ATOM     13  C   UNL     1       0.641   9.626  19.872  0.00  0.00    +0.000 A 
ATOM     14  C   UNL     1      -0.066  10.708  20.410  0.00  0.00    +0.000 A 
BRANCH   9  16
ATOM     15  C   UNL     1      -1.634  12.716  21.569  0.00  0.00    +0.000 C 
ATOM     16  O   UNL     1      -1.001  11.765  22.418  0.00  0.00    +0.000 OA
ENDBRANCH   9  16
ENDBRANCH   1  12
BRANCH   3  17
ATOM     17  C   UNL     1       4.000   5.854  17.761  0.00  0.00    +0.000 A 
ATOM     18  C   UNL     1       4.636   6.830  16.982  0.00  0.00    +0.000 A 
ATOM     19  C   UNL     1       5.475   6.476  15.917  0.00  0.00    +0.000 A 
ATOM     20  C   UNL     1       5.703   5.128  15.620  0.00  0.00    +0.000 A 
ATOM     21  C   UNL     1       5.076   4.149  16.403  0.00  0.00    +0.000 A 
ATOM     22  C   UNL     1       4.228   4.507  17.457  0.00  0.00    +0.000 A 
BRANCH  20  23
ATOM     23  C   UNL     1       6.570   4.669  14.497  0.00  0.00    +0.000 C 
ATOM     24  N   UNL     1       6.238   3.521  13.835  0.00  0.00    +0.000 N 
ATOM     25  O   UNL     1       7.569   5.297  14.164  0.00  0.00    +0.000 OA
ATOM     26  H   UNL     1       5.449   2.930  14.040  0.00  0.00    +0.000 HD
ATOM     27  H   UNL     1       6.862   3.234  13.092  0.00  0.00    +0.000 HD
ENDBRANCH  20  23
ENDBRANCH   3  17
TORSDOF 4
ENDMDL
MODEL 5
REMARK VINA RESULT:      -7.8      1.161      1.564
REMARK  Name = 
REMARK  5 active torsions:
REMARK  status: ('A' for Active; 'I' for Inactive)
REMARK    1  A    between atoms: C_1  and  O_2
REMARK    2  A    between atoms: O_2  and  C_3
REMARK    3  A    between atoms: C_6  and  N_7
REMARK    4  A    between atoms: C_9  and  C_10
REMARK    5  A    between atoms: C_13  and  C_14
REMARK                            x       y       z     vdW  Elec       q    Type
REMARK                         _______ _______ _______ _____ _____    ______ ____
ROOT
ATOM      1  N   UNL     1       1.592   8.177  19.756  0.00  0.00    +0.000 N 
ATOM      2  C   UNL     1       2.302   7.968  18.596  0.00  0.00    +0.000 A 
ATOM      3  C   UNL     1       2.945   6.752  18.717  0.00  0.00    +0.000 A 
ATOM      4  C   UNL     1       2.532   6.281  19.989  0.00  0.00    +0.000 A 
ATOM      5  N   UNL     1       2.893   5.114  20.544  0.00  0.00    +0.000 N 
ATOM      6  N   UNL     1       1.745   7.144  20.619  0.00  0.00    +0.000 NA
ATOM      7  H   UNL     1       3.746   4.650  20.256  0.00  0.00    +0.000 HD
ATOM      8  H   UNL     1       2.679   4.998  21.528  0.00  0.00    +0.000 HD
ENDROOT
BRANCH   1  12
ATOM      9  C   UNL     1      -0.810  11.506  20.794  0.00  0.00    +0.000 A 
ATOM     10  C   UNL     1      -0.519  11.244  19.455  0.00  0.00    +0.000 A 
ATOM     11  C   UNL     1       0.271  10.145  19.099  0.00  0.00    +0.000 A 
ATOM     12  C   UNL     1       0.786   9.302  20.092  0.00  0.00    +0.000 A 
ATOM     13  C   UNL     1       0.504   9.578  21.438  0.00  0.00    +0.000 A 
ATOM     14  C   UNL     1      -0.286  10.680  21.788  0.00  0.00    +0.000 A 
BRANCH   9  16
ATOM     15  C   UNL     1      -2.778  12.692  20.244  0.00  0.00    +0.000 C 
ATOM     16  O   UNL     1      -1.582  12.614  21.013  0.00  0.00    +0.000 OA
ENDBRANCH   9  16
ENDBRANCH   1  12
BRANCH   3  17
ATOM     17  C   UNL     1       3.791   6.189  17.674  0.00  0.00    +0.000 A 
ATOM     18  C   UNL     1       3.869   4.803  17.480  0.00  0.00    +0.000 A 
ATOM     19  C   UNL     1       4.697   4.254  16.491  0.00  0.00    +0.000 A 
ATOM     20  C   UNL     1       5.455   5.090  15.666  0.00  0.00    +0.000 A 
ATOM     21  C   UNL     1       5.372   6.477  15.850  0.00  0.00    +0.000 A 
ATOM     22  C   UNL     1       4.555   7.021  16.848  0.00  0.00    +0.000 A 
BRANCH  20  23
ATOM     23  C   UNL     1       6.368   4.585  14.600  0.00  0.00    +0.000 C 
ATOM     24  N   UNL     1       7.556   5.226  14.392  0.00  0.00    +0.000 N 
ATOM     25  O   UNL     1       6.071   3.615  13.912  0.00  0.00    +0.000 OA
ATOM     26  H   UNL     1       7.884   6.035  14.893  0.00  0.00    +0.000 HD
ATOM     27  H   UNL     1       8.139   4.864  13.648  0.00  0.00    +0.000 HD
ENDBRANCH  20  23
ENDBRANCH   3  17
TORSDOF 4
ENDMDL
MODEL 6
REMARK VINA RESULT:      -7.8      2.991      3.721
REMARK  Name = 
REMARK  5 active torsions:
REMARK  status: ('A' for Active; 'I' for Inactive)
REMARK    1  A    between atoms: C_1  and  O_2
REMARK    2  A    between atoms: O_2  and  C_3
REMARK    3  A    between atoms: C_6  and  N_7
REMARK    4  A    between atoms: C_9  and  C_10
REMARK    5  A    between atoms: C_13  and  C_14
REMARK                            x       y       z     vdW  Elec       q    Type
REMARK                         _______ _______ _______ _____ _____    ______ ____
ROOT
ATOM      1  N   UNL     1       0.943   9.088  20.429  0.00  0.00    +0.000 N 
ATOM      2  C   UNL     1       1.380   7.834  20.789  0.00  0.00    +0.000 A 
ATOM      3  C   UNL     1       2.073   7.312  19.714  0.00  0.00    +0.000 A 
ATOM      4  C   UNL     1       2.025   8.351  18.750  0.00  0.00    +0.000 A 
ATOM      5  N   UNL     1       2.583   8.310  17.531  0.00  0.00    +0.000 N 
ATOM      6  N   UNL     1       1.328   9.401  19.168  0.00  0.00    +0.000 NA
ATOM      7  H   UNL     1       2.777   7.422  17.083  0.00  0.00    +0.000 HD
ATOM      8  H   UNL     1       2.306   9.040  16.884  0.00  0.00    +0.000 HD
ENDROOT
BRANCH   1  12
ATOM      9  C   UNL     1      -1.327  11.828  22.725  0.00  0.00    +0.000 A 
ATOM     10  C   UNL     1      -1.058  10.553  23.222  0.00  0.00    +0.000 A 
ATOM     11  C   UNL     1      -0.307   9.639  22.474  0.00  0.00    +0.000 A 
ATOM     12  C   UNL     1       0.175   9.998  21.209  0.00  0.00    +0.000 A 
ATOM     13  C   UNL     1      -0.112  11.276  20.705  0.00  0.00    +0.000 A 
ATOM     14  C   UNL     1      -0.865  12.185  21.458  0.00  0.00    +0.000 A 
BRANCH   9  16
ATOM     15  C   UNL     1      -3.487  12.561  23.341  0.00  0.00    +0.000 C 
ATOM     16  O   UNL     1      -2.080  12.623  23.545  0.00  0.00    +0.000 OA
ENDBRANCH   9  16
ENDBRANCH   1  12
BRANCH   3  17
ATOM     17  C   UNL     1       2.694   5.996  19.728  0.00  0.00    +0.000 A 
ATOM     18  C   UNL     1       3.962   5.791  19.165  0.00  0.00    +0.000 A 
ATOM     19  C   UNL     1       4.556   4.522  19.158  0.00  0.00    +0.000 A 
ATOM     20  C   UNL     1       3.893   3.432  19.729  0.00  0.00    +0.000 A 
ATOM     21  C   UNL     1       2.630   3.634  20.301  0.00  0.00    +0.000 A 
ATOM     22  C   UNL     1       2.033   4.900  20.294  0.00  0.00    +0.000 A 
BRANCH  20  23
ATOM     23  C   UNL     1       4.451   2.049  19.750  0.00  0.00    +0.000 C 
ATOM     24  N   UNL     1       4.161   1.205  18.716  0.00  0.00    +0.000 N 
ATOM     25  O   UNL     1       5.158   1.660  20.674  0.00  0.00    +0.000 OA
ATOM     26  H   UNL     1       3.583   1.425  17.921  0.00  0.00    +0.000 HD
ATOM     27  H   UNL     1       4.544   0.270  18.777  0.00  0.00    +0.000 HD
ENDBRANCH  20  23
ENDBRANCH   3  17
TORSDOF 4
ENDMDL
MODEL 7
REMARK VINA RESULT:      -7.7      1.012      1.172
REMARK  Name = 
REMARK  5 active torsions:
REMARK  status: ('A' for Active; 'I' for Inactive)
REMARK    1  A    between atoms: C_1  and  O_2
REMARK    2  A    between atoms: O_2  and  C_3
REMARK    3  A    between atoms: C_6  and  N_7
REMARK    4  A    between atoms: C_9  and  C_10
REMARK    5  A    between atoms: C_13  and  C_14
REMARK                            x       y       z     vdW  Elec       q    Type
REMARK                         _______ _______ _______ _____ _____    ______ ____
ROOT
ATOM      1  N   UNL     1       1.624   8.304  19.435  0.00  0.00    +0.000 N 
ATOM      2  C   UNL     1       2.360   8.054  18.299  0.00  0.00    +0.000 A 
ATOM      3  C   UNL     1       3.039   6.868  18.500  0.00  0.00    +0.000 A 
ATOM      4  C   UNL     1       2.620   6.457  19.790  0.00  0.00    +0.000 A 
ATOM      5  N   UNL     1       3.009   5.336  20.416  0.00  0.00    +0.000 N 
ATOM      6  N   UNL     1       1.795   7.328  20.358  0.00  0.00    +0.000 NA
ATOM      7  H   UNL     1       3.881   4.884  20.168  0.00  0.00    +0.000 HD
ATOM      8  H   UNL     1       2.781   5.268  21.401  0.00  0.00    +0.000 HD
ENDROOT
BRANCH   1  12
ATOM      9  C   UNL     1      -0.884  11.638  20.163  0.00  0.00    +0.000 A 
ATOM     10  C   UNL     1      -0.479  10.823  21.221  0.00  0.00    +0.000 A 
ATOM     11  C   UNL     1       0.352   9.720  20.993  0.00  0.00    +0.000 A 
ATOM     12  C   UNL     1       0.777   9.420  19.694  0.00  0.00    +0.000 A 
ATOM     13  C   UNL     1       0.355  10.232  18.630  0.00  0.00    +0.000 A 
ATOM     14  C   UNL     1      -0.478  11.333  18.864  0.00  0.00    +0.000 A 
BRANCH   9  16
ATOM     15  C   UNL     1      -1.257  13.970  20.124  0.00  0.00    +0.000 C 
ATOM     16  O   UNL     1      -1.703  12.676  20.513  0.00  0.00    +0.000 OA
ENDBRANCH   9  16
ENDBRANCH   1  12
BRANCH   3  17
ATOM     17  C   UNL     1       3.920   6.276  17.503  0.00  0.00    +0.000 A 
ATOM     18  C   UNL     1       3.948   4.888  17.301  0.00  0.00    +0.000 A 
ATOM     19  C   UNL     1       4.808   4.310  16.358  0.00  0.00    +0.000 A 
ATOM     20  C   UNL     1       5.651   5.117  15.587  0.00  0.00    +0.000 A 
ATOM     21  C   UNL     1       5.619   6.505  15.779  0.00  0.00    +0.000 A 
ATOM     22  C   UNL     1       4.769   7.078  16.732  0.00  0.00    +0.000 A 
BRANCH  20  23
ATOM     23  C   UNL     1       6.603   4.579  14.573  0.00  0.00    +0.000 C 
ATOM     24  N   UNL     1       6.285   3.421  13.921  0.00  0.00    +0.000 N 
ATOM     25  O   UNL     1       7.657   5.151  14.319  0.00  0.00    +0.000 OA
ATOM     26  H   UNL     1       5.454   2.872  14.066  0.00  0.00    +0.000 HD
ATOM     27  H   UNL     1       6.966   3.079  13.253  0.00  0.00    +0.000 HD
ENDBRANCH  20  23
ENDBRANCH   3  17
TORSDOF 4
ENDMDL
MODEL 8
REMARK VINA RESULT:      -7.7      2.984      3.693
REMARK  Name = 
REMARK  5 active torsions:
REMARK  status: ('A' for Active; 'I' for Inactive)
REMARK    1  A    between atoms: C_1  and  O_2
REMARK    2  A    between atoms: O_2  and  C_3
REMARK    3  A    between atoms: C_6  and  N_7
REMARK    4  A    between atoms: C_9  and  C_10
REMARK    5  A    between atoms: C_13  and  C_14
REMARK                            x       y       z     vdW  Elec       q    Type
REMARK                         _______ _______ _______ _____ _____    ______ ____
ROOT
ATOM      1  N   UNL     1       0.971   9.226  20.465  0.00  0.00    +0.000 N 
ATOM      2  C   UNL     1       1.369   7.959  20.825  0.00  0.00    +0.000 A 
ATOM      3  C   UNL     1       2.021   7.406  19.740  0.00  0.00    +0.000 A 
ATOM      4  C   UNL     1       1.993   8.439  18.771  0.00  0.00    +0.000 A 
ATOM      5  N   UNL     1       2.525   8.371  17.542  0.00  0.00    +0.000 N 
ATOM      6  N   UNL     1       1.343   9.517  19.195  0.00  0.00    +0.000 NA
ATOM      7  H   UNL     1       2.677   7.473  17.096  0.00  0.00    +0.000 HD
ATOM      8  H   UNL     1       2.264   9.107  16.896  0.00  0.00    +0.000 HD
ENDROOT
BRANCH   1  12
ATOM      9  C   UNL     1      -1.143  12.063  22.792  0.00  0.00    +0.000 A 
ATOM     10  C   UNL     1      -1.134  10.719  23.165  0.00  0.00    +0.000 A 
ATOM     11  C   UNL     1      -0.437   9.772  22.406  0.00  0.00    +0.000 A 
ATOM     12  C   UNL     1       0.253  10.169  21.254  0.00  0.00    +0.000 A 
ATOM     13  C   UNL     1       0.229  11.520  20.873  0.00  0.00    +0.000 A 
ATOM     14  C   UNL     1      -0.472  12.461  21.636  0.00  0.00    +0.000 A 
BRANCH   9  16
ATOM     15  C   UNL     1      -3.266  12.622  23.665  0.00  0.00    +0.000 C 
ATOM     16  O   UNL     1      -1.868  12.886  23.609  0.00  0.00    +0.000 OA
ENDBRANCH   9  16
ENDBRANCH   1  12
BRANCH   3  17
ATOM     17  C   UNL     1       2.593   6.067  19.751  0.00  0.00    +0.000 A 
ATOM     18  C   UNL     1       1.975   5.026  20.460  0.00  0.00    +0.000 A 
ATOM     19  C   UNL     1       2.532   3.740  20.492  0.00  0.00    +0.000 A 
ATOM     20  C   UNL     1       3.716   3.469  19.799  0.00  0.00    +0.000 A 
ATOM     21  C   UNL     1       4.330   4.504  19.081  0.00  0.00    +0.000 A 
ATOM     22  C   UNL     1       3.780   5.791  19.064  0.00  0.00    +0.000 A 
BRANCH  20  23
ATOM     23  C   UNL     1       4.377   2.132  19.792  0.00  0.00    +0.000 C 
ATOM     24  N   UNL     1       4.169   1.299  18.730  0.00  0.00    +0.000 N 
ATOM     25  O   UNL     1       5.094   1.771  20.718  0.00  0.00    +0.000 OA
ATOM     26  H   UNL     1       3.590   1.498  17.930  0.00  0.00    +0.000 HD
ATOM     27  H   UNL     1       4.621   0.394  18.772  0.00  0.00    +0.000 HD
ENDBRANCH  20  23
ENDBRANCH   3  17
TORSDOF 4
ENDMDL
MODEL 9
REMARK VINA RESULT:      -7.7      3.009      3.799
REMARK  Name = 
REMARK  5 active torsions:
REMARK  status: ('A' for Active; 'I' for Inactive)
REMARK    1  A    between atoms: C_1  and  O_2
REMARK    2  A    between atoms: O_2  and  C_3
REMARK    3  A    between atoms: C_6  and  N_7
REMARK    4  A    between atoms: C_9  and  C_10
REMARK    5  A    between atoms: C_13  and  C_14
REMARK                            x       y       z     vdW  Elec       q    Type
REMARK                         _______ _______ _______ _____ _____    ______ ____
ROOT
ATOM      1  N   UNL     1       0.991   9.226  20.465  0.00  0.00    +0.000 N 
ATOM      2  C   UNL     1       1.392   7.960  20.826  0.00  0.00    +0.000 A 
ATOM      3  C   UNL     1       2.026   7.399  19.735  0.00  0.00    +0.000 A 
ATOM      4  C   UNL     1       1.985   8.428  18.760  0.00  0.00    +0.000 A 
ATOM      5  N   UNL     1       2.498   8.351  17.523  0.00  0.00    +0.000 N 
ATOM      6  N   UNL     1       1.344   9.509  19.188  0.00  0.00    +0.000 NA
ATOM      7  H   UNL     1       2.641   7.451  17.080  0.00  0.00    +0.000 HD
ATOM      8  H   UNL     1       2.228   9.084  16.877  0.00  0.00    +0.000 HD
ENDROOT
BRANCH   1  12
ATOM      9  C   UNL     1      -1.124  12.014  22.849  0.00  0.00    +0.000 A 
ATOM     10  C   UNL     1      -0.419  12.447  21.726  0.00  0.00    +0.000 A 
ATOM     11  C   UNL     1       0.282  11.535  20.929  0.00  0.00    +0.000 A 
ATOM     12  C   UNL     1       0.287  10.175  21.260  0.00  0.00    +0.000 A 
ATOM     13  C   UNL     1      -0.410   9.745  22.400  0.00  0.00    +0.000 A 
ATOM     14  C   UNL     1      -1.108  10.663  23.194  0.00  0.00    +0.000 A 
BRANCH   9  16
ATOM     15  C   UNL     1      -3.179  13.009  23.460  0.00  0.00    +0.000 C 
ATOM     16  O   UNL     1      -1.758  13.002  23.552  0.00  0.00    +0.000 OA
ENDBRANCH   9  16
ENDBRANCH   1  12
BRANCH   3  17
ATOM     17  C   UNL     1       2.594   6.059  19.744  0.00  0.00    +0.000 A 
ATOM     18  C   UNL     1       1.910   4.991  20.342  0.00  0.00    +0.000 A 
ATOM     19  C   UNL     1       2.462   3.703  20.372  0.00  0.00    +0.000 A 
ATOM     20  C   UNL     1       3.709   3.458  19.790  0.00  0.00    +0.000 A 
ATOM     21  C   UNL     1       4.392   4.521  19.184  0.00  0.00    +0.000 A 
ATOM     22  C   UNL     1       3.845   5.809  19.168  0.00  0.00    +0.000 A 
BRANCH  20  23
ATOM     23  C   UNL     1       4.369   2.120  19.792  0.00  0.00    +0.000 C 
ATOM     24  N   UNL     1       4.153   1.278  18.738  0.00  0.00    +0.000 N 
ATOM     25  O   UNL     1       5.093   1.767  20.716  0.00  0.00    +0.000 OA
ATOM     26  H   UNL     1       3.569   1.469  17.941  0.00  0.00    +0.000 HD
ATOM     27  H   UNL     1       4.604   0.373  18.786  0.00  0.00    +0.000 HD
ENDBRANCH  20  23
ENDBRANCH   3  17
TORSDOF 4
ENDMDL
