MODEL 1
REMARK VINA RESULT:      -9.1      0.000      0.000
REMARK  Name = 
REMARK  4 active torsions:
REMARK  status: ('A' for Active; 'I' for Inactive)
REMARK    1  A    between atoms: C_5  and  C_6
REMARK    2  A    between atoms: C_9  and  C_10
REMARK    3  A    between atoms: C_15  and  C_16
REMARK    4  A    between atoms: C_28  and  C_29
REMARK                            x       y       z     vdW  Elec       q    Type
REMARK                         _______ _______ _______ _____ _____    ______ ____
ROOT
ATOM      1  C   UNL     1       2.074   7.659  19.608  0.00  0.00    +0.000 A 
ATOM      2  C   UNL     1       1.481   7.368  20.821  0.00  0.00    +0.000 A 
ATOM      3  C   UNL     1       0.799   8.527  21.240  0.00  0.00    +0.000 A 
ATOM      4  C   UNL     1       1.002   9.493  20.273  0.00  0.00    +0.000 A 
ATOM      5  O   UNL     1       1.782   8.960  19.275  0.00  0.00    +0.000 OA
ENDROOT
BRANCH   1  10
ATOM      6  C   UNL     1       5.092   3.627  16.254  0.00  0.00    +0.000 A 
ATOM      7  C   UNL     1       4.264   3.711  17.377  0.00  0.00    +0.000 A 
ATOM      8  C   UNL     1       3.821   4.974  17.813  0.00  0.00    +0.000 A 
ATOM      9  C   UNL     1       2.978   5.403  18.870  0.00  0.00    +0.000 A 
ATOM     10  C   UNL     1       2.857   6.776  18.798  0.00  0.00    +0.000 A 
ATOM     11  N   UNL     1       3.636   7.197  17.749  0.00  0.00    +0.000 N 
ATOM     12  C   UNL     1       4.220   6.115  17.119  0.00  0.00    +0.000 A 
ATOM     13  C   UNL     1       5.054   6.052  15.992  0.00  0.00    +0.000 A 
ATOM     14  C   UNL     1       5.486   4.782  15.572  0.00  0.00    +0.000 A 
ATOM     15  H   UNL     1       3.742   8.161  17.462  0.00  0.00    +0.000 HD
BRANCH  14  16
ATOM     16  C   UNL     1       6.361   4.662  14.379  0.00  0.00    +0.000 C 
ATOM     17  N   UNL     1       6.050   3.882  13.372  0.00  0.00    +0.000 NA
ATOM     18  C   UNL     1       7.190   4.037  12.424  0.00  0.00    +0.000 C 
ATOM     19  C   UNL     1       7.939   5.295  12.867  0.00  0.00    +0.000 C 
ATOM     20  N   UNL     1       7.528   5.383  14.249  0.00  0.00    +0.000 N 
ATOM     21  H   UNL     1       7.538   6.308  14.664  0.00  0.00    +0.000 HD
ENDBRANCH  14  16
ENDBRANCH   1  10
BRANCH   4  22
ATOM     22  C   UNL     1       0.512  10.838  20.284  0.00  0.00    +0.000 A 
ATOM     23  C   UNL     1      -0.180  11.502  21.277  0.00  0.00    +0.000 A 
ATOM     24  C   UNL     1      -0.389  12.836  20.855  0.00  0.00    +0.000 A 
ATOM     25  C   UNL     1      -0.998  13.950  21.453  0.00  0.00    +0.000 A 
ATOM     26  C   UNL     1      -1.035  15.160  20.758  0.00  0.00    +0.000 A 
ATOM     27  C   UNL     1      -0.480  15.272  19.480  0.00  0.00    +0.000 A 
ATOM     28  C   UNL     1       0.115  14.166  18.855  0.00  0.00    +0.000 A 
ATOM     29  C   UNL     1       0.157  12.959  19.574  0.00  0.00    +0.000 A 
ATOM     30  N   UNL     1       0.682  11.725  19.248  0.00  0.00    +0.000 N 
ATOM     31  H   UNL     1       1.150  11.506  18.379  0.00  0.00    +0.000 HD
BRANCH  27  32
ATOM     32  C   UNL     1      -0.561  16.581  18.785  0.00  0.00    +0.000 C 
ATOM     33  N   UNL     1       0.474  17.116  18.188  0.00  0.00    +0.000 NA
ATOM     34  C   UNL     1      -0.022  18.409  17.640  0.00  0.00    +0.000 C 
ATOM     35  C   UNL     1      -1.507  18.519  17.997  0.00  0.00    +0.000 C 
ATOM     36  N   UNL     1      -1.736  17.292  18.714  0.00  0.00    +0.000 N 
ATOM     37  H   UNL     1      -2.326  17.317  19.537  0.00  0.00    +0.000 HD
ENDBRANCH  27  32
ENDBRANCH   4  22
TORSDOF 4
ENDMDL
MODEL 2
REMARK VINA RESULT:      -8.7      0.130     11.373
REMARK  Name = 
REMARK  4 active torsions:
REMARK  status: ('A' for Active; 'I' for Inactive)
REMARK    1  A    between atoms: C_5  and  C_6
REMARK    2  A    between atoms: C_9  and  C_10
REMARK    3  A    between atoms: C_15  and  C_16
REMARK    4  A    between atoms: C_28  and  C_29
REMARK                            x       y       z     vdW  Elec       q    Type
REMARK                         _______ _______ _______ _____ _____    ______ ____
ROOT
ATOM      1  C   UNL     1       0.992   9.515  20.300  0.00  0.00    +0.000 A 
ATOM      2  C   UNL     1       0.785   8.531  21.248  0.00  0.00    +0.000 A 
ATOM      3  C   UNL     1       1.479   7.384  20.818  0.00  0.00    +0.000 A 
ATOM      4  C   UNL     1       2.085   7.700  19.616  0.00  0.00    +0.000 A 
ATOM      5  O   UNL     1       1.786   9.004  19.301  0.00  0.00    +0.000 OA
ENDROOT
BRANCH   1  10
ATOM      6  C   UNL     1      -1.068  15.180  20.833  0.00  0.00    +0.000 A 
ATOM      7  C   UNL     1      -1.034  13.961  21.517  0.00  0.00    +0.000 A 
ATOM      8  C   UNL     1      -0.424  12.846  20.911  0.00  0.00    +0.000 A 
ATOM      9  C   UNL     1      -0.203  11.508  21.325  0.00  0.00    +0.000 A 
ATOM     10  C   UNL     1       0.493  10.856  20.327  0.00  0.00    +0.000 A 
ATOM     11  N   UNL     1       0.664  11.751  19.300  0.00  0.00    +0.000 N 
ATOM     12  C   UNL     1       0.131  12.980  19.639  0.00  0.00    +0.000 A 
ATOM     13  C   UNL     1       0.104  14.193  18.934  0.00  0.00    +0.000 A 
ATOM     14  C   UNL     1      -0.509  15.294  19.556  0.00  0.00    +0.000 A 
ATOM     15  H   UNL     1       1.140  11.546  18.432  0.00  0.00    +0.000 HD
BRANCH  14  16
ATOM     16  C   UNL     1      -0.554  16.602  18.855  0.00  0.00    +0.000 C 
ATOM     17  N   UNL     1      -1.613  17.373  18.902  0.00  0.00    +0.000 NA
ATOM     18  C   UNL     1      -1.248  18.546  18.058  0.00  0.00    +0.000 C 
ATOM     19  C   UNL     1       0.272  18.492  17.892  0.00  0.00    +0.000 C 
ATOM     20  N   UNL     1       0.521  17.091  18.144  0.00  0.00    +0.000 N 
ATOM     21  H   UNL     1       1.442  16.853  18.496  0.00  0.00    +0.000 HD
ENDBRANCH  14  16
ENDBRANCH   1  10
BRANCH   4  22
ATOM     22  C   UNL     1       2.881   6.835  18.800  0.00  0.00    +0.000 A 
ATOM     23  C   UNL     1       3.085   5.474  18.918  0.00  0.00    +0.000 A 
ATOM     24  C   UNL     1       3.897   5.053  17.838  0.00  0.00    +0.000 A 
ATOM     25  C   UNL     1       4.392   3.802  17.439  0.00  0.00    +0.000 A 
ATOM     26  C   UNL     1       5.182   3.718  16.291  0.00  0.00    +0.000 A 
ATOM     27  C   UNL     1       5.484   4.859  15.543  0.00  0.00    +0.000 A 
ATOM     28  C   UNL     1       5.017   6.122  15.935  0.00  0.00    +0.000 A 
ATOM     29  C   UNL     1       4.211   6.187  17.086  0.00  0.00    +0.000 A 
ATOM     30  N   UNL     1       3.594   7.257  17.703  0.00  0.00    +0.000 N 
ATOM     31  H   UNL     1       3.637   8.214  17.382  0.00  0.00    +0.000 HD
BRANCH  27  32
ATOM     32  C   UNL     1       6.338   4.710  14.337  0.00  0.00    +0.000 C 
ATOM     33  N   UNL     1       6.062   3.848  13.392  0.00  0.00    +0.000 NA
ATOM     34  C   UNL     1       7.156   4.008  12.393  0.00  0.00    +0.000 C 
ATOM     35  C   UNL     1       8.087   5.110  12.904  0.00  0.00    +0.000 C 
ATOM     36  N   UNL     1       7.456   5.487  14.142  0.00  0.00    +0.000 N 
ATOM     37  H   UNL     1       8.045   5.682  14.944  0.00  0.00    +0.000 HD
ENDBRANCH  27  32
ENDBRANCH   4  22
TORSDOF 4
ENDMDL
MODEL 3
REMARK VINA RESULT:      -8.7      2.751     11.982
REMARK  Name = 
REMARK  4 active torsions:
REMARK  status: ('A' for Active; 'I' for Inactive)
REMARK    1  A    between atoms: C_5  and  C_6
REMARK    2  A    between atoms: C_9  and  C_10
REMARK    3  A    between atoms: C_15  and  C_16
REMARK    4  A    between atoms: C_28  and  C_29
REMARK                            x       y       z     vdW  Elec       q    Type
REMARK                         _______ _______ _______ _____ _____    ______ ____
ROOT
ATOM      1  C   UNL     1       0.983   8.331  20.626  0.00  0.00    +0.000 A 
ATOM      2  C   UNL     1       0.830   7.139  21.308  0.00  0.00    +0.000 A 
ATOM      3  C   UNL     1       1.761   6.229  20.772  0.00  0.00    +0.000 A 
ATOM      4  C   UNL     1       2.452   6.891  19.775  0.00  0.00    +0.000 A 
ATOM      5  O   UNL     1       1.975   8.177  19.687  0.00  0.00    +0.000 OA
ENDROOT
BRANCH   1  10
ATOM      6  C   UNL     1      -2.307  13.377  21.204  0.00  0.00    +0.000 A 
ATOM      7  C   UNL     1      -1.813  12.500  20.233  0.00  0.00    +0.000 A 
ATOM      8  C   UNL     1      -1.006  11.416  20.629  0.00  0.00    +0.000 A 
ATOM      9  C   UNL     1      -0.379  10.357  19.926  0.00  0.00    +0.000 A 
ATOM     10  C   UNL     1       0.261   9.547  20.843  0.00  0.00    +0.000 A 
ATOM     11  N   UNL     1       0.073  10.110  22.081  0.00  0.00    +0.000 N 
ATOM     12  C   UNL     1      -0.714  11.242  21.981  0.00  0.00    +0.000 A 
ATOM     13  C   UNL     1      -1.196  12.112  22.970  0.00  0.00    +0.000 A 
ATOM     14  C   UNL     1      -2.000  13.187  22.555  0.00  0.00    +0.000 A 
ATOM     15  H   UNL     1       0.435   9.731  22.945  0.00  0.00    +0.000 HD
BRANCH  14  16
ATOM     16  C   UNL     1      -2.544  14.130  23.565  0.00  0.00    +0.000 C 
ATOM     17  N   UNL     1      -1.777  14.690  24.468  0.00  0.00    +0.000 NA
ATOM     18  C   UNL     1      -2.712  15.521  25.279  0.00  0.00    +0.000 C 
ATOM     19  C   UNL     1      -3.990  15.649  24.449  0.00  0.00    +0.000 C 
ATOM     20  N   UNL     1      -3.874  14.491  23.592  0.00  0.00    +0.000 N 
ATOM     21  H   UNL     1      -4.347  14.544  22.696  0.00  0.00    +0.000 HD
ENDBRANCH  14  16
ENDBRANCH   1  10
BRANCH   4  22
ATOM     22  C   UNL     1       3.484   6.353  18.941  0.00  0.00    +0.000 A 
ATOM     23  C   UNL     1       4.609   5.639  19.302  0.00  0.00    +0.000 A 
ATOM     24  C   UNL     1       5.293   5.265  18.122  0.00  0.00    +0.000 A 
ATOM     25  C   UNL     1       6.459   4.521  17.882  0.00  0.00    +0.000 A 
ATOM     26  C   UNL     1       6.877   4.320  16.565  0.00  0.00    +0.000 A 
ATOM     27  C   UNL     1       6.156   4.851  15.493  0.00  0.00    +0.000 A 
ATOM     28  C   UNL     1       5.000   5.615  15.711  0.00  0.00    +0.000 A 
ATOM     29  C   UNL     1       4.584   5.796  17.042  0.00  0.00    +0.000 A 
ATOM     30  N   UNL     1       3.499   6.466  17.571  0.00  0.00    +0.000 N 
ATOM     31  H   UNL     1       2.797   6.950  17.029  0.00  0.00    +0.000 HD
BRANCH  27  32
ATOM     32  C   UNL     1       6.656   4.614  14.115  0.00  0.00    +0.000 C 
ATOM     33  N   UNL     1       7.529   5.406  13.547  0.00  0.00    +0.000 NA
ATOM     34  C   UNL     1       7.746   4.830  12.190  0.00  0.00    +0.000 C 
ATOM     35  C   UNL     1       6.878   3.574  12.079  0.00  0.00    +0.000 C 
ATOM     36  N   UNL     1       6.241   3.534  13.370  0.00  0.00    +0.000 N 
ATOM     37  H   UNL     1       5.263   3.273  13.418  0.00  0.00    +0.000 HD
ENDBRANCH  27  32
ENDBRANCH   4  22
TORSDOF 4
ENDMDL
MODEL 4
REMARK VINA RESULT:      -8.6      1.857      2.484
REMARK  Name = 
REMARK  4 active torsions:
REMARK  status: ('A' for Active; 'I' for Inactive)
REMARK    1  A    between atoms: C_5  and  C_6
REMARK    2  A    between atoms: C_9  and  C_10
REMARK    3  A    between atoms: C_15  and  C_16
REMARK    4  A    between atoms: C_28  and  C_29
REMARK                            x       y       z     vdW  Elec       q    Type
REMARK                         _______ _______ _______ _____ _____    ______ ____
ROOT
ATOM      1  C   UNL     1       2.637   6.531  19.797  0.00  0.00    +0.000 A 
ATOM      2  C   UNL     1       1.786   5.726  20.529  0.00  0.00    +0.000 A 
ATOM      3  C   UNL     1       0.880   6.572  21.195  0.00  0.00    +0.000 A 
ATOM      4  C   UNL     1       1.208   7.871  20.854  0.00  0.00    +0.000 A 
ATOM      5  O   UNL     1       2.283   7.844  19.999  0.00  0.00    +0.000 OA
ENDROOT
BRANCH   1  10
ATOM      6  C   UNL     1       7.249   4.430  16.491  0.00  0.00    +0.000 A 
ATOM      7  C   UNL     1       6.831   4.569  17.818  0.00  0.00    +0.000 A 
ATOM      8  C   UNL     1       5.606   5.207  18.091  0.00  0.00    +0.000 A 
ATOM      9  C   UNL     1       4.895   5.485  19.286  0.00  0.00    +0.000 A 
ATOM     10  C   UNL     1       3.708   6.107  18.949  0.00  0.00    +0.000 A 
ATOM     11  N   UNL     1       3.700   6.250  17.583  0.00  0.00    +0.000 N 
ATOM     12  C   UNL     1       4.838   5.691  17.034  0.00  0.00    +0.000 A 
ATOM     13  C   UNL     1       5.242   5.567  15.696  0.00  0.00    +0.000 A 
ATOM     14  C   UNL     1       6.467   4.926  15.444  0.00  0.00    +0.000 A 
ATOM     15  H   UNL     1       2.952   6.678  17.055  0.00  0.00    +0.000 HD
BRANCH  14  16
ATOM     16  C   UNL     1       6.933   4.760  14.044  0.00  0.00    +0.000 C 
ATOM     17  N   UNL     1       6.403   3.868  13.242  0.00  0.00    +0.000 NA
ATOM     18  C   UNL     1       7.169   4.017  11.972  0.00  0.00    +0.000 C 
ATOM     19  C   UNL     1       7.889   5.363  12.068  0.00  0.00    +0.000 C 
ATOM     20  N   UNL     1       7.923   5.550  13.500  0.00  0.00    +0.000 N 
ATOM     21  H   UNL     1       7.969   6.508  13.829  0.00  0.00    +0.000 HD
ENDBRANCH  14  16
ENDBRANCH   1  10
BRANCH   4  22
ATOM     22  C   UNL     1       0.569   9.068  21.311  0.00  0.00    +0.000 A 
ATOM     23  C   UNL     1      -0.402   9.219  22.280  0.00  0.00    +0.000 A 
ATOM     24  C   UNL     1      -0.671  10.601  22.426  0.00  0.00    +0.000 A 
ATOM     25  C   UNL     1      -1.528  11.330  23.265  0.00  0.00    +0.000 A 
ATOM     26  C   UNL     1      -1.556  12.722  23.164  0.00  0.00    +0.000 A 
ATOM     27  C   UNL     1      -0.748  13.391  22.240  0.00  0.00    +0.000 A 
ATOM     28  C   UNL     1       0.100  12.681  21.378  0.00  0.00    +0.000 A 
ATOM     29  C   UNL     1       0.127  11.281  21.503  0.00  0.00    +0.000 A 
ATOM     30  N   UNL     1       0.857  10.323  20.828  0.00  0.00    +0.000 N 
ATOM     31  H   UNL     1       1.530  10.515  20.099  0.00  0.00    +0.000 HD
BRANCH  27  32
ATOM     32  C   UNL     1      -0.830  14.872  22.170  0.00  0.00    +0.000 C 
ATOM     33  N   UNL     1      -0.459  15.539  21.106  0.00  0.00    +0.000 NA
ATOM     34  C   UNL     1      -0.685  16.971  21.451  0.00  0.00    +0.000 C 
ATOM     35  C   UNL     1      -1.262  17.016  22.868  0.00  0.00    +0.000 C 
ATOM     36  N   UNL     1      -1.319  15.621  23.215  0.00  0.00    +0.000 N 
ATOM     37  H   UNL     1      -1.062  15.346  24.157  0.00  0.00    +0.000 HD
ENDBRANCH  27  32
ENDBRANCH   4  22
TORSDOF 4
ENDMDL
MODEL 5
REMARK VINA RESULT:      -8.6      1.499     11.543
REMARK  Name = 
REMARK  4 active torsions:
REMARK  status: ('A' for Active; 'I' for Inactive)
REMARK    1  A    between atoms: C_5  and  C_6
REMARK    2  A    between atoms: C_9  and  C_10
REMARK    3  A    between atoms: C_15  and  C_16
REMARK    4  A    between atoms: C_28  and  C_29
REMARK                            x       y       z     vdW  Elec       q    Type
REMARK                         _______ _______ _______ _____ _____    ______ ____
ROOT
ATOM      1  C   UNL     1       1.156   7.943  20.788  0.00  0.00    +0.000 A 
ATOM      2  C   UNL     1       0.935   6.673  21.283  0.00  0.00    +0.000 A 
ATOM      3  C   UNL     1       1.848   5.811  20.646  0.00  0.00    +0.000 A 
ATOM      4  C   UNL     1       2.596   6.580  19.775  0.00  0.00    +0.000 A 
ATOM      5  O   UNL     1       2.172   7.884  19.863  0.00  0.00    +0.000 OA
ENDROOT
BRANCH   1  10
ATOM      6  C   UNL     1      -1.650  12.926  22.766  0.00  0.00    +0.000 A 
ATOM      7  C   UNL     1      -1.396  11.599  23.127  0.00  0.00    +0.000 A 
ATOM      8  C   UNL     1      -0.676  10.771  22.246  0.00  0.00    +0.000 A 
ATOM      9  C   UNL     1      -0.238   9.424  22.309  0.00  0.00    +0.000 A 
ATOM     10  C   UNL     1       0.474   9.145  21.160  0.00  0.00    +0.000 A 
ATOM     11  N   UNL     1       0.445  10.275  20.381  0.00  0.00    +0.000 N 
ATOM     12  C   UNL     1      -0.234  11.289  21.029  0.00  0.00    +0.000 A 
ATOM     13  C   UNL     1      -0.482  12.615  20.646  0.00  0.00    +0.000 A 
ATOM     14  C   UNL     1      -1.202  13.427  21.540  0.00  0.00    +0.000 A 
ATOM     15  H   UNL     1       0.884  10.360  19.475  0.00  0.00    +0.000 HD
BRANCH  14  16
ATOM     16  C   UNL     1      -1.481  14.842  21.185  0.00  0.00    +0.000 C 
ATOM     17  N   UNL     1      -1.651  15.762  22.103  0.00  0.00    +0.000 NA
ATOM     18  C   UNL     1      -1.929  17.004  21.328  0.00  0.00    +0.000 C 
ATOM     19  C   UNL     1      -1.486  16.715  19.893  0.00  0.00    +0.000 C 
ATOM     20  N   UNL     1      -1.545  15.271  19.877  0.00  0.00    +0.000 N 
ATOM     21  H   UNL     1      -0.935  14.803  19.216  0.00  0.00    +0.000 HD
ENDBRANCH  14  16
ENDBRANCH   1  10
BRANCH   4  22
ATOM     22  C   UNL     1       3.634   6.126  18.900  0.00  0.00    +0.000 A 
ATOM     23  C   UNL     1       4.860   5.576  19.218  0.00  0.00    +0.000 A 
ATOM     24  C   UNL     1       5.512   5.221  18.014  0.00  0.00    +0.000 A 
ATOM     25  C   UNL     1       6.745   4.613  17.731  0.00  0.00    +0.000 A 
ATOM     26  C   UNL     1       7.103   4.389  16.401  0.00  0.00    +0.000 A 
ATOM     27  C   UNL     1       6.256   4.765  15.356  0.00  0.00    +0.000 A 
ATOM     28  C   UNL     1       5.029   5.394  15.614  0.00  0.00    +0.000 A 
ATOM     29  C   UNL     1       4.676   5.599  16.960  0.00  0.00    +0.000 A 
ATOM     30  N   UNL     1       3.550   6.161  17.529  0.00  0.00    +0.000 N 
ATOM     31  H   UNL     1       2.761   6.524  17.013  0.00  0.00    +0.000 HD
BRANCH  27  32
ATOM     32  C   UNL     1       6.696   4.513  13.960  0.00  0.00    +0.000 C 
ATOM     33  N   UNL     1       7.512   5.320  13.332  0.00  0.00    +0.000 NA
ATOM     34  C   UNL     1       7.682   4.720  11.979  0.00  0.00    +0.000 C 
ATOM     35  C   UNL     1       6.854   3.433  11.940  0.00  0.00    +0.000 C 
ATOM     36  N   UNL     1       6.283   3.403  13.261  0.00  0.00    +0.000 N 
ATOM     37  H   UNL     1       5.318   3.109  13.363  0.00  0.00    +0.000 HD
ENDBRANCH  27  32
ENDBRANCH   4  22
TORSDOF 4
ENDMDL
MODEL 6
REMARK VINA RESULT:      -8.5      2.491      3.084
REMARK  Name = 
REMARK  4 active torsions:
REMARK  status: ('A' for Active; 'I' for Inactive)
REMARK    1  A    between atoms: C_5  and  C_6
REMARK    2  A    between atoms: C_9  and  C_10
REMARK    3  A    between atoms: C_15  and  C_16
REMARK    4  A    between atoms: C_28  and  C_29
REMARK                            x       y       z     vdW  Elec       q    Type
REMARK                         _______ _______ _______ _____ _____    ______ ____
ROOT
ATOM      1  C   UNL     1       2.462   6.974  19.732  0.00  0.00    +0.000 A 
ATOM      2  C   UNL     1       1.764   6.344  20.745  0.00  0.00    +0.000 A 
ATOM      3  C   UNL     1       0.818   7.264  21.235  0.00  0.00    +0.000 A 
ATOM      4  C   UNL     1       0.969   8.432  20.511  0.00  0.00    +0.000 A 
ATOM      5  O   UNL     1       1.975   8.252  19.592  0.00  0.00    +0.000 OA
ENDROOT
BRANCH   1  10
ATOM      6  C   UNL     1       6.904   4.296  16.616  0.00  0.00    +0.000 A 
ATOM      7  C   UNL     1       6.420   4.444  17.920  0.00  0.00    +0.000 A 
ATOM      8  C   UNL     1       5.296   5.260  18.149  0.00  0.00    +0.000 A 
ATOM      9  C   UNL     1       4.554   5.599  19.309  0.00  0.00    +0.000 A 
ATOM     10  C   UNL     1       3.509   6.418  18.932  0.00  0.00    +0.000 A 
ATOM     11  N   UNL     1       3.621   6.619  17.578  0.00  0.00    +0.000 N 
ATOM     12  C   UNL     1       4.692   5.907  17.072  0.00  0.00    +0.000 A 
ATOM     13  C   UNL     1       5.165   5.776  15.758  0.00  0.00    +0.000 A 
ATOM     14  C   UNL     1       6.287   4.956  15.550  0.00  0.00    +0.000 A 
ATOM     15  H   UNL     1       2.989   7.184  17.028  0.00  0.00    +0.000 HD
BRANCH  14  16
ATOM     16  C   UNL     1       6.819   4.776  14.175  0.00  0.00    +0.000 C 
ATOM     17  N   UNL     1       6.313   3.892  13.351  0.00  0.00    +0.000 NA
ATOM     18  C   UNL     1       7.143   4.022  12.120  0.00  0.00    +0.000 C 
ATOM     19  C   UNL     1       7.883   5.355  12.248  0.00  0.00    +0.000 C 
ATOM     20  N   UNL     1       7.850   5.546  13.680  0.00  0.00    +0.000 N 
ATOM     21  H   UNL     1       7.897   6.504  14.008  0.00  0.00    +0.000 HD
ENDBRANCH  14  16
ENDBRANCH   1  10
BRANCH   4  22
ATOM     22  C   UNL     1       0.233   9.648  20.675  0.00  0.00    +0.000 A 
ATOM     23  C   UNL     1      -0.441  10.391  19.727  0.00  0.00    +0.000 A 
ATOM     24  C   UNL     1      -1.072  11.475  20.381  0.00  0.00    +0.000 A 
ATOM     25  C   UNL     1      -1.898  12.518  19.933  0.00  0.00    +0.000 A 
ATOM     26  C   UNL     1      -2.376  13.451  20.856  0.00  0.00    +0.000 A 
ATOM     27  C   UNL     1      -2.040  13.358  22.209  0.00  0.00    +0.000 A 
ATOM     28  C   UNL     1      -1.199  12.336  22.675  0.00  0.00    +0.000 A 
ATOM     29  C   UNL     1      -0.739  11.398  21.735  0.00  0.00    +0.000 A 
ATOM     30  N   UNL     1       0.068  10.287  21.881  0.00  0.00    +0.000 N 
ATOM     31  H   UNL     1       0.464   9.970  22.755  0.00  0.00    +0.000 HD
BRANCH  27  32
ATOM     32  C   UNL     1      -2.569  14.385  23.142  0.00  0.00    +0.000 C 
ATOM     33  N   UNL     1      -2.966  14.086  24.353  0.00  0.00    +0.000 NA
ATOM     34  C   UNL     1      -3.427  15.377  24.937  0.00  0.00    +0.000 C 
ATOM     35  C   UNL     1      -3.211  16.463  23.880  0.00  0.00    +0.000 C 
ATOM     36  N   UNL     1      -2.650  15.712  22.788  0.00  0.00    +0.000 N 
ATOM     37  H   UNL     1      -2.948  15.934  21.845  0.00  0.00    +0.000 HD
ENDBRANCH  27  32
ENDBRANCH   4  22
TORSDOF 4
ENDMDL
MODEL 7
REMARK VINA RESULT:      -8.5      1.686     11.879
REMARK  Name = 
REMARK  4 active torsions:
REMARK  status: ('A' for Active; 'I' for Inactive)
REMARK    1  A    between atoms: C_5  and  C_6
REMARK    2  A    between atoms: C_9  and  C_10
REMARK    3  A    between atoms: C_15  and  C_16
REMARK    4  A    between atoms: C_28  and  C_29
REMARK                            x       y       z     vdW  Elec       q    Type
REMARK                         _______ _______ _______ _____ _____    ______ ____
ROOT
ATOM      1  C   UNL     1       0.990   9.249  20.337  0.00  0.00    +0.000 A 
ATOM      2  C   UNL     1       0.894   8.270  21.307  0.00  0.00    +0.000 A 
ATOM      3  C   UNL     1       1.629   7.159  20.852  0.00  0.00    +0.000 A 
ATOM      4  C   UNL     1       2.148   7.490  19.614  0.00  0.00    +0.000 A 
ATOM      5  O   UNL     1       1.756   8.769  19.301  0.00  0.00    +0.000 OA
ENDROOT
BRANCH   1  10
ATOM      6  C   UNL     1      -1.230  14.875  20.136  0.00  0.00    +0.000 A 
ATOM      7  C   UNL     1      -0.093  14.137  19.795  0.00  0.00    +0.000 A 
ATOM      8  C   UNL     1      -0.042  12.765  20.107  0.00  0.00    +0.000 A 
ATOM      9  C   UNL     1       0.922  11.748  19.888  0.00  0.00    +0.000 A 
ATOM     10  C   UNL     1       0.416  10.559  20.374  0.00  0.00    +0.000 A 
ATOM     11  N   UNL     1      -0.814  10.835  20.920  0.00  0.00    +0.000 N 
ATOM     12  C   UNL     1      -1.125  12.171  20.752  0.00  0.00    +0.000 A 
ATOM     13  C   UNL     1      -2.274  12.894  21.107  0.00  0.00    +0.000 A 
ATOM     14  C   UNL     1      -2.306  14.263  20.787  0.00  0.00    +0.000 A 
ATOM     15  H   UNL     1      -1.416  10.150  21.355  0.00  0.00    +0.000 HD
BRANCH  14  16
ATOM     16  C   UNL     1      -3.504  15.069  21.132  0.00  0.00    +0.000 C 
ATOM     17  N   UNL     1      -4.059  15.006  22.318  0.00  0.00    +0.000 NA
ATOM     18  C   UNL     1      -5.223  15.932  22.226  0.00  0.00    +0.000 C 
ATOM     19  C   UNL     1      -4.979  16.796  20.987  0.00  0.00    +0.000 C 
ATOM     20  N   UNL     1      -4.079  15.948  20.240  0.00  0.00    +0.000 N 
ATOM     21  H   UNL     1      -3.450  16.416  19.596  0.00  0.00    +0.000 HD
ENDBRANCH  14  16
ENDBRANCH   1  10
BRANCH   4  22
ATOM     22  C   UNL     1       2.947   6.659  18.766  0.00  0.00    +0.000 A 
ATOM     23  C   UNL     1       3.148   5.295  18.826  0.00  0.00    +0.000 A 
ATOM     24  C   UNL     1       3.964   4.919  17.733  0.00  0.00    +0.000 A 
ATOM     25  C   UNL     1       4.460   3.685  17.282  0.00  0.00    +0.000 A 
ATOM     26  C   UNL     1       5.255   3.650  16.135  0.00  0.00    +0.000 A 
ATOM     27  C   UNL     1       5.564   4.822  15.440  0.00  0.00    +0.000 A 
ATOM     28  C   UNL     1       5.097   6.068  15.884  0.00  0.00    +0.000 A 
ATOM     29  C   UNL     1       4.285   6.084  17.032  0.00  0.00    +0.000 A 
ATOM     30  N   UNL     1       3.667   7.127  17.693  0.00  0.00    +0.000 N 
ATOM     31  H   UNL     1       3.713   8.097  17.414  0.00  0.00    +0.000 HD
BRANCH  27  32
ATOM     32  C   UNL     1       6.424   4.724  14.234  0.00  0.00    +0.000 C 
ATOM     33  N   UNL     1       7.481   5.480  14.070  0.00  0.00    +0.000 NA
ATOM     34  C   UNL     1       8.040   5.079  12.748  0.00  0.00    +0.000 C 
ATOM     35  C   UNL     1       7.152   3.963  12.193  0.00  0.00    +0.000 C 
ATOM     36  N   UNL     1       6.167   3.817  13.232  0.00  0.00    +0.000 N 
ATOM     37  H   UNL     1       5.201   3.668  12.964  0.00  0.00    +0.000 HD
ENDBRANCH  27  32
ENDBRANCH   4  22
TORSDOF 4
ENDMDL
MODEL 8
REMARK VINA RESULT:      -8.3      4.040      5.186
REMARK  Name = 
REMARK  4 active torsions:
REMARK  status: ('A' for Active; 'I' for Inactive)
REMARK    1  A    between atoms: C_5  and  C_6
REMARK    2  A    between atoms: C_9  and  C_10
REMARK    3  A    between atoms: C_15  and  C_16
REMARK    4  A    between atoms: C_28  and  C_29
REMARK                            x       y       z     vdW  Elec       q    Type
REMARK                         _______ _______ _______ _____ _____    ______ ____
ROOT
ATOM      1  C   UNL     1       2.309   7.257  18.596  0.00  0.00    +0.000 A 
ATOM      2  C   UNL     1       2.810   8.162  17.680  0.00  0.00    +0.000 A 
ATOM      3  C   UNL     1       2.183   9.398  17.928  0.00  0.00    +0.000 A 
ATOM      4  C   UNL     1       1.313   9.210  18.985  0.00  0.00    +0.000 A 
ATOM      5  O   UNL     1       1.391   7.899  19.392  0.00  0.00    +0.000 OA
ENDROOT
BRANCH   1  10
ATOM      6  C   UNL     1       3.816   1.399  18.753  0.00  0.00    +0.000 A 
ATOM      7  C   UNL     1       3.052   2.311  18.018  0.00  0.00    +0.000 A 
ATOM      8  C   UNL     1       2.989   3.653  18.437  0.00  0.00    +0.000 A 
ATOM      9  C   UNL     1       2.346   4.808  17.924  0.00  0.00    +0.000 A 
ATOM     10  C   UNL     1       2.670   5.879  18.733  0.00  0.00    +0.000 A 
ATOM     11  N   UNL     1       3.460   5.397  19.747  0.00  0.00    +0.000 N 
ATOM     12  C   UNL     1       3.687   4.045  19.579  0.00  0.00    +0.000 A 
ATOM     13  C   UNL     1       4.455   3.145  20.333  0.00  0.00    +0.000 A 
ATOM     14  C   UNL     1       4.506   1.809  19.897  0.00  0.00    +0.000 A 
ATOM     15  H   UNL     1       3.845   5.961  20.492  0.00  0.00    +0.000 HD
BRANCH  14  16
ATOM     16  C   UNL     1       5.314   0.821  20.655  0.00  0.00    +0.000 C 
ATOM     17  N   UNL     1       5.646   1.018  21.908  0.00  0.00    +0.000 NA
ATOM     18  C   UNL     1       6.461  -0.179  22.263  0.00  0.00    +0.000 C 
ATOM     19  C   UNL     1       6.181  -1.218  21.176  0.00  0.00    +0.000 C 
ATOM     20  N   UNL     1       5.734  -0.367  20.097  0.00  0.00    +0.000 N 
ATOM     21  H   UNL     1       5.113  -0.792  19.416  0.00  0.00    +0.000 HD
ENDBRANCH  14  16
ENDBRANCH   1  10
BRANCH   4  22
ATOM     22  C   UNL     1       0.447  10.187  19.571  0.00  0.00    +0.000 A 
ATOM     23  C   UNL     1      -0.716  10.733  19.066  0.00  0.00    +0.000 A 
ATOM     24  C   UNL     1      -1.254  11.608  20.038  0.00  0.00    +0.000 A 
ATOM     25  C   UNL     1      -2.413  12.399  20.084  0.00  0.00    +0.000 A 
ATOM     26  C   UNL     1      -2.668  13.166  21.222  0.00  0.00    +0.000 A 
ATOM     27  C   UNL     1      -1.787  13.156  22.307  0.00  0.00    +0.000 A 
ATOM     28  C   UNL     1      -0.613  12.388  22.274  0.00  0.00    +0.000 A 
ATOM     29  C   UNL     1      -0.379  11.611  21.127  0.00  0.00    +0.000 A 
ATOM     30  N   UNL     1       0.654  10.752  20.807  0.00  0.00    +0.000 N 
ATOM     31  H   UNL     1       1.441  10.544  21.406  0.00  0.00    +0.000 HD
BRANCH  27  32
ATOM     32  C   UNL     1      -2.105  14.000  23.486  0.00  0.00    +0.000 C 
ATOM     33  N   UNL     1      -3.338  14.242  23.855  0.00  0.00    +0.000 NA
ATOM     34  C   UNL     1      -3.216  15.125  25.050  0.00  0.00    +0.000 C 
ATOM     35  C   UNL     1      -1.723  15.331  25.318  0.00  0.00    +0.000 C 
ATOM     36  N   UNL     1      -1.118  14.558  24.265  0.00  0.00    +0.000 N 
ATOM     37  H   UNL     1      -0.301  14.933  23.798  0.00  0.00    +0.000 HD
ENDBRANCH  27  32
ENDBRANCH   4  22
TORSDOF 4
ENDMDL
MODEL 9
REMARK VINA RESULT:      -8.3      1.677      2.404
REMARK  Name = 
REMARK  4 active torsions:
REMARK  status: ('A' for Active; 'I' for Inactive)
REMARK    1  A    between atoms: C_5  and  C_6
REMARK    2  A    between atoms: C_9  and  C_10
REMARK    3  A    between atoms: C_15  and  C_16
REMARK    4  A    between atoms: C_28  and  C_29
REMARK                            x       y       z     vdW  Elec       q    Type
REMARK                         _______ _______ _______ _____ _____    ______ ____
ROOT
ATOM      1  C   UNL     1       2.163   7.413  19.596  0.00  0.00    +0.000 A 
ATOM      2  C   UNL     1       1.625   7.090  20.827  0.00  0.00    +0.000 A 
ATOM      3  C   UNL     1       0.906   8.215  21.276  0.00  0.00    +0.000 A 
ATOM      4  C   UNL     1       1.033   9.194  20.308  0.00  0.00    +0.000 A 
ATOM      5  O   UNL     1       1.802   8.701  19.281  0.00  0.00    +0.000 OA
ENDROOT
BRANCH   1  10
ATOM      6  C   UNL     1       5.234   3.541  16.104  0.00  0.00    +0.000 A 
ATOM      7  C   UNL     1       4.415   3.577  17.237  0.00  0.00    +0.000 A 
ATOM      8  C   UNL     1       3.949   4.818  17.712  0.00  0.00    +0.000 A 
ATOM      9  C   UNL     1       3.109   5.199  18.789  0.00  0.00    +0.000 A 
ATOM     10  C   UNL     1       2.956   6.571  18.755  0.00  0.00    +0.000 A 
ATOM     11  N   UNL     1       3.715   7.037  17.709  0.00  0.00    +0.000 N 
ATOM     12  C   UNL     1       4.316   5.985  17.045  0.00  0.00    +0.000 A 
ATOM     13  C   UNL     1       5.139   5.971  15.909  0.00  0.00    +0.000 A 
ATOM     14  C   UNL     1       5.594   4.723  15.450  0.00  0.00    +0.000 A 
ATOM     15  H   UNL     1       3.796   8.010  17.448  0.00  0.00    +0.000 HD
BRANCH  14  16
ATOM     16  C   UNL     1       6.459   4.654  14.245  0.00  0.00    +0.000 C 
ATOM     17  N   UNL     1       6.172   3.871  13.234  0.00  0.00    +0.000 NA
ATOM     18  C   UNL     1       7.292   4.087  12.275  0.00  0.00    +0.000 C 
ATOM     19  C   UNL     1       7.988   5.374  12.720  0.00  0.00    +0.000 C 
ATOM     20  N   UNL     1       7.590   5.429  14.109  0.00  0.00    +0.000 N 
ATOM     21  H   UNL     1       7.562   6.350  14.533  0.00  0.00    +0.000 HD
ENDBRANCH  14  16
ENDBRANCH   1  10
BRANCH   4  22
ATOM     22  C   UNL     1       0.484  10.516  20.345  0.00  0.00    +0.000 A 
ATOM     23  C   UNL     1       0.619  11.538  19.427  0.00  0.00    +0.000 A 
ATOM     24  C   UNL     1      -0.162  12.633  19.866  0.00  0.00    +0.000 A 
ATOM     25  C   UNL     1      -0.422  13.904  19.331  0.00  0.00    +0.000 A 
ATOM     26  C   UNL     1      -1.266  14.774  20.025  0.00  0.00    +0.000 A 
ATOM     27  C   UNL     1      -1.846  14.397  21.238  0.00  0.00    +0.000 A 
ATOM     28  C   UNL     1      -1.583  13.139  21.802  0.00  0.00    +0.000 A 
ATOM     29  C   UNL     1      -0.743  12.270  21.083  0.00  0.00    +0.000 A 
ATOM     30  N   UNL     1      -0.320  10.984  21.357  0.00  0.00    +0.000 N 
ATOM     31  H   UNL     1      -0.582  10.450  22.173  0.00  0.00    +0.000 HD
BRANCH  27  32
ATOM     32  C   UNL     1      -2.725  15.368  21.936  0.00  0.00    +0.000 C 
ATOM     33  N   UNL     1      -3.908  15.037  22.386  0.00  0.00    +0.000 NA
ATOM     34  C   UNL     1      -4.453  16.283  22.995  0.00  0.00    +0.000 C 
ATOM     35  C   UNL     1      -3.388  17.372  22.841  0.00  0.00    +0.000 C 
ATOM     36  N   UNL     1      -2.331  16.667  22.165  0.00  0.00    +0.000 N 
ATOM     37  H   UNL     1      -1.826  17.145  21.428  0.00  0.00    +0.000 HD
ENDBRANCH  27  32
ENDBRANCH   4  22
TORSDOF 4
ENDMDL
