MODEL 1
REMARK VINA RESULT:      -7.8      0.000      0.000
REMARK  Name = 
REMARK  4 active torsions:
REMARK  status: ('A' for Active; 'I' for Inactive)
REMARK    1  A    between atoms: N_22  and  O_23
REMARK    2  A    between atoms: O_23  and  C_24
REMARK    3  A    between atoms: C_24  and  C_25
REMARK    4  A    between atoms: C_25  and  N_26
REMARK                            x       y       z     vdW  Elec       q    Type
REMARK                         _______ _______ _______ _____ _____    ______ ____
ROOT
ATOM      1  O   UNL     1       2.057   4.527  21.369  0.00  0.00    +0.000 OA
ATOM      2  C   UNL     1       2.576   4.909  20.334  0.00  0.00    +0.000 C 
ATOM      3  N   UNL     1       3.247   4.083  19.502  0.00  0.00    +0.000 N 
ATOM      4  C   UNL     1       3.704   4.838  18.408  0.00  0.00    +0.000 A 
ATOM      5  C   UNL     1       4.466   4.356  17.337  0.00  0.00    +0.000 A 
ATOM      6  C   UNL     1       4.877   5.259  16.344  0.00  0.00    +0.000 A 
ATOM      7  C   UNL     1       4.549   6.614  16.453  0.00  0.00    +0.000 A 
ATOM      8  F   UNL     1       4.972   7.494  15.506  0.00  0.00    +0.000 F 
ATOM      9  C   UNL     1       3.803   7.078  17.536  0.00  0.00    +0.000 A 
ATOM     10  C   UNL     1       3.336   6.170  18.518  0.00  0.00    +0.000 A 
ATOM     11  C   UNL     1       2.513   6.282  19.782  0.00  0.00    +0.000 C 
ATOM     12  C   UNL     1       1.823   7.339  20.325  0.00  0.00    +0.000 C 
ATOM     13  N   UNL     1       1.140   7.372  21.587  0.00  0.00    +0.000 N 
ATOM     14  C   UNL     1       0.591   8.680  21.741  0.00  0.00    +0.000 A 
ATOM     15  C   UNL     1      -0.142   9.200  22.821  0.00  0.00    +0.000 A 
ATOM     16  C   UNL     1      -0.601  10.537  22.735  0.00  0.00    +0.000 A 
ATOM     17  C   UNL     1      -0.325  11.322  21.599  0.00  0.00    +0.000 A 
ATOM     18  F   UNL     1      -0.774  12.600  21.515  0.00  0.00    +0.000 F 
ATOM     19  C   UNL     1       0.410  10.785  20.541  0.00  0.00    +0.000 A 
ATOM     20  C   UNL     1       0.857   9.467  20.646  0.00  0.00    +0.000 A 
ATOM     21  C   UNL     1       1.602   8.647  19.714  0.00  0.00    +0.000 C 
ATOM     22  N   UNL     1       1.891   8.946  18.516  0.00  0.00    +0.000 NA
ATOM     23  H   UNL     1       3.411   3.076  19.650  0.00  0.00    +0.000 HD
ATOM     24  H   UNL     1       1.069   6.616  22.278  0.00  0.00    +0.000 HD
ENDROOT
BRANCH  22  25
ATOM     25  O   UNL     1       1.643  10.119  18.007  0.00  0.00    +0.000 OA
BRANCH  25  26
ATOM     26  C   UNL     1       2.656  11.011  17.824  0.00  0.00    +0.000 C 
BRANCH  26  27
ATOM     27  C   UNL     1       2.054  12.395  17.963  0.00  0.00    +0.000 C 
BRANCH  27  28
ATOM     28  N   UNL     1       2.768  13.248  18.936  0.00  0.00    +0.000 NA
ATOM     29  C   UNL     1       1.806  14.062  19.704  0.00  0.00    +0.000 C 
ATOM     30  C   UNL     1       1.303  15.259  18.874  0.00  0.00    +0.000 C 
ATOM     31  O   UNL     1       2.387  16.071  18.470  0.00  0.00    +0.000 OA
ATOM     32  C   UNL     1       3.236  15.324  17.621  0.00  0.00    +0.000 C 
ATOM     33  C   UNL     1       3.826  14.119  18.373  0.00  0.00    +0.000 C 
ENDBRANCH  27  28
ENDBRANCH  26  27
ENDBRANCH  25  26
ENDBRANCH  22  25
TORSDOF 4
ENDMDL
MODEL 2
REMARK VINA RESULT:      -7.5      0.585      1.048
REMARK  Name = 
REMARK  4 active torsions:
REMARK  status: ('A' for Active; 'I' for Inactive)
REMARK    1  A    between atoms: N_22  and  O_23
REMARK    2  A    between atoms: O_23  and  C_24
REMARK    3  A    between atoms: C_24  and  C_25
REMARK    4  A    between atoms: C_25  and  N_26
REMARK                            x       y       z     vdW  Elec       q    Type
REMARK                         _______ _______ _______ _____ _____    ______ ____
ROOT
ATOM      1  O   UNL     1       2.221   4.542  21.449  0.00  0.00    +0.000 OA
ATOM      2  C   UNL     1       2.706   4.925  20.398  0.00  0.00    +0.000 C 
ATOM      3  N   UNL     1       3.412   4.115  19.578  0.00  0.00    +0.000 N 
ATOM      4  C   UNL     1       3.815   4.866  18.460  0.00  0.00    +0.000 A 
ATOM      5  C   UNL     1       4.590   4.400  17.392  0.00  0.00    +0.000 A 
ATOM      6  C   UNL     1       4.940   5.299  16.372  0.00  0.00    +0.000 A 
ATOM      7  C   UNL     1       4.540   6.636  16.452  0.00  0.00    +0.000 A 
ATOM      8  F   UNL     1       4.904   7.513  15.479  0.00  0.00    +0.000 F 
ATOM      9  C   UNL     1       3.782   7.086  17.532  0.00  0.00    +0.000 A 
ATOM     10  C   UNL     1       3.376   6.179  18.543  0.00  0.00    +0.000 A 
ATOM     11  C   UNL     1       2.563   6.278  19.814  0.00  0.00    +0.000 C 
ATOM     12  C   UNL     1       1.822   7.310  20.340  0.00  0.00    +0.000 C 
ATOM     13  N   UNL     1       1.153   7.338  21.609  0.00  0.00    +0.000 N 
ATOM     14  C   UNL     1       0.536   8.618  21.737  0.00  0.00    +0.000 A 
ATOM     15  C   UNL     1      -0.211   9.125  22.813  0.00  0.00    +0.000 A 
ATOM     16  C   UNL     1      -0.744  10.432  22.701  0.00  0.00    +0.000 A 
ATOM     17  C   UNL     1      -0.523  11.202  21.542  0.00  0.00    +0.000 A 
ATOM     18  F   UNL     1      -1.042  12.451  21.433  0.00  0.00    +0.000 F 
ATOM     19  C   UNL     1       0.227  10.679  20.489  0.00  0.00    +0.000 A 
ATOM     20  C   UNL     1       0.746   9.390  20.620  0.00  0.00    +0.000 A 
ATOM     21  C   UNL     1       1.523   8.589  19.699  0.00  0.00    +0.000 C 
ATOM     22  N   UNL     1       1.782   8.872  18.491  0.00  0.00    +0.000 NA
ATOM     23  H   UNL     1       3.632   3.123  19.748  0.00  0.00    +0.000 HD
ATOM     24  H   UNL     1       1.131   6.597  22.319  0.00  0.00    +0.000 HD
ENDROOT
BRANCH  22  25
ATOM     25  O   UNL     1       1.466  10.017  17.956  0.00  0.00    +0.000 OA
BRANCH  25  26
ATOM     26  C   UNL     1       2.440  10.909  17.626  0.00  0.00    +0.000 C 
BRANCH  26  27
ATOM     27  C   UNL     1       2.373  12.032  18.642  0.00  0.00    +0.000 C 
BRANCH  27  28
ATOM     28  N   UNL     1       2.048  13.343  18.044  0.00  0.00    +0.000 NA
ATOM     29  C   UNL     1       3.202  14.256  18.156  0.00  0.00    +0.000 C 
ATOM     30  C   UNL     1       3.324  14.826  19.583  0.00  0.00    +0.000 C 
ATOM     31  O   UNL     1       2.143  15.516  19.941  0.00  0.00    +0.000 OA
ATOM     32  C   UNL     1       1.062  14.605  19.965  0.00  0.00    +0.000 C 
ATOM     33  C   UNL     1       0.831  14.005  18.568  0.00  0.00    +0.000 C 
ENDBRANCH  27  28
ENDBRANCH  26  27
ENDBRANCH  25  26
ENDBRANCH  22  25
TORSDOF 4
ENDMDL
MODEL 3
REMARK VINA RESULT:      -7.4      3.028      7.278
REMARK  Name = 
REMARK  4 active torsions:
REMARK  status: ('A' for Active; 'I' for Inactive)
REMARK    1  A    between atoms: N_22  and  O_23
REMARK    2  A    between atoms: O_23  and  C_24
REMARK    3  A    between atoms: C_24  and  C_25
REMARK    4  A    between atoms: C_25  and  N_26
REMARK                            x       y       z     vdW  Elec       q    Type
REMARK                         _______ _______ _______ _____ _____    ______ ____
ROOT
ATOM      1  O   UNL     1      -0.759   8.142  22.379  0.00  0.00    +0.000 OA
ATOM      2  C   UNL     1      -0.180   8.832  21.556  0.00  0.00    +0.000 C 
ATOM      3  N   UNL     1      -0.329  10.173  21.489  0.00  0.00    +0.000 N 
ATOM      4  C   UNL     1       0.479  10.652  20.443  0.00  0.00    +0.000 A 
ATOM      5  C   UNL     1       0.586  11.986  20.031  0.00  0.00    +0.000 A 
ATOM      6  C   UNL     1       1.411  12.287  18.936  0.00  0.00    +0.000 A 
ATOM      7  C   UNL     1       2.082  11.261  18.264  0.00  0.00    +0.000 A 
ATOM      8  F   UNL     1       2.857  11.551  17.185  0.00  0.00    +0.000 F 
ATOM      9  C   UNL     1       1.950   9.937  18.678  0.00  0.00    +0.000 A 
ATOM     10  C   UNL     1       1.163   9.623  19.814  0.00  0.00    +0.000 A 
ATOM     11  C   UNL     1       0.805   8.356  20.558  0.00  0.00    +0.000 C 
ATOM     12  C   UNL     1       1.261   7.066  20.425  0.00  0.00    +0.000 C 
ATOM     13  N   UNL     1       0.790   5.904  21.124  0.00  0.00    +0.000 N 
ATOM     14  C   UNL     1       1.540   4.787  20.647  0.00  0.00    +0.000 A 
ATOM     15  C   UNL     1       1.424   3.436  21.014  0.00  0.00    +0.000 A 
ATOM     16  C   UNL     1       2.301   2.502  20.409  0.00  0.00    +0.000 A 
ATOM     17  C   UNL     1       3.256   2.920  19.462  0.00  0.00    +0.000 A 
ATOM     18  F   UNL     1       4.101   2.025  18.891  0.00  0.00    +0.000 F 
ATOM     19  C   UNL     1       3.348   4.267  19.110  0.00  0.00    +0.000 A 
ATOM     20  C   UNL     1       2.473   5.171  19.715  0.00  0.00    +0.000 A 
ATOM     21  C   UNL     1       2.354   6.607  19.573  0.00  0.00    +0.000 C 
ATOM     22  N   UNL     1       3.146   7.366  18.938  0.00  0.00    +0.000 NA
ATOM     23  H   UNL     1      -0.941  10.746  22.088  0.00  0.00    +0.000 HD
ATOM     24  H   UNL     1       0.039   5.857  21.822  0.00  0.00    +0.000 HD
ENDROOT
BRANCH  22  25
ATOM     25  O   UNL     1       4.128   6.908  18.215  0.00  0.00    +0.000 OA
BRANCH  25  26
ATOM     26  C   UNL     1       4.337   7.395  16.960  0.00  0.00    +0.000 C 
BRANCH  26  27
ATOM     27  C   UNL     1       4.952   6.272  16.148  0.00  0.00    +0.000 C 
BRANCH  27  28
ATOM     28  N   UNL     1       6.407   6.427  15.945  0.00  0.00    +0.000 NA
ATOM     29  C   UNL     1       6.941   5.280  15.185  0.00  0.00    +0.000 C 
ATOM     30  C   UNL     1       7.097   4.039  16.086  0.00  0.00    +0.000 C 
ATOM     31  O   UNL     1       7.957   4.323  17.172  0.00  0.00    +0.000 OA
ATOM     32  C   UNL     1       7.374   5.331  17.975  0.00  0.00    +0.000 C 
ATOM     33  C   UNL     1       7.210   6.632  17.173  0.00  0.00    +0.000 C 
ENDBRANCH  27  28
ENDBRANCH  26  27
ENDBRANCH  25  26
ENDBRANCH  22  25
TORSDOF 4
ENDMDL
MODEL 4
REMARK VINA RESULT:      -7.3      5.637      8.498
REMARK  Name = 
REMARK  4 active torsions:
REMARK  status: ('A' for Active; 'I' for Inactive)
REMARK    1  A    between atoms: N_22  and  O_23
REMARK    2  A    between atoms: O_23  and  C_24
REMARK    3  A    between atoms: C_24  and  C_25
REMARK    4  A    between atoms: C_25  and  N_26
REMARK                            x       y       z     vdW  Elec       q    Type
REMARK                         _______ _______ _______ _____ _____    ______ ____
ROOT
ATOM      1  O   UNL     1      -7.669  12.958  18.222  0.00  0.00    +0.000 OA
ATOM      2  C   UNL     1      -6.552  12.508  18.025  0.00  0.00    +0.000 C 
ATOM      3  N   UNL     1      -6.216  11.852  16.893  0.00  0.00    +0.000 N 
ATOM      4  C   UNL     1      -4.864  11.479  16.987  0.00  0.00    +0.000 A 
ATOM      5  C   UNL     1      -4.141  10.757  16.030  0.00  0.00    +0.000 A 
ATOM      6  C   UNL     1      -2.803  10.430  16.303  0.00  0.00    +0.000 A 
ATOM      7  C   UNL     1      -2.229  10.800  17.523  0.00  0.00    +0.000 A 
ATOM      8  F   UNL     1      -0.942  10.458  17.799  0.00  0.00    +0.000 F 
ATOM      9  C   UNL     1      -2.970  11.505  18.471  0.00  0.00    +0.000 A 
ATOM     10  C   UNL     1      -4.305  11.888  18.188  0.00  0.00    +0.000 A 
ATOM     11  C   UNL     1      -5.385  12.647  18.925  0.00  0.00    +0.000 C 
ATOM     12  C   UNL     1      -5.357  13.345  20.109  0.00  0.00    +0.000 C 
ATOM     13  N   UNL     1      -6.467  13.962  20.777  0.00  0.00    +0.000 N 
ATOM     14  C   UNL     1      -5.968  14.549  21.979  0.00  0.00    +0.000 A 
ATOM     15  C   UNL     1      -6.678  15.242  22.974  0.00  0.00    +0.000 A 
ATOM     16  C   UNL     1      -5.954  15.753  24.079  0.00  0.00    +0.000 A 
ATOM     17  C   UNL     1      -4.562  15.564  24.176  0.00  0.00    +0.000 A 
ATOM     18  F   UNL     1      -3.868  16.061  25.231  0.00  0.00    +0.000 F 
ATOM     19  C   UNL     1      -3.880  14.866  23.179  0.00  0.00    +0.000 A 
ATOM     20  C   UNL     1      -4.612  14.368  22.099  0.00  0.00    +0.000 A 
ATOM     21  C   UNL     1      -4.181  13.644  20.922  0.00  0.00    +0.000 C 
ATOM     22  N   UNL     1      -2.983  13.428  20.570  0.00  0.00    +0.000 NA
ATOM     23  H   UNL     1      -6.844  11.644  16.103  0.00  0.00    +0.000 HD
ATOM     24  H   UNL     1      -7.449  13.971  20.478  0.00  0.00    +0.000 HD
ENDROOT
BRANCH  22  25
ATOM     25  O   UNL     1      -1.965  13.743  21.319  0.00  0.00    +0.000 OA
BRANCH  25  26
ATOM     26  C   UNL     1      -0.836  12.983  21.291  0.00  0.00    +0.000 C 
BRANCH  26  27
ATOM     27  C   UNL     1      -1.140  11.712  22.060  0.00  0.00    +0.000 C 
BRANCH  27  28
ATOM     28  N   UNL     1       0.071  10.999  22.514  0.00  0.00    +0.000 NA
ATOM     29  C   UNL     1       1.002  10.804  21.386  0.00  0.00    +0.000 C 
ATOM     30  C   UNL     1       0.540   9.647  20.477  0.00  0.00    +0.000 C 
ATOM     31  O   UNL     1       0.443   8.447  21.217  0.00  0.00    +0.000 OA
ATOM     32  C   UNL     1      -0.550   8.595  22.213  0.00  0.00    +0.000 C 
ATOM     33  C   UNL     1      -0.163   9.707  23.201  0.00  0.00    +0.000 C 
ENDBRANCH  27  28
ENDBRANCH  26  27
ENDBRANCH  25  26
ENDBRANCH  22  25
TORSDOF 4
ENDMDL
MODEL 5
REMARK VINA RESULT:      -7.3      5.104      7.087
REMARK  Name = 
REMARK  4 active torsions:
REMARK  status: ('A' for Active; 'I' for Inactive)
REMARK    1  A    between atoms: N_22  and  O_23
REMARK    2  A    between atoms: O_23  and  C_24
REMARK    3  A    between atoms: C_24  and  C_25
REMARK    4  A    between atoms: C_25  and  N_26
REMARK                            x       y       z     vdW  Elec       q    Type
REMARK                         _______ _______ _______ _____ _____    ______ ____
ROOT
ATOM      1  O   UNL     1      -6.873  12.870  18.337  0.00  0.00    +0.000 OA
ATOM      2  C   UNL     1      -5.850  12.287  18.019  0.00  0.00    +0.000 C 
ATOM      3  N   UNL     1      -5.684  11.703  16.812  0.00  0.00    +0.000 N 
ATOM      4  C   UNL     1      -4.399  11.134  16.773  0.00  0.00    +0.000 A 
ATOM      5  C   UNL     1      -3.851  10.413  15.705  0.00  0.00    +0.000 A 
ATOM      6  C   UNL     1      -2.563   9.874  15.849  0.00  0.00    +0.000 A 
ATOM      7  C   UNL     1      -1.868  10.037  17.051  0.00  0.00    +0.000 A 
ATOM      8  F   UNL     1      -0.632   9.489  17.200  0.00  0.00    +0.000 F 
ATOM      9  C   UNL     1      -2.437  10.745  18.109  0.00  0.00    +0.000 A 
ATOM     10  C   UNL     1      -3.714  11.339  17.961  0.00  0.00    +0.000 A 
ATOM     11  C   UNL     1      -4.623  12.170  18.839  0.00  0.00    +0.000 C 
ATOM     12  C   UNL     1      -4.420  12.738  20.075  0.00  0.00    +0.000 C 
ATOM     13  N   UNL     1      -5.383  13.439  20.875  0.00  0.00    +0.000 N 
ATOM     14  C   UNL     1      -4.731  13.828  22.083  0.00  0.00    +0.000 A 
ATOM     15  C   UNL     1      -5.268  14.515  23.185  0.00  0.00    +0.000 A 
ATOM     16  C   UNL     1      -4.410  14.806  24.274  0.00  0.00    +0.000 A 
ATOM     17  C   UNL     1      -3.058  14.412  24.251  0.00  0.00    +0.000 A 
ATOM     18  F   UNL     1      -2.236  14.700  25.291  0.00  0.00    +0.000 F 
ATOM     19  C   UNL     1      -2.550  13.725  23.148  0.00  0.00    +0.000 A 
ATOM     20  C   UNL     1      -3.412  13.445  22.086  0.00  0.00    +0.000 A 
ATOM     21  C   UNL     1      -3.165  12.785  20.821  0.00  0.00    +0.000 C 
ATOM     22  N   UNL     1      -2.036  12.436  20.364  0.00  0.00    +0.000 NA
ATOM     23  H   UNL     1      -6.383  11.666  16.055  0.00  0.00    +0.000 HD
ATOM     24  H   UNL     1      -6.369  13.616  20.651  0.00  0.00    +0.000 HD
ENDROOT
BRANCH  22  25
ATOM     25  O   UNL     1      -0.939  12.528  21.060  0.00  0.00    +0.000 OA
BRANCH  25  26
ATOM     26  C   UNL     1       0.181  11.863  20.661  0.00  0.00    +0.000 C 
BRANCH  26  27
ATOM     27  C   UNL     1       0.729  12.607  19.459  0.00  0.00    +0.000 C 
BRANCH  27  28
ATOM     28  N   UNL     1       2.185  12.846  19.534  0.00  0.00    +0.000 NA
ATOM     29  C   UNL     1       2.518  13.582  20.769  0.00  0.00    +0.000 C 
ATOM     30  C   UNL     1       2.178  15.080  20.634  0.00  0.00    +0.000 C 
ATOM     31  O   UNL     1       2.878  15.648  19.546  0.00  0.00    +0.000 OA
ATOM     32  C   UNL     1       2.453  15.031  18.346  0.00  0.00    +0.000 C 
ATOM     33  C   UNL     1       2.786  13.530  18.365  0.00  0.00    +0.000 C 
ENDBRANCH  27  28
ENDBRANCH  26  27
ENDBRANCH  25  26
ENDBRANCH  22  25
TORSDOF 4
ENDMDL
MODEL 6
REMARK VINA RESULT:      -7.2      7.675      9.045
REMARK  Name = 
REMARK  4 active torsions:
REMARK  status: ('A' for Active; 'I' for Inactive)
REMARK    1  A    between atoms: N_22  and  O_23
REMARK    2  A    between atoms: O_23  and  C_24
REMARK    3  A    between atoms: C_24  and  C_25
REMARK    4  A    between atoms: C_25  and  N_26
REMARK                            x       y       z     vdW  Elec       q    Type
REMARK                         _______ _______ _______ _____ _____    ______ ____
ROOT
ATOM      1  O   UNL     1       9.404   9.993  19.508  0.00  0.00    +0.000 OA
ATOM      2  C   UNL     1       9.854  11.067  19.147  0.00  0.00    +0.000 C 
ATOM      3  N   UNL     1      10.360  11.271  17.911  0.00  0.00    +0.000 N 
ATOM      4  C   UNL     1      10.780  12.610  17.824  0.00  0.00    +0.000 A 
ATOM      5  C   UNL     1      11.385  13.212  16.715  0.00  0.00    +0.000 A 
ATOM      6  C   UNL     1      11.784  14.555  16.812  0.00  0.00    +0.000 A 
ATOM      7  C   UNL     1      11.600  15.252  18.010  0.00  0.00    +0.000 A 
ATOM      8  F   UNL     1      12.013  16.544  18.113  0.00  0.00    +0.000 F 
ATOM      9  C   UNL     1      11.010  14.631  19.110  0.00  0.00    +0.000 A 
ATOM     10  C   UNL     1      10.555  13.293  19.010  0.00  0.00    +0.000 A 
ATOM     11  C   UNL     1       9.872  12.316  19.941  0.00  0.00    +0.000 C 
ATOM     12  C   UNL     1       9.343  12.481  21.200  0.00  0.00    +0.000 C 
ATOM     13  N   UNL     1       8.792  11.462  22.047  0.00  0.00    +0.000 N 
ATOM     14  C   UNL     1       8.389  12.092  23.263  0.00  0.00    +0.000 A 
ATOM     15  C   UNL     1       7.817  11.506  24.404  0.00  0.00    +0.000 A 
ATOM     16  C   UNL     1       7.483  12.348  25.493  0.00  0.00    +0.000 A 
ATOM     17  C   UNL     1       7.723  13.734  25.430  0.00  0.00    +0.000 A 
ATOM     18  F   UNL     1       7.393  14.541  26.471  0.00  0.00    +0.000 F 
ATOM     19  C   UNL     1       8.297  14.293  24.288  0.00  0.00    +0.000 A 
ATOM     20  C   UNL     1       8.622  13.446  23.227  0.00  0.00    +0.000 A 
ATOM     21  C   UNL     1       9.191  13.737  21.928  0.00  0.00    +0.000 C 
ATOM     22  N   UNL     1       9.391  14.889  21.437  0.00  0.00    +0.000 NA
ATOM     23  H   UNL     1      10.439  10.566  17.164  0.00  0.00    +0.000 HD
ATOM     24  H   UNL     1       8.714  10.459  21.848  0.00  0.00    +0.000 HD
ENDROOT
BRANCH  22  25
ATOM     25  O   UNL     1       9.210  15.983  22.121  0.00  0.00    +0.000 OA
BRANCH  25  26
ATOM     26  C   UNL     1       8.783  17.115  21.496  0.00  0.00    +0.000 C 
BRANCH  26  27
ATOM     27  C   UNL     1       7.339  16.883  21.101  0.00  0.00    +0.000 C 
BRANCH  27  28
ATOM     28  N   UNL     1       7.018  17.371  19.744  0.00  0.00    +0.000 NA
ATOM     29  C   UNL     1       5.595  17.129  19.437  0.00  0.00    +0.000 C 
ATOM     30  C   UNL     1       5.347  15.652  19.073  0.00  0.00    +0.000 C 
ATOM     31  O   UNL     1       6.137  15.278  17.961  0.00  0.00    +0.000 OA
ATOM     32  C   UNL     1       7.504  15.382  18.306  0.00  0.00    +0.000 C 
ATOM     33  C   UNL     1       7.865  16.836  18.651  0.00  0.00    +0.000 C 
ENDBRANCH  27  28
ENDBRANCH  26  27
ENDBRANCH  25  26
ENDBRANCH  22  25
TORSDOF 4
ENDMDL
MODEL 7
REMARK VINA RESULT:      -7.2      5.089      7.236
REMARK  Name = 
REMARK  4 active torsions:
REMARK  status: ('A' for Active; 'I' for Inactive)
REMARK    1  A    between atoms: N_22  and  O_23
REMARK    2  A    between atoms: O_23  and  C_24
REMARK    3  A    between atoms: C_24  and  C_25
REMARK    4  A    between atoms: C_25  and  N_26
REMARK                            x       y       z     vdW  Elec       q    Type
REMARK                         _______ _______ _______ _____ _____    ______ ____
ROOT
ATOM      1  O   UNL     1      -6.870  12.553  17.848  0.00  0.00    +0.000 OA
ATOM      2  C   UNL     1      -5.776  12.034  17.702  0.00  0.00    +0.000 C 
ATOM      3  N   UNL     1      -5.404  11.417  16.559  0.00  0.00    +0.000 N 
ATOM      4  C   UNL     1      -4.091  10.942  16.723  0.00  0.00    +0.000 A 
ATOM      5  C   UNL     1      -3.353  10.222  15.777  0.00  0.00    +0.000 A 
ATOM      6  C   UNL     1      -2.064   9.785  16.122  0.00  0.00    +0.000 A 
ATOM      7  C   UNL     1      -1.556  10.046  17.398  0.00  0.00    +0.000 A 
ATOM      8  F   UNL     1      -0.319   9.596  17.741  0.00  0.00    +0.000 F 
ATOM      9  C   UNL     1      -2.313  10.751  18.332  0.00  0.00    +0.000 A 
ATOM     10  C   UNL     1      -3.594  11.244  17.982  0.00  0.00    +0.000 A 
ATOM     11  C   UNL     1      -4.670  12.040  18.686  0.00  0.00    +0.000 C 
ATOM     12  C   UNL     1      -4.680  12.669  19.909  0.00  0.00    +0.000 C 
ATOM     13  N   UNL     1      -5.791  13.329  20.534  0.00  0.00    +0.000 N 
ATOM     14  C   UNL     1      -5.341  13.812  21.800  0.00  0.00    +0.000 A 
ATOM     15  C   UNL     1      -6.072  14.500  22.783  0.00  0.00    +0.000 A 
ATOM     16  C   UNL     1      -5.396  14.897  23.963  0.00  0.00    +0.000 A 
ATOM     17  C   UNL     1      -4.031  14.602  24.144  0.00  0.00    +0.000 A 
ATOM     18  F   UNL     1      -3.383  14.990  25.272  0.00  0.00    +0.000 F 
ATOM     19  C   UNL     1      -3.328  13.912  23.156  0.00  0.00    +0.000 A 
ATOM     20  C   UNL     1      -4.013  13.527  22.002  0.00  0.00    +0.000 A 
ATOM     21  C   UNL     1      -3.549  12.838  20.817  0.00  0.00    +0.000 C 
ATOM     22  N   UNL     1      -2.345  12.554  20.535  0.00  0.00    +0.000 NA
ATOM     23  H   UNL     1      -5.986  11.299  15.717  0.00  0.00    +0.000 HD
ATOM     24  H   UNL     1      -6.746  13.425  20.170  0.00  0.00    +0.000 HD
ENDROOT
BRANCH  22  25
ATOM     25  O   UNL     1      -1.365  12.753  21.370  0.00  0.00    +0.000 OA
BRANCH  25  26
ATOM     26  C   UNL     1      -0.485  11.750  21.641  0.00  0.00    +0.000 C 
BRANCH  26  27
ATOM     27  C   UNL     1       0.760  12.022  20.822  0.00  0.00    +0.000 C 
BRANCH  27  28
ATOM     28  N   UNL     1       0.683  13.274  20.040  0.00  0.00    +0.000 NA
ATOM     29  C   UNL     1       0.853  12.989  18.602  0.00  0.00    +0.000 C 
ATOM     30  C   UNL     1       2.335  12.746  18.254  0.00  0.00    +0.000 C 
ATOM     31  O   UNL     1       3.116  13.870  18.604  0.00  0.00    +0.000 OA
ATOM     32  C   UNL     1       3.059  14.057  20.005  0.00  0.00    +0.000 C 
ATOM     33  C   UNL     1       1.617  14.348  20.452  0.00  0.00    +0.000 C 
ENDBRANCH  27  28
ENDBRANCH  26  27
ENDBRANCH  25  26
ENDBRANCH  22  25
TORSDOF 4
ENDMDL
MODEL 8
REMARK VINA RESULT:      -7.2      4.535      8.216
REMARK  Name = 
REMARK  4 active torsions:
REMARK  status: ('A' for Active; 'I' for Inactive)
REMARK    1  A    between atoms: N_22  and  O_23
REMARK    2  A    between atoms: O_23  and  C_24
REMARK    3  A    between atoms: C_24  and  C_25
REMARK    4  A    between atoms: C_25  and  N_26
REMARK                            x       y       z     vdW  Elec       q    Type
REMARK                         _______ _______ _______ _____ _____    ______ ____
ROOT
ATOM      1  O   UNL     1      -2.300  10.853  16.108  0.00  0.00    +0.000 OA
ATOM      2  C   UNL     1      -3.089  11.096  17.005  0.00  0.00    +0.000 C 
ATOM      3  N   UNL     1      -4.340  10.585  17.039  0.00  0.00    +0.000 N 
ATOM      4  C   UNL     1      -4.974  11.054  18.202  0.00  0.00    +0.000 A 
ATOM      5  C   UNL     1      -6.290  10.775  18.591  0.00  0.00    +0.000 A 
ATOM      6  C   UNL     1      -6.782  11.363  19.768  0.00  0.00    +0.000 A 
ATOM      7  C   UNL     1      -5.972  12.229  20.507  0.00  0.00    +0.000 A 
ATOM      8  F   UNL     1      -6.459  12.821  21.630  0.00  0.00    +0.000 F 
ATOM      9  C   UNL     1      -4.669  12.508  20.095  0.00  0.00    +0.000 A 
ATOM     10  C   UNL     1      -4.141  11.882  18.939  0.00  0.00    +0.000 A 
ATOM     11  C   UNL     1      -2.816  11.911  18.211  0.00  0.00    +0.000 C 
ATOM     12  C   UNL     1      -1.613  12.490  18.538  0.00  0.00    +0.000 C 
ATOM     13  N   UNL     1      -0.427  12.539  17.731  0.00  0.00    +0.000 N 
ATOM     14  C   UNL     1       0.560  13.259  18.468  0.00  0.00    +0.000 A 
ATOM     15  C   UNL     1       1.872  13.587  18.085  0.00  0.00    +0.000 A 
ATOM     16  C   UNL     1       2.678  14.301  19.004  0.00  0.00    +0.000 A 
ATOM     17  C   UNL     1       2.174  14.675  20.264  0.00  0.00    +0.000 A 
ATOM     18  F   UNL     1       2.951  15.352  21.148  0.00  0.00    +0.000 F 
ATOM     19  C   UNL     1       0.866  14.344  20.620  0.00  0.00    +0.000 A 
ATOM     20  C   UNL     1       0.086  13.643  19.699  0.00  0.00    +0.000 A 
ATOM     21  C   UNL     1      -1.270  13.146  19.797  0.00  0.00    +0.000 C 
ATOM     22  N   UNL     1      -1.995  13.142  20.837  0.00  0.00    +0.000 NA
ATOM     23  H   UNL     1      -4.763   9.971  16.328  0.00  0.00    +0.000 HD
ATOM     24  H   UNL     1      -0.298  12.157  16.787  0.00  0.00    +0.000 HD
ENDROOT
BRANCH  22  25
ATOM     25  O   UNL     1      -1.629  13.715  21.948  0.00  0.00    +0.000 OA
BRANCH  25  26
ATOM     26  C   UNL     1      -1.303  12.957  23.032  0.00  0.00    +0.000 C 
BRANCH  26  27
ATOM     27  C   UNL     1      -1.317  11.511  22.579  0.00  0.00    +0.000 C 
BRANCH  27  28
ATOM     28  N   UNL     1      -0.027  10.821  22.785  0.00  0.00    +0.000 NA
ATOM     29  C   UNL     1       0.786  10.882  21.555  0.00  0.00    +0.000 C 
ATOM     30  C   UNL     1       0.293   9.861  20.511  0.00  0.00    +0.000 C 
ATOM     31  O   UNL     1       0.341   8.551  21.040  0.00  0.00    +0.000 OA
ATOM     32  C   UNL     1      -0.545   8.461  22.138  0.00  0.00    +0.000 C 
ATOM     33  C   UNL     1      -0.115   9.420  23.260  0.00  0.00    +0.000 C 
ENDBRANCH  27  28
ENDBRANCH  26  27
ENDBRANCH  25  26
ENDBRANCH  22  25
TORSDOF 4
ENDMDL
MODEL 9
REMARK VINA RESULT:      -7.2      5.292      8.024
REMARK  Name = 
REMARK  4 active torsions:
REMARK  status: ('A' for Active; 'I' for Inactive)
REMARK    1  A    between atoms: N_22  and  O_23
REMARK    2  A    between atoms: O_23  and  C_24
REMARK    3  A    between atoms: C_24  and  C_25
REMARK    4  A    between atoms: C_25  and  N_26
REMARK                            x       y       z     vdW  Elec       q    Type
REMARK                         _______ _______ _______ _____ _____    ______ ____
ROOT
ATOM      1  O   UNL     1      -7.230  13.034  18.147  0.00  0.00    +0.000 OA
ATOM      2  C   UNL     1      -6.176  12.478  17.892  0.00  0.00    +0.000 C 
ATOM      3  N   UNL     1      -5.926  11.889  16.701  0.00  0.00    +0.000 N 
ATOM      4  C   UNL     1      -4.627  11.356  16.739  0.00  0.00    +0.000 A 
ATOM      5  C   UNL     1      -4.000  10.643  15.710  0.00  0.00    +0.000 A 
ATOM      6  C   UNL     1      -2.707  10.141  15.930  0.00  0.00    +0.000 A 
ATOM      7  C   UNL     1      -2.085  10.333  17.167  0.00  0.00    +0.000 A 
ATOM      8  F   UNL     1      -0.845   9.822  17.389  0.00  0.00    +0.000 F 
ATOM      9  C   UNL     1      -2.731  11.033  18.185  0.00  0.00    +0.000 A 
ATOM     10  C   UNL     1      -4.014  11.590  17.961  0.00  0.00    +0.000 A 
ATOM     11  C   UNL     1      -4.993  12.401  18.780  0.00  0.00    +0.000 C 
ATOM     12  C   UNL     1      -4.875  12.985  20.019  0.00  0.00    +0.000 C 
ATOM     13  N   UNL     1      -5.901  13.664  20.758  0.00  0.00    +0.000 N 
ATOM     14  C   UNL     1      -5.328  14.081  21.997  0.00  0.00    +0.000 A 
ATOM     15  C   UNL     1      -5.944  14.761  23.061  0.00  0.00    +0.000 A 
ATOM     16  C   UNL     1      -5.157  15.085  24.193  0.00  0.00    +0.000 A 
ATOM     17  C   UNL     1      -3.795  14.729  24.249  0.00  0.00    +0.000 A 
ATOM     18  F   UNL     1      -3.040  15.048  25.330  0.00  0.00    +0.000 F 
ATOM     19  C   UNL     1      -3.207  14.049  23.182  0.00  0.00    +0.000 A 
ATOM     20  C   UNL     1      -4.001  13.735  22.077  0.00  0.00    +0.000 A 
ATOM     21  C   UNL     1      -3.666  13.073  20.834  0.00  0.00    +0.000 C 
ATOM     22  N   UNL     1      -2.504  12.752  20.443  0.00  0.00    +0.000 NA
ATOM     23  H   UNL     1      -6.581  11.826  15.908  0.00  0.00    +0.000 HD
ATOM     24  H   UNL     1      -6.877  13.813  20.478  0.00  0.00    +0.000 HD
ENDROOT
BRANCH  22  25
ATOM     25  O   UNL     1      -1.450  12.880  21.198  0.00  0.00    +0.000 OA
BRANCH  25  26
ATOM     26  C   UNL     1      -0.217  13.007  20.634  0.00  0.00    +0.000 C 
BRANCH  26  27
ATOM     27  C   UNL     1       0.580  11.782  21.037  0.00  0.00    +0.000 C 
BRANCH  27  28
ATOM     28  N   UNL     1      -0.258  10.586  21.257  0.00  0.00    +0.000 NA
ATOM     29  C   UNL     1      -0.031  10.044  22.610  0.00  0.00    +0.000 C 
ATOM     30  C   UNL     1       1.290   9.254  22.679  0.00  0.00    +0.000 C 
ATOM     31  O   UNL     1       1.280   8.192  21.745  0.00  0.00    +0.000 OA
ATOM     32  C   UNL     1       1.199   8.725  20.438  0.00  0.00    +0.000 C 
ATOM     33  C   UNL     1      -0.113   9.505  20.253  0.00  0.00    +0.000 C 
ENDBRANCH  27  28
ENDBRANCH  26  27
ENDBRANCH  25  26
ENDBRANCH  22  25
TORSDOF 4
ENDMDL
