MODEL 1
REMARK VINA RESULT:      -6.5      0.000      0.000
REMARK  Name = 
REMARK  10 active torsions:
REMARK  status: ('A' for Active; 'I' for Inactive)
REMARK    1  A    between atoms: C_2  and  C_17
REMARK    2  A    between atoms: N_3  and  C_4
REMARK    3  A    between atoms: C_4  and  C_5
REMARK    4  A    between atoms: C_5  and  C_6
REMARK    5  A    between atoms: C_6  and  C_7
REMARK    6  A    between atoms: C_7  and  C_8
REMARK    7  A    between atoms: C_8  and  C_9
REMARK    8  A    between atoms: C_9  and  C_10
REMARK    9  A    between atoms: C_10  and  C_11
REMARK   10  A    between atoms: C_11  and  N_12
REMARK                            x       y       z     vdW  Elec       q    Type
REMARK                         _______ _______ _______ _____ _____    ______ ____
ROOT
ATOM      1  C   UNL     1       2.308   4.631  20.996  0.00  0.00    +0.000 C 
ENDROOT
BRANCH   1   4
ATOM      2  O   UNL     1       3.254   6.361  18.991  0.00  0.00    +0.000 OA
ATOM      3  C   UNL     1       2.383   6.753  19.759  0.00  0.00    +0.000 C 
ATOM      4  N   UNL     1       1.859   5.989  20.782  0.00  0.00    +0.000 N 
ATOM      5  H   UNL     1       1.057   6.315  21.302  0.00  0.00    +0.000 HD
BRANCH   3   6
ATOM      6  C   UNL     1       1.799   8.107  19.591  0.00  0.00    +0.000 A 
ATOM      7  C   UNL     1       1.919   8.730  18.341  0.00  0.00    +0.000 A 
ATOM      8  C   UNL     1       1.393  10.007  18.143  0.00  0.00    +0.000 A 
ATOM      9  C   UNL     1       0.758  10.663  19.196  0.00  0.00    +0.000 A 
ATOM     10 BR   UNL     1       0.058  12.399  18.934  0.00  0.00    +0.000 Br
ATOM     11  C   UNL     1       0.646  10.055  20.447  0.00  0.00    +0.000 A 
ATOM     12  C   UNL     1       1.168   8.775  20.648  0.00  0.00    +0.000 A 
ENDBRANCH   3   6
ENDBRANCH   1   4
BRANCH   1  13
ATOM     13  C   UNL     1       1.157   3.632  20.884  0.00  0.00    +0.000 C 
BRANCH  13  14
ATOM     14  C   UNL     1       1.324   2.668  19.707  0.00  0.00    +0.000 C 
BRANCH  14  15
ATOM     15  C   UNL     1       1.410   3.397  18.367  0.00  0.00    +0.000 C 
BRANCH  15  16
ATOM     16  C   UNL     1       2.410   2.741  17.421  0.00  0.00    +0.000 C 
BRANCH  16  17
ATOM     17  C   UNL     1       3.635   2.266  18.201  0.00  0.00    +0.000 C 
BRANCH  17  18
ATOM     18  C   UNL     1       4.650   3.389  18.371  0.00  0.00    +0.000 C 
BRANCH  18  19
ATOM     19  C   UNL     1       5.010   4.004  17.023  0.00  0.00    +0.000 C 
BRANCH  19  20
ATOM     20  N   UNL     1       5.874   5.155  17.179  0.00  0.00    +0.000 N 
ATOM     21  C   UNL     1       6.941   5.256  18.024  0.00  0.00    +0.000 A 
ATOM     22  C   UNL     1       7.446   6.516  17.803  0.00  0.00    +0.000 A 
ATOM     23  N   UNL     1       6.709   7.177  16.852  0.00  0.00    +0.000 NA
ATOM     24  C   UNL     1       5.768   6.332  16.495  0.00  0.00    +0.000 A 
ENDBRANCH  19  20
ENDBRANCH  18  19
ENDBRANCH  17  18
ENDBRANCH  16  17
ENDBRANCH  15  16
ENDBRANCH  14  15
ENDBRANCH  13  14
ENDBRANCH   1  13
TORSDOF 10
ENDMDL
MODEL 2
REMARK VINA RESULT:      -6.3      2.908      4.375
REMARK  Name = 
REMARK  10 active torsions:
REMARK  status: ('A' for Active; 'I' for Inactive)
REMARK    1  A    between atoms: C_2  and  C_17
REMARK    2  A    between atoms: N_3  and  C_4
REMARK    3  A    between atoms: C_4  and  C_5
REMARK    4  A    between atoms: C_5  and  C_6
REMARK    5  A    between atoms: C_6  and  C_7
REMARK    6  A    between atoms: C_7  and  C_8
REMARK    7  A    between atoms: C_8  and  C_9
REMARK    8  A    between atoms: C_9  and  C_10
REMARK    9  A    between atoms: C_10  and  C_11
REMARK   10  A    between atoms: C_11  and  N_12
REMARK                            x       y       z     vdW  Elec       q    Type
REMARK                         _______ _______ _______ _____ _____    ______ ____
ROOT
ATOM      1  C   UNL     1       2.201   9.361  17.922  0.00  0.00    +0.000 C 
ENDROOT
BRANCH   1   4
ATOM      2  O   UNL     1       0.665  10.903  19.701  0.00  0.00    +0.000 OA
ATOM      3  C   UNL     1       0.131  10.424  18.708  0.00  0.00    +0.000 C 
ATOM      4  N   UNL     1       0.791   9.646  17.779  0.00  0.00    +0.000 N 
ATOM      5  H   UNL     1       0.335   9.385  16.917  0.00  0.00    +0.000 HD
BRANCH   3   6
ATOM      6  C   UNL     1      -1.299  10.708  18.424  0.00  0.00    +0.000 A 
ATOM      7  C   UNL     1      -1.968  11.627  19.244  0.00  0.00    +0.000 A 
ATOM      8  C   UNL     1      -3.315  11.915  19.018  0.00  0.00    +0.000 A 
ATOM      9  C   UNL     1      -3.991  11.276  17.981  0.00  0.00    +0.000 A 
ATOM     10 BR   UNL     1      -5.820  11.653  17.682  0.00  0.00    +0.000 Br
ATOM     11  C   UNL     1      -3.336  10.351  17.167  0.00  0.00    +0.000 A 
ATOM     12  C   UNL     1      -1.987  10.063  17.389  0.00  0.00    +0.000 A 
ENDBRANCH   3   6
ENDBRANCH   1   4
BRANCH   1  13
ATOM     13  C   UNL     1       2.452   7.876  18.182  0.00  0.00    +0.000 C 
BRANCH  13  14
ATOM     14  C   UNL     1       2.046   7.447  19.594  0.00  0.00    +0.000 C 
BRANCH  14  15
ATOM     15  C   UNL     1       2.470   6.013  19.910  0.00  0.00    +0.000 C 
BRANCH  15  16
ATOM     16  C   UNL     1       1.354   5.221  20.584  0.00  0.00    +0.000 C 
BRANCH  16  17
ATOM     17  C   UNL     1       1.213   3.850  19.925  0.00  0.00    +0.000 C 
BRANCH  17  18
ATOM     18  C   UNL     1       1.539   3.917  18.438  0.00  0.00    +0.000 C 
BRANCH  18  19
ATOM     19  C   UNL     1       2.593   2.880  18.065  0.00  0.00    +0.000 C 
BRANCH  19  20
ATOM     20  N   UNL     1       3.913   3.469  17.986  0.00  0.00    +0.000 N 
ATOM     21  C   UNL     1       4.491   4.006  16.873  0.00  0.00    +0.000 A 
ATOM     22  C   UNL     1       5.725   4.446  17.297  0.00  0.00    +0.000 A 
ATOM     23  N   UNL     1       5.903   4.183  18.633  0.00  0.00    +0.000 NA
ATOM     24  C   UNL     1       4.794   3.593  19.020  0.00  0.00    +0.000 A 
ENDBRANCH  19  20
ENDBRANCH  18  19
ENDBRANCH  17  18
ENDBRANCH  16  17
ENDBRANCH  15  16
ENDBRANCH  14  15
ENDBRANCH  13  14
ENDBRANCH   1  13
TORSDOF 10
ENDMDL
MODEL 3
REMARK VINA RESULT:      -6.3      1.474      1.938
REMARK  Name = 
REMARK  10 active torsions:
REMARK  status: ('A' for Active; 'I' for Inactive)
REMARK    1  A    between atoms: C_2  and  C_17
REMARK    2  A    between atoms: N_3  and  C_4
REMARK    3  A    between atoms: C_4  and  C_5
REMARK    4  A    between atoms: C_5  and  C_6
REMARK    5  A    between atoms: C_6  and  C_7
REMARK    6  A    between atoms: C_7  and  C_8
REMARK    7  A    between atoms: C_8  and  C_9
REMARK    8  A    between atoms: C_9  and  C_10
REMARK    9  A    between atoms: C_10  and  C_11
REMARK   10  A    between atoms: C_11  and  N_12
REMARK                            x       y       z     vdW  Elec       q    Type
REMARK                         _______ _______ _______ _____ _____    ______ ____
ROOT
ATOM      1  C   UNL     1       2.283   5.400  20.368  0.00  0.00    +0.000 C 
ENDROOT
BRANCH   1   4
ATOM      2  O   UNL     1       2.205   7.949  19.183  0.00  0.00    +0.000 OA
ATOM      3  C   UNL     1       1.663   7.775  20.268  0.00  0.00    +0.000 C 
ATOM      4  N   UNL     1       1.652   6.569  20.939  0.00  0.00    +0.000 N 
ATOM      5  H   UNL     1       1.085   6.451  21.765  0.00  0.00    +0.000 HD
BRANCH   3   6
ATOM      6  C   UNL     1       0.926   8.889  20.916  0.00  0.00    +0.000 A 
ATOM      7  C   UNL     1       0.602  10.010  20.140  0.00  0.00    +0.000 A 
ATOM      8  C   UNL     1      -0.081  11.084  20.713  0.00  0.00    +0.000 A 
ATOM      9  C   UNL     1      -0.429  11.039  22.062  0.00  0.00    +0.000 A 
ATOM     10 BR   UNL     1      -1.341  12.499  22.843  0.00  0.00    +0.000 Br
ATOM     11  C   UNL     1      -0.099   9.933  22.845  0.00  0.00    +0.000 A 
ATOM     12  C   UNL     1       0.582   8.854  22.273  0.00  0.00    +0.000 A 
ENDBRANCH   3   6
ENDBRANCH   1   4
BRANCH   1  13
ATOM     13  C   UNL     1       2.222   4.205  21.319  0.00  0.00    +0.000 C 
BRANCH  13  14
ATOM     14  C   UNL     1       1.822   2.908  20.613  0.00  0.00    +0.000 C 
BRANCH  14  15
ATOM     15  C   UNL     1       1.097   3.165  19.293  0.00  0.00    +0.000 C 
BRANCH  15  16
ATOM     16  C   UNL     1       1.849   2.578  18.103  0.00  0.00    +0.000 C 
BRANCH  16  17
ATOM     17  C   UNL     1       2.652   3.671  17.399  0.00  0.00    +0.000 C 
BRANCH  17  18
ATOM     18  C   UNL     1       4.133   3.317  17.342  0.00  0.00    +0.000 C 
BRANCH  18  19
ATOM     19  C   UNL     1       4.831   4.078  16.220  0.00  0.00    +0.000 C 
BRANCH  19  20
ATOM     20  N   UNL     1       5.806   5.013  16.741  0.00  0.00    +0.000 N 
ATOM     21  C   UNL     1       5.631   6.356  16.904  0.00  0.00    +0.000 A 
ATOM     22  C   UNL     1       6.818   6.802  17.438  0.00  0.00    +0.000 A 
ATOM     23  N   UNL     1       7.703   5.764  17.595  0.00  0.00    +0.000 NA
ATOM     24  C   UNL     1       7.065   4.698  17.165  0.00  0.00    +0.000 A 
ENDBRANCH  19  20
ENDBRANCH  18  19
ENDBRANCH  17  18
ENDBRANCH  16  17
ENDBRANCH  15  16
ENDBRANCH  14  15
ENDBRANCH  13  14
ENDBRANCH   1  13
TORSDOF 10
ENDMDL
MODEL 4
REMARK VINA RESULT:      -6.3      1.719      2.441
REMARK  Name = 
REMARK  10 active torsions:
REMARK  status: ('A' for Active; 'I' for Inactive)
REMARK    1  A    between atoms: C_2  and  C_17
REMARK    2  A    between atoms: N_3  and  C_4
REMARK    3  A    between atoms: C_4  and  C_5
REMARK    4  A    between atoms: C_5  and  C_6
REMARK    5  A    between atoms: C_6  and  C_7
REMARK    6  A    between atoms: C_7  and  C_8
REMARK    7  A    between atoms: C_8  and  C_9
REMARK    8  A    between atoms: C_9  and  C_10
REMARK    9  A    between atoms: C_10  and  C_11
REMARK   10  A    between atoms: C_11  and  N_12
REMARK                            x       y       z     vdW  Elec       q    Type
REMARK                         _______ _______ _______ _____ _____    ______ ____
ROOT
ATOM      1  C   UNL     1       2.123   5.316  20.646  0.00  0.00    +0.000 C 
ENDROOT
BRANCH   1   4
ATOM      2  O   UNL     1       2.169   7.749  19.237  0.00  0.00    +0.000 OA
ATOM      3  C   UNL     1       1.630   7.703  20.336  0.00  0.00    +0.000 C 
ATOM      4  N   UNL     1       1.562   6.564  21.113  0.00  0.00    +0.000 N 
ATOM      5  H   UNL     1       0.997   6.551  21.949  0.00  0.00    +0.000 HD
BRANCH   3   6
ATOM      6  C   UNL     1       0.960   8.909  20.885  0.00  0.00    +0.000 A 
ATOM      7  C   UNL     1       0.628   8.921  22.247  0.00  0.00    +0.000 A 
ATOM      8  C   UNL     1      -0.011  10.030  22.802  0.00  0.00    +0.000 A 
ATOM      9  C   UNL     1      -0.327  11.120  21.992  0.00  0.00    +0.000 A 
ATOM     10 BR   UNL     1      -1.206  12.618  22.738  0.00  0.00    +0.000 Br
ATOM     11  C   UNL     1      -0.011  11.112  20.633  0.00  0.00    +0.000 A 
ATOM     12  C   UNL     1       0.632  10.003  20.076  0.00  0.00    +0.000 A 
ENDBRANCH   3   6
ENDBRANCH   1   4
BRANCH   1  13
ATOM     13  C   UNL     1       1.080   4.200  20.628  0.00  0.00    +0.000 C 
BRANCH  13  14
ATOM     14  C   UNL     1       1.640   2.876  20.104  0.00  0.00    +0.000 C 
BRANCH  14  15
ATOM     15  C   UNL     1       3.107   2.675  20.483  0.00  0.00    +0.000 C 
BRANCH  15  16
ATOM     16  C   UNL     1       3.947   2.214  19.296  0.00  0.00    +0.000 C 
BRANCH  16  17
ATOM     17  C   UNL     1       4.673   3.406  18.674  0.00  0.00    +0.000 C 
BRANCH  17  18
ATOM     18  C   UNL     1       3.897   3.965  17.488  0.00  0.00    +0.000 C 
BRANCH  18  19
ATOM     19  C   UNL     1       4.440   5.329  17.077  0.00  0.00    +0.000 C 
BRANCH  19  20
ATOM     20  N   UNL     1       5.522   5.204  16.123  0.00  0.00    +0.000 N 
ATOM     21  C   UNL     1       5.448   4.622  14.891  0.00  0.00    +0.000 A 
ATOM     22  C   UNL     1       6.711   4.760  14.361  0.00  0.00    +0.000 A 
ATOM     23  N   UNL     1       7.541   5.406  15.244  0.00  0.00    +0.000 NA
ATOM     24  C   UNL     1       6.796   5.660  16.297  0.00  0.00    +0.000 A 
ENDBRANCH  19  20
ENDBRANCH  18  19
ENDBRANCH  17  18
ENDBRANCH  16  17
ENDBRANCH  15  16
ENDBRANCH  14  15
ENDBRANCH  13  14
ENDBRANCH   1  13
TORSDOF 10
ENDMDL
MODEL 5
REMARK VINA RESULT:      -6.1      3.247      5.269
REMARK  Name = 
REMARK  10 active torsions:
REMARK  status: ('A' for Active; 'I' for Inactive)
REMARK    1  A    between atoms: C_2  and  C_17
REMARK    2  A    between atoms: N_3  and  C_4
REMARK    3  A    between atoms: C_4  and  C_5
REMARK    4  A    between atoms: C_5  and  C_6
REMARK    5  A    between atoms: C_6  and  C_7
REMARK    6  A    between atoms: C_7  and  C_8
REMARK    7  A    between atoms: C_8  and  C_9
REMARK    8  A    between atoms: C_9  and  C_10
REMARK    9  A    between atoms: C_10  and  C_11
REMARK   10  A    between atoms: C_11  and  N_12
REMARK                            x       y       z     vdW  Elec       q    Type
REMARK                         _______ _______ _______ _____ _____    ______ ____
ROOT
ATOM      1  C   UNL     1       1.946   9.756  17.861  0.00  0.00    +0.000 C 
ENDROOT
BRANCH   1   4
ATOM      2  O   UNL     1       0.378  11.201  19.694  0.00  0.00    +0.000 OA
ATOM      3  C   UNL     1      -0.159  10.687  18.720  0.00  0.00    +0.000 C 
ATOM      4  N   UNL     1       0.517   9.950  17.769  0.00  0.00    +0.000 N 
ATOM      5  H   UNL     1       0.048   9.658  16.923  0.00  0.00    +0.000 HD
BRANCH   3   6
ATOM      6  C   UNL     1      -1.613  10.878  18.488  0.00  0.00    +0.000 A 
ATOM      7  C   UNL     1      -2.288  11.831  19.261  0.00  0.00    +0.000 A 
ATOM      8  C   UNL     1      -3.657  12.035  19.081  0.00  0.00    +0.000 A 
ATOM      9  C   UNL     1      -4.349  11.279  18.137  0.00  0.00    +0.000 A 
ATOM     10 BR   UNL     1      -6.206  11.543  17.902  0.00  0.00    +0.000 Br
ATOM     11  C   UNL     1      -3.686  10.319  17.371  0.00  0.00    +0.000 A 
ATOM     12  C   UNL     1      -2.315  10.115  17.546  0.00  0.00    +0.000 A 
ENDBRANCH   3   6
ENDBRANCH   1   4
BRANCH   1  13
ATOM     13  C   UNL     1       2.308   8.275  17.969  0.00  0.00    +0.000 C 
BRANCH  13  14
ATOM     14  C   UNL     1       2.108   7.719  19.381  0.00  0.00    +0.000 C 
BRANCH  14  15
ATOM     15  C   UNL     1       2.491   6.243  19.484  0.00  0.00    +0.000 C 
BRANCH  15  16
ATOM     16  C   UNL     1       2.901   5.662  18.135  0.00  0.00    +0.000 C 
BRANCH  16  17
ATOM     17  C   UNL     1       1.917   4.574  17.712  0.00  0.00    +0.000 C 
BRANCH  17  18
ATOM     18  C   UNL     1       2.647   3.333  17.213  0.00  0.00    +0.000 C 
BRANCH  18  19
ATOM     19  C   UNL     1       2.314   2.122  18.077  0.00  0.00    +0.000 C 
BRANCH  19  20
ATOM     20  N   UNL     1       2.204   2.481  19.475  0.00  0.00    +0.000 N 
ATOM     21  C   UNL     1       3.240   2.697  20.337  0.00  0.00    +0.000 A 
ATOM     22  C   UNL     1       2.640   3.024  21.531  0.00  0.00    +0.000 A 
ATOM     23  N   UNL     1       1.273   3.005  21.411  0.00  0.00    +0.000 NA
ATOM     24  C   UNL     1       1.040   2.674  20.160  0.00  0.00    +0.000 A 
ENDBRANCH  19  20
ENDBRANCH  18  19
ENDBRANCH  17  18
ENDBRANCH  16  17
ENDBRANCH  15  16
ENDBRANCH  14  15
ENDBRANCH  13  14
ENDBRANCH   1  13
TORSDOF 10
ENDMDL
MODEL 6
REMARK VINA RESULT:      -6.1      1.003      1.073
REMARK  Name = 
REMARK  10 active torsions:
REMARK  status: ('A' for Active; 'I' for Inactive)
REMARK    1  A    between atoms: C_2  and  C_17
REMARK    2  A    between atoms: N_3  and  C_4
REMARK    3  A    between atoms: C_4  and  C_5
REMARK    4  A    between atoms: C_5  and  C_6
REMARK    5  A    between atoms: C_6  and  C_7
REMARK    6  A    between atoms: C_7  and  C_8
REMARK    7  A    between atoms: C_8  and  C_9
REMARK    8  A    between atoms: C_9  and  C_10
REMARK    9  A    between atoms: C_10  and  C_11
REMARK   10  A    between atoms: C_11  and  N_12
REMARK                            x       y       z     vdW  Elec       q    Type
REMARK                         _______ _______ _______ _____ _____    ______ ____
ROOT
ATOM      1  C   UNL     1       2.314   4.533  21.147  0.00  0.00    +0.000 C 
ENDROOT
BRANCH   1   4
ATOM      2  O   UNL     1       2.958   6.541  19.286  0.00  0.00    +0.000 OA
ATOM      3  C   UNL     1       2.113   6.767  20.144  0.00  0.00    +0.000 C 
ATOM      4  N   UNL     1       1.733   5.856  21.108  0.00  0.00    +0.000 N 
ATOM      5  H   UNL     1       0.944   6.049  21.709  0.00  0.00    +0.000 HD
BRANCH   3   6
ATOM      6  C   UNL     1       1.401   8.070  20.159  0.00  0.00    +0.000 A 
ATOM      7  C   UNL     1       1.518   8.902  19.037  0.00  0.00    +0.000 A 
ATOM      8  C   UNL     1       0.873  10.139  19.014  0.00  0.00    +0.000 A 
ATOM      9  C   UNL     1       0.122  10.546  20.116  0.00  0.00    +0.000 A 
ATOM     10 BR   UNL     1      -0.741  12.228  20.093  0.00  0.00    +0.000 Br
ATOM     11  C   UNL     1       0.009   9.728  21.241  0.00  0.00    +0.000 A 
ATOM     12  C   UNL     1       0.651   8.487  21.265  0.00  0.00    +0.000 A 
ENDBRANCH   3   6
ENDBRANCH   1   4
BRANCH   1  13
ATOM     13  C   UNL     1       1.266   3.449  20.898  0.00  0.00    +0.000 C 
BRANCH  13  14
ATOM     14  C   UNL     1       0.662   3.523  19.494  0.00  0.00    +0.000 C 
BRANCH  14  15
ATOM     15  C   UNL     1       1.160   2.398  18.587  0.00  0.00    +0.000 C 
BRANCH  15  16
ATOM     16  C   UNL     1       2.539   1.895  19.002  0.00  0.00    +0.000 C 
BRANCH  16  17
ATOM     17  C   UNL     1       3.549   2.156  17.887  0.00  0.00    +0.000 C 
BRANCH  17  18
ATOM     18  C   UNL     1       3.754   3.650  17.667  0.00  0.00    +0.000 C 
BRANCH  18  19
ATOM     19  C   UNL     1       4.437   3.914  16.330  0.00  0.00    +0.000 C 
BRANCH  19  20
ATOM     20  N   UNL     1       5.579   4.790  16.481  0.00  0.00    +0.000 N 
ATOM     21  C   UNL     1       5.752   5.731  17.453  0.00  0.00    +0.000 A 
ATOM     22  C   UNL     1       6.983   6.287  17.189  0.00  0.00    +0.000 A 
ATOM     23  N   UNL     1       7.552   5.706  16.082  0.00  0.00    +0.000 NA
ATOM     24  C   UNL     1       6.682   4.809  15.676  0.00  0.00    +0.000 A 
ENDBRANCH  19  20
ENDBRANCH  18  19
ENDBRANCH  17  18
ENDBRANCH  16  17
ENDBRANCH  15  16
ENDBRANCH  14  15
ENDBRANCH  13  14
ENDBRANCH   1  13
TORSDOF 10
ENDMDL
MODEL 7
REMARK VINA RESULT:      -6.1      3.037      4.068
REMARK  Name = 
REMARK  10 active torsions:
REMARK  status: ('A' for Active; 'I' for Inactive)
REMARK    1  A    between atoms: C_2  and  C_17
REMARK    2  A    between atoms: N_3  and  C_4
REMARK    3  A    between atoms: C_4  and  C_5
REMARK    4  A    between atoms: C_5  and  C_6
REMARK    5  A    between atoms: C_6  and  C_7
REMARK    6  A    between atoms: C_7  and  C_8
REMARK    7  A    between atoms: C_8  and  C_9
REMARK    8  A    between atoms: C_9  and  C_10
REMARK    9  A    between atoms: C_10  and  C_11
REMARK   10  A    between atoms: C_11  and  N_12
REMARK                            x       y       z     vdW  Elec       q    Type
REMARK                         _______ _______ _______ _____ _____    ______ ____
ROOT
ATOM      1  C   UNL     1       2.116   9.270  17.958  0.00  0.00    +0.000 C 
ENDROOT
BRANCH   1   4
ATOM      2  O   UNL     1       0.487  10.361  19.974  0.00  0.00    +0.000 OA
ATOM      3  C   UNL     1       0.026  10.204  18.850  0.00  0.00    +0.000 C 
ATOM      4  N   UNL     1       0.736   9.669  17.794  0.00  0.00    +0.000 N 
ATOM      5  H   UNL     1       0.349   9.680  16.862  0.00  0.00    +0.000 HD
BRANCH   3   6
ATOM      6  C   UNL     1      -1.360  10.642  18.549  0.00  0.00    +0.000 A 
ATOM      7  C   UNL     1      -2.026  10.041  17.471  0.00  0.00    +0.000 A 
ATOM      8  C   UNL     1      -3.326  10.430  17.148  0.00  0.00    +0.000 A 
ATOM      9  C   UNL     1      -3.954  11.425  17.896  0.00  0.00    +0.000 A 
ATOM     10 BR   UNL     1      -5.711  11.964  17.450  0.00  0.00    +0.000 Br
ATOM     11  C   UNL     1      -3.295  12.036  18.962  0.00  0.00    +0.000 A 
ATOM     12  C   UNL     1      -1.994  11.646  19.291  0.00  0.00    +0.000 A 
ENDBRANCH   3   6
ENDBRANCH   1   4
BRANCH   1  13
ATOM     13  C   UNL     1       2.253   7.752  18.086  0.00  0.00    +0.000 C 
BRANCH  13  14
ATOM     14  C   UNL     1       2.294   7.283  19.542  0.00  0.00    +0.000 C 
BRANCH  14  15
ATOM     15  C   UNL     1       2.390   5.762  19.659  0.00  0.00    +0.000 C 
BRANCH  15  16
ATOM     16  C   UNL     1       3.834   5.275  19.623  0.00  0.00    +0.000 C 
BRANCH  16  17
ATOM     17  C   UNL     1       3.950   4.043  18.728  0.00  0.00    +0.000 C 
BRANCH  17  18
ATOM     18  C   UNL     1       3.764   4.409  17.260  0.00  0.00    +0.000 C 
BRANCH  18  19
ATOM     19  C   UNL     1       4.618   5.616  16.889  0.00  0.00    +0.000 C 
BRANCH  19  20
ATOM     20  N   UNL     1       5.647   5.264  15.932  0.00  0.00    +0.000 N 
ATOM     21  C   UNL     1       5.462   4.596  14.757  0.00  0.00    +0.000 A 
ATOM     22  C   UNL     1       6.717   4.515  14.198  0.00  0.00    +0.000 A 
ATOM     23  N   UNL     1       7.650   5.114  15.009  0.00  0.00    +0.000 NA
ATOM     24  C   UNL     1       6.975   5.555  16.046  0.00  0.00    +0.000 A 
ENDBRANCH  19  20
ENDBRANCH  18  19
ENDBRANCH  17  18
ENDBRANCH  16  17
ENDBRANCH  15  16
ENDBRANCH  14  15
ENDBRANCH  13  14
ENDBRANCH   1  13
TORSDOF 10
ENDMDL
MODEL 8
REMARK VINA RESULT:      -6.1      1.910      2.513
REMARK  Name = 
REMARK  10 active torsions:
REMARK  status: ('A' for Active; 'I' for Inactive)
REMARK    1  A    between atoms: C_2  and  C_17
REMARK    2  A    between atoms: N_3  and  C_4
REMARK    3  A    between atoms: C_4  and  C_5
REMARK    4  A    between atoms: C_5  and  C_6
REMARK    5  A    between atoms: C_6  and  C_7
REMARK    6  A    between atoms: C_7  and  C_8
REMARK    7  A    between atoms: C_8  and  C_9
REMARK    8  A    between atoms: C_9  and  C_10
REMARK    9  A    between atoms: C_10  and  C_11
REMARK   10  A    between atoms: C_11  and  N_12
REMARK                            x       y       z     vdW  Elec       q    Type
REMARK                         _______ _______ _______ _____ _____    ______ ____
ROOT
ATOM      1  C   UNL     1       2.075   6.193  20.477  0.00  0.00    +0.000 C 
ENDROOT
BRANCH   1   4
ATOM      2  O   UNL     1       1.616   8.703  19.297  0.00  0.00    +0.000 OA
ATOM      3  C   UNL     1       1.211   8.492  20.434  0.00  0.00    +0.000 C 
ATOM      4  N   UNL     1       1.393   7.301  21.107  0.00  0.00    +0.000 N 
ATOM      5  H   UNL     1       0.930   7.139  21.989  0.00  0.00    +0.000 HD
BRANCH   3   6
ATOM      6  C   UNL     1       0.438   9.537  21.152  0.00  0.00    +0.000 A 
ATOM      7  C   UNL     1       0.179  10.744  20.489  0.00  0.00    +0.000 A 
ATOM      8  C   UNL     1      -0.536  11.756  21.131  0.00  0.00    +0.000 A 
ATOM      9  C   UNL     1      -0.981  11.563  22.438  0.00  0.00    +0.000 A 
ATOM     10 BR   UNL     1      -1.937  12.938  23.315  0.00  0.00    +0.000 Br
ATOM     11  C   UNL     1      -0.717  10.369  23.110  0.00  0.00    +0.000 A 
ATOM     12  C   UNL     1      -0.004   9.352  22.468  0.00  0.00    +0.000 A 
ENDBRANCH   3   6
ENDBRANCH   1   4
BRANCH   1  13
ATOM     13  C   UNL     1       1.235   4.917  20.519  0.00  0.00    +0.000 C 
BRANCH  13  14
ATOM     14  C   UNL     1       2.069   3.670  20.821  0.00  0.00    +0.000 C 
BRANCH  14  15
ATOM     15  C   UNL     1       1.922   2.597  19.742  0.00  0.00    +0.000 C 
BRANCH  15  16
ATOM     16  C   UNL     1       1.253   3.139  18.483  0.00  0.00    +0.000 C 
BRANCH  16  17
ATOM     17  C   UNL     1       2.283   3.852  17.608  0.00  0.00    +0.000 C 
BRANCH  17  18
ATOM     18  C   UNL     1       3.627   3.134  17.643  0.00  0.00    +0.000 C 
BRANCH  18  19
ATOM     19  C   UNL     1       4.755   4.107  17.965  0.00  0.00    +0.000 C 
BRANCH  19  20
ATOM     20  N   UNL     1       5.349   4.648  16.761  0.00  0.00    +0.000 N 
ATOM     21  C   UNL     1       6.246   4.017  15.949  0.00  0.00    +0.000 A 
ATOM     22  C   UNL     1       6.500   4.917  14.940  0.00  0.00    +0.000 A 
ATOM     23  N   UNL     1       5.783   6.073  15.127  0.00  0.00    +0.000 NA
ATOM     24  C   UNL     1       5.100   5.882  16.233  0.00  0.00    +0.000 A 
ENDBRANCH  19  20
ENDBRANCH  18  19
ENDBRANCH  17  18
ENDBRANCH  16  17
ENDBRANCH  15  16
ENDBRANCH  14  15
ENDBRANCH  13  14
ENDBRANCH   1  13
TORSDOF 10
ENDMDL
MODEL 9
REMARK VINA RESULT:      -6.1      2.797      4.740
REMARK  Name = 
REMARK  10 active torsions:
REMARK  status: ('A' for Active; 'I' for Inactive)
REMARK    1  A    between atoms: C_2  and  C_17
REMARK    2  A    between atoms: N_3  and  C_4
REMARK    3  A    between atoms: C_4  and  C_5
REMARK    4  A    between atoms: C_5  and  C_6
REMARK    5  A    between atoms: C_6  and  C_7
REMARK    6  A    between atoms: C_7  and  C_8
REMARK    7  A    between atoms: C_8  and  C_9
REMARK    8  A    between atoms: C_9  and  C_10
REMARK    9  A    between atoms: C_10  and  C_11
REMARK   10  A    between atoms: C_11  and  N_12
REMARK                            x       y       z     vdW  Elec       q    Type
REMARK                         _______ _______ _______ _____ _____    ______ ____
ROOT
ATOM      1  C   UNL     1       2.350   8.533  17.996  0.00  0.00    +0.000 C 
ENDROOT
BRANCH   1   4
ATOM      2  O   UNL     1       1.084  10.539  19.506  0.00  0.00    +0.000 OA
ATOM      3  C   UNL     1       0.466   9.989  18.602  0.00  0.00    +0.000 C 
ATOM      4  N   UNL     1       0.990   8.988  17.810  0.00  0.00    +0.000 N 
ATOM      5  H   UNL     1       0.483   8.660  17.001  0.00  0.00    +0.000 HD
BRANCH   3   6
ATOM      6  C   UNL     1      -0.916  10.423  18.277  0.00  0.00    +0.000 A 
ATOM      7  C   UNL     1      -1.510  11.403  19.084  0.00  0.00    +0.000 A 
ATOM      8  C   UNL     1      -2.812  11.832  18.820  0.00  0.00    +0.000 A 
ATOM      9  C   UNL     1      -3.519  11.273  17.756  0.00  0.00    +0.000 A 
ATOM     10 BR   UNL     1      -5.287  11.842  17.405  0.00  0.00    +0.000 Br
ATOM     11  C   UNL     1      -2.939  10.289  16.956  0.00  0.00    +0.000 A 
ATOM     12  C   UNL     1      -1.635   9.859  17.216  0.00  0.00    +0.000 A 
ENDBRANCH   3   6
ENDBRANCH   1   4
BRANCH   1  13
ATOM     13  C   UNL     1       2.400   7.192  18.728  0.00  0.00    +0.000 C 
BRANCH  13  14
ATOM     14  C   UNL     1       3.719   6.448  18.508  0.00  0.00    +0.000 C 
BRANCH  14  15
ATOM     15  C   UNL     1       4.258   6.628  17.089  0.00  0.00    +0.000 C 
BRANCH  15  16
ATOM     16  C   UNL     1       4.883   5.347  16.547  0.00  0.00    +0.000 C 
BRANCH  16  17
ATOM     17  C   UNL     1       4.624   4.189  17.510  0.00  0.00    +0.000 C 
BRANCH  17  18
ATOM     18  C   UNL     1       3.393   3.393  17.096  0.00  0.00    +0.000 C 
BRANCH  18  19
ATOM     19  C   UNL     1       3.049   2.340  18.143  0.00  0.00    +0.000 C 
BRANCH  19  20
ATOM     20  N   UNL     1       2.425   2.933  19.307  0.00  0.00    +0.000 N 
ATOM     21  C   UNL     1       2.914   2.917  20.581  0.00  0.00    +0.000 A 
ATOM     22  C   UNL     1       1.987   3.614  21.322  0.00  0.00    +0.000 A 
ATOM     23  N   UNL     1       0.953   4.044  20.527  0.00  0.00    +0.000 NA
ATOM     24  C   UNL     1       1.245   3.618  19.318  0.00  0.00    +0.000 A 
ENDBRANCH  19  20
ENDBRANCH  18  19
ENDBRANCH  17  18
ENDBRANCH  16  17
ENDBRANCH  15  16
ENDBRANCH  14  15
ENDBRANCH  13  14
ENDBRANCH   1  13
TORSDOF 10
ENDMDL
