MODEL 1
REMARK VINA RESULT:      -7.2      0.000      0.000
REMARK  Name = 
REMARK  6 active torsions:
REMARK  status: ('A' for Active; 'I' for Inactive)
REMARK    1  A    between atoms: C_5  and  O_6
REMARK    2  A    between atoms: O_6  and  C_7
REMARK    3  A    between atoms: C_7  and  C_8
REMARK    4  A    between atoms: C_8  and  C_9
REMARK    5  A    between atoms: C_9  and  N_10
REMARK    6  A    between atoms: N_16  and  C_17
REMARK                            x       y       z     vdW  Elec       q    Type
REMARK                         _______ _______ _______ _____ _____    ______ ____
ROOT
ATOM      1  O   UNL     1       8.208   4.174  17.101  0.00  0.00    +0.000 OA
ATOM      2  C   UNL     1       7.077   4.653  17.159  0.00  0.00    +0.000 A 
ATOM      3  C   UNL     1       6.645   5.144  18.490  0.00  0.00    +0.000 A 
ATOM      4  C   UNL     1       5.441   5.688  18.676  0.00  0.00    +0.000 A 
ATOM      5  C   UNL     1       4.573   5.689  17.504  0.00  0.00    +0.000 A 
ATOM      6  N   UNL     1       4.883   5.347  16.298  0.00  0.00    +0.000 NA
ATOM      7  N   UNL     1       6.172   4.859  16.100  0.00  0.00    +0.000 N 
ENDROOT
BRANCH   7   8
ATOM      8  C   UNL     1       6.515   4.606  14.731  0.00  0.00    +0.000 A 
ATOM      9  C   UNL     1       7.522   5.322  14.066  0.00  0.00    +0.000 A 
ATOM     10  C   UNL     1       7.780   5.129  12.704  0.00  0.00    +0.000 A 
ATOM     11  C   UNL     1       7.029   4.214  11.976  0.00  0.00    +0.000 A 
ATOM     12  C   UNL     1       6.045   3.468  12.618  0.00  0.00    +0.000 A 
ATOM     13  C   UNL     1       5.805   3.648  13.987  0.00  0.00    +0.000 A 
ENDBRANCH   7   8
BRANCH   5  14
ATOM     14  O   UNL     1       3.341   6.098  17.894  0.00  0.00    +0.000 OA
BRANCH  14  15
ATOM     15  C   UNL     1       3.205   6.464  19.274  0.00  0.00    +0.000 C 
BRANCH  15  16
ATOM     16  C   UNL     1       1.981   5.747  19.847  0.00  0.00    +0.000 C 
BRANCH  16  17
ATOM     17  C   UNL     1       2.377   4.354  20.347  0.00  0.00    +0.000 C 
BRANCH  17  18
ATOM     18  N   UNL     1       1.644   3.232  19.731  0.00  0.00    +0.000 NA
ATOM     19  C   UNL     1       2.471   2.008  19.771  0.00  0.00    +0.000 C 
ATOM     20  C   UNL     1       3.356   2.104  18.542  0.00  0.00    +0.000 C 
ATOM     21  C   UNL     1       2.423   2.693  17.500  0.00  0.00    +0.000 C 
ATOM     22  C   UNL     1       1.343   3.418  18.301  0.00  0.00    +0.000 C 
ENDBRANCH  17  18
ENDBRANCH  16  17
ENDBRANCH  15  16
ENDBRANCH  14  15
ENDBRANCH   5  14
TORSDOF 6
ENDMDL
MODEL 2
REMARK VINA RESULT:      -7.1      1.286      2.473
REMARK  Name = 
REMARK  6 active torsions:
REMARK  status: ('A' for Active; 'I' for Inactive)
REMARK    1  A    between atoms: C_5  and  O_6
REMARK    2  A    between atoms: O_6  and  C_7
REMARK    3  A    between atoms: C_7  and  C_8
REMARK    4  A    between atoms: C_8  and  C_9
REMARK    5  A    between atoms: C_9  and  N_10
REMARK    6  A    between atoms: N_16  and  C_17
REMARK                            x       y       z     vdW  Elec       q    Type
REMARK                         _______ _______ _______ _____ _____    ______ ____
ROOT
ATOM      1  O   UNL     1       7.728   6.618  16.306  0.00  0.00    +0.000 OA
ATOM      2  C   UNL     1       6.860   5.846  16.709  0.00  0.00    +0.000 A 
ATOM      3  C   UNL     1       6.387   6.065  18.097  0.00  0.00    +0.000 A 
ATOM      4  C   UNL     1       5.445   5.295  18.643  0.00  0.00    +0.000 A 
ATOM      5  C   UNL     1       4.984   4.192  17.807  0.00  0.00    +0.000 A 
ATOM      6  N   UNL     1       5.286   3.965  16.572  0.00  0.00    +0.000 NA
ATOM      7  N   UNL     1       6.209   4.828  15.987  0.00  0.00    +0.000 N 
ENDROOT
BRANCH   7   8
ATOM      8  C   UNL     1       6.425   4.615  14.585  0.00  0.00    +0.000 A 
ATOM      9  C   UNL     1       5.665   3.698  13.842  0.00  0.00    +0.000 A 
ATOM     10  C   UNL     1       5.950   3.433  12.497  0.00  0.00    +0.000 A 
ATOM     11  C   UNL     1       7.008   4.079  11.868  0.00  0.00    +0.000 A 
ATOM     12  C   UNL     1       7.758   5.016  12.574  0.00  0.00    +0.000 A 
ATOM     13  C   UNL     1       7.454   5.296  13.913  0.00  0.00    +0.000 A 
ENDBRANCH   7   8
BRANCH   5  14
ATOM     14  O   UNL     1       4.176   3.404  18.558  0.00  0.00    +0.000 OA
BRANCH  14  15
ATOM     15  C   UNL     1       3.692   2.212  17.926  0.00  0.00    +0.000 C 
BRANCH  15  16
ATOM     16  C   UNL     1       2.163   2.256  17.915  0.00  0.00    +0.000 C 
BRANCH  16  17
ATOM     17  C   UNL     1       1.675   3.617  18.423  0.00  0.00    +0.000 C 
BRANCH  17  18
ATOM     18  N   UNL     1       0.895   3.579  19.674  0.00  0.00    +0.000 NA
ATOM     19  C   UNL     1       1.157   4.799  20.467  0.00  0.00    +0.000 C 
ATOM     20  C   UNL     1       2.421   4.485  21.246  0.00  0.00    +0.000 C 
ATOM     21  C   UNL     1       2.235   3.026  21.618  0.00  0.00    +0.000 C 
ATOM     22  C   UNL     1       1.258   2.475  20.581  0.00  0.00    +0.000 C 
ENDBRANCH  17  18
ENDBRANCH  16  17
ENDBRANCH  15  16
ENDBRANCH  14  15
ENDBRANCH   5  14
TORSDOF 6
ENDMDL
MODEL 3
REMARK VINA RESULT:      -7.0      1.713      2.679
REMARK  Name = 
REMARK  6 active torsions:
REMARK  status: ('A' for Active; 'I' for Inactive)
REMARK    1  A    between atoms: C_5  and  O_6
REMARK    2  A    between atoms: O_6  and  C_7
REMARK    3  A    between atoms: C_7  and  C_8
REMARK    4  A    between atoms: C_8  and  C_9
REMARK    5  A    between atoms: C_9  and  N_10
REMARK    6  A    between atoms: N_16  and  C_17
REMARK                            x       y       z     vdW  Elec       q    Type
REMARK                         _______ _______ _______ _____ _____    ______ ____
ROOT
ATOM      1  O   UNL     1       5.341   7.210  15.288  0.00  0.00    +0.000 OA
ATOM      2  C   UNL     1       5.043   6.200  15.923  0.00  0.00    +0.000 A 
ATOM      3  C   UNL     1       4.233   6.414  17.146  0.00  0.00    +0.000 A 
ATOM      4  C   UNL     1       3.844   5.395  17.913  0.00  0.00    +0.000 A 
ATOM      5  C   UNL     1       4.337   4.085  17.502  0.00  0.00    +0.000 A 
ATOM      6  N   UNL     1       4.986   3.795  16.424  0.00  0.00    +0.000 NA
ATOM      7  N   UNL     1       5.313   4.860  15.588  0.00  0.00    +0.000 N 
ENDROOT
BRANCH   7   8
ATOM      8  C   UNL     1       5.925   4.481  14.347  0.00  0.00    +0.000 A 
ATOM      9  C   UNL     1       7.154   5.011  13.926  0.00  0.00    +0.000 A 
ATOM     10  C   UNL     1       7.693   4.704  12.671  0.00  0.00    +0.000 A 
ATOM     11  C   UNL     1       7.005   3.860  11.806  0.00  0.00    +0.000 A 
ATOM     12  C   UNL     1       5.799   3.296  12.211  0.00  0.00    +0.000 A 
ATOM     13  C   UNL     1       5.275   3.588  13.477  0.00  0.00    +0.000 A 
ENDBRANCH   7   8
BRANCH   5  14
ATOM     14  O   UNL     1       4.016   3.193  18.470  0.00  0.00    +0.000 OA
BRANCH  14  15
ATOM     15  C   UNL     1       3.553   1.912  18.019  0.00  0.00    +0.000 C 
BRANCH  15  16
ATOM     16  C   UNL     1       2.161   1.667  18.603  0.00  0.00    +0.000 C 
BRANCH  16  17
ATOM     17  C   UNL     1       1.392   2.988  18.696  0.00  0.00    +0.000 C 
BRANCH  17  18
ATOM     18  N   UNL     1       0.745   3.250  19.995  0.00  0.00    +0.000 NA
ATOM     19  C   UNL     1       0.894   4.676  20.354  0.00  0.00    +0.000 C 
ATOM     20  C   UNL     1       2.257   4.763  21.016  0.00  0.00    +0.000 C 
ATOM     21  C   UNL     1       2.325   3.479  21.820  0.00  0.00    +0.000 C 
ATOM     22  C   UNL     1       1.349   2.528  21.129  0.00  0.00    +0.000 C 
ENDBRANCH  17  18
ENDBRANCH  16  17
ENDBRANCH  15  16
ENDBRANCH  14  15
ENDBRANCH   5  14
TORSDOF 6
ENDMDL
MODEL 4
REMARK VINA RESULT:      -7.0      2.117      6.406
REMARK  Name = 
REMARK  6 active torsions:
REMARK  status: ('A' for Active; 'I' for Inactive)
REMARK    1  A    between atoms: C_5  and  O_6
REMARK    2  A    between atoms: O_6  and  C_7
REMARK    3  A    between atoms: C_7  and  C_8
REMARK    4  A    between atoms: C_8  and  C_9
REMARK    5  A    between atoms: C_9  and  N_10
REMARK    6  A    between atoms: N_16  and  C_17
REMARK                            x       y       z     vdW  Elec       q    Type
REMARK                         _______ _______ _______ _____ _____    ______ ____
ROOT
ATOM      1  O   UNL     1       0.971   4.276  18.838  0.00  0.00    +0.000 OA
ATOM      2  C   UNL     1       2.188   4.420  18.938  0.00  0.00    +0.000 A 
ATOM      3  C   UNL     1       3.007   3.201  18.732  0.00  0.00    +0.000 A 
ATOM      4  C   UNL     1       4.338   3.232  18.809  0.00  0.00    +0.000 A 
ATOM      5  C   UNL     1       4.907   4.521  19.185  0.00  0.00    +0.000 A 
ATOM      6  N   UNL     1       4.284   5.645  19.317  0.00  0.00    +0.000 NA
ATOM      7  N   UNL     1       2.902   5.614  19.150  0.00  0.00    +0.000 N 
ENDROOT
BRANCH   7   8
ATOM      8  C   UNL     1       2.265   6.899  19.187  0.00  0.00    +0.000 A 
ATOM      9  C   UNL     1       2.204   7.736  18.062  0.00  0.00    +0.000 A 
ATOM     10  C   UNL     1       1.663   9.025  18.138  0.00  0.00    +0.000 A 
ATOM     11  C   UNL     1       1.174   9.505  19.347  0.00  0.00    +0.000 A 
ATOM     12  C   UNL     1       1.194   8.684  20.471  0.00  0.00    +0.000 A 
ATOM     13  C   UNL     1       1.716   7.386  20.385  0.00  0.00    +0.000 A 
ENDBRANCH   7   8
BRANCH   5  14
ATOM     14  O   UNL     1       6.234   4.348  19.400  0.00  0.00    +0.000 OA
BRANCH  14  15
ATOM     15  C   UNL     1       7.015   5.545  19.525  0.00  0.00    +0.000 C 
BRANCH  15  16
ATOM     16  C   UNL     1       8.008   5.599  18.362  0.00  0.00    +0.000 C 
BRANCH  16  17
ATOM     17  C   UNL     1       7.484   4.767  17.187  0.00  0.00    +0.000 C 
BRANCH  17  18
ATOM     18  N   UNL     1       7.166   5.531  15.967  0.00  0.00    +0.000 NA
ATOM     19  C   UNL     1       5.794   6.073  16.056  0.00  0.00    +0.000 C 
ATOM     20  C   UNL     1       4.903   4.941  15.579  0.00  0.00    +0.000 C 
ATOM     21  C   UNL     1       5.707   4.334  14.444  0.00  0.00    +0.000 C 
ATOM     22  C   UNL     1       7.155   4.724  14.733  0.00  0.00    +0.000 C 
ENDBRANCH  17  18
ENDBRANCH  16  17
ENDBRANCH  15  16
ENDBRANCH  14  15
ENDBRANCH   5  14
TORSDOF 6
ENDMDL
MODEL 5
REMARK VINA RESULT:      -6.9      1.109      1.520
REMARK  Name = 
REMARK  6 active torsions:
REMARK  status: ('A' for Active; 'I' for Inactive)
REMARK    1  A    between atoms: C_5  and  O_6
REMARK    2  A    between atoms: O_6  and  C_7
REMARK    3  A    between atoms: C_7  and  C_8
REMARK    4  A    between atoms: C_8  and  C_9
REMARK    5  A    between atoms: C_9  and  N_10
REMARK    6  A    between atoms: N_16  and  C_17
REMARK                            x       y       z     vdW  Elec       q    Type
REMARK                         _______ _______ _______ _____ _____    ______ ____
ROOT
ATOM      1  O   UNL     1       8.139   4.137  16.986  0.00  0.00    +0.000 OA
ATOM      2  C   UNL     1       7.158   4.879  16.995  0.00  0.00    +0.000 A 
ATOM      3  C   UNL     1       6.861   5.550  18.283  0.00  0.00    +0.000 A 
ATOM      4  C   UNL     1       5.827   6.382  18.414  0.00  0.00    +0.000 A 
ATOM      5  C   UNL     1       4.982   6.514  17.232  0.00  0.00    +0.000 A 
ATOM      6  N   UNL     1       5.199   6.026  16.056  0.00  0.00    +0.000 NA
ATOM      7  N   UNL     1       6.330   5.227  15.911  0.00  0.00    +0.000 N 
ENDROOT
BRANCH   7   8
ATOM      8  C   UNL     1       6.598   4.805  14.566  0.00  0.00    +0.000 A 
ATOM      9  C   UNL     1       7.600   5.397  13.782  0.00  0.00    +0.000 A 
ATOM     10  C   UNL     1       7.787   5.039  12.442  0.00  0.00    +0.000 A 
ATOM     11  C   UNL     1       6.967   4.081  11.856  0.00  0.00    +0.000 A 
ATOM     12  C   UNL     1       5.986   3.457  12.620  0.00  0.00    +0.000 A 
ATOM     13  C   UNL     1       5.817   3.801  13.968  0.00  0.00    +0.000 A 
ENDBRANCH   7   8
BRANCH   5  14
ATOM     14  O   UNL     1       3.888   7.235  17.576  0.00  0.00    +0.000 OA
BRANCH  14  15
ATOM     15  C   UNL     1       2.722   6.482  17.935  0.00  0.00    +0.000 C 
BRANCH  15  16
ATOM     16  C   UNL     1       2.288   6.901  19.341  0.00  0.00    +0.000 C 
BRANCH  16  17
ATOM     17  C   UNL     1       2.410   5.714  20.302  0.00  0.00    +0.000 C 
BRANCH  17  18
ATOM     18  N   UNL     1       2.176   4.389  19.698  0.00  0.00    +0.000 NA
ATOM     19  C   UNL     1       0.985   3.762  20.310  0.00  0.00    +0.000 C 
ATOM     20  C   UNL     1       1.507   3.095  21.569  0.00  0.00    +0.000 C 
ATOM     21  C   UNL     1       2.855   2.554  21.130  0.00  0.00    +0.000 C 
ATOM     22  C   UNL     1       3.257   3.416  19.935  0.00  0.00    +0.000 C 
ENDBRANCH  17  18
ENDBRANCH  16  17
ENDBRANCH  15  16
ENDBRANCH  14  15
ENDBRANCH   5  14
TORSDOF 6
ENDMDL
MODEL 6
REMARK VINA RESULT:      -6.9      2.263      6.336
REMARK  Name = 
REMARK  6 active torsions:
REMARK  status: ('A' for Active; 'I' for Inactive)
REMARK    1  A    between atoms: C_5  and  O_6
REMARK    2  A    between atoms: O_6  and  C_7
REMARK    3  A    between atoms: C_7  and  C_8
REMARK    4  A    between atoms: C_8  and  C_9
REMARK    5  A    between atoms: C_9  and  N_10
REMARK    6  A    between atoms: N_16  and  C_17
REMARK                            x       y       z     vdW  Elec       q    Type
REMARK                         _______ _______ _______ _____ _____    ______ ____
ROOT
ATOM      1  O   UNL     1       1.200   4.528  18.546  0.00  0.00    +0.000 OA
ATOM      2  C   UNL     1       2.392   4.665  18.817  0.00  0.00    +0.000 A 
ATOM      3  C   UNL     1       3.226   3.444  18.720  0.00  0.00    +0.000 A 
ATOM      4  C   UNL     1       4.533   3.468  18.984  0.00  0.00    +0.000 A 
ATOM      5  C   UNL     1       5.049   4.753  19.443  0.00  0.00    +0.000 A 
ATOM      6  N   UNL     1       4.418   5.879  19.493  0.00  0.00    +0.000 NA
ATOM      7  N   UNL     1       3.073   5.856  19.133  0.00  0.00    +0.000 N 
ENDROOT
BRANCH   7   8
ATOM      8  C   UNL     1       2.442   7.143  19.087  0.00  0.00    +0.000 A 
ATOM      9  C   UNL     1       1.827   7.716  20.210  0.00  0.00    +0.000 A 
ATOM     10  C   UNL     1       1.134   8.930  20.126  0.00  0.00    +0.000 A 
ATOM     11  C   UNL     1       1.040   9.595  18.908  0.00  0.00    +0.000 A 
ATOM     12  C   UNL     1       1.667   9.063  17.785  0.00  0.00    +0.000 A 
ATOM     13  C   UNL     1       2.379   7.860  17.879  0.00  0.00    +0.000 A 
ENDBRANCH   7   8
BRANCH   5  14
ATOM     14  O   UNL     1       6.332   4.573  19.841  0.00  0.00    +0.000 OA
BRANCH  14  15
ATOM     15  C   UNL     1       7.259   5.603  19.471  0.00  0.00    +0.000 C 
BRANCH  15  16
ATOM     16  C   UNL     1       7.730   5.338  18.039  0.00  0.00    +0.000 C 
BRANCH  16  17
ATOM     17  C   UNL     1       7.192   6.423  17.101  0.00  0.00    +0.000 C 
BRANCH  17  18
ATOM     18  N   UNL     1       6.983   6.001  15.704  0.00  0.00    +0.000 NA
ATOM     19  C   UNL     1       5.569   6.206  15.324  0.00  0.00    +0.000 C 
ATOM     20  C   UNL     1       4.857   4.955  15.808  0.00  0.00    +0.000 C 
ATOM     21  C   UNL     1       5.863   3.859  15.513  0.00  0.00    +0.000 C 
ATOM     22  C   UNL     1       7.216   4.566  15.465  0.00  0.00    +0.000 C 
ENDBRANCH  17  18
ENDBRANCH  16  17
ENDBRANCH  15  16
ENDBRANCH  14  15
ENDBRANCH   5  14
TORSDOF 6
ENDMDL
MODEL 7
REMARK VINA RESULT:      -6.8      4.485      8.119
REMARK  Name = 
REMARK  6 active torsions:
REMARK  status: ('A' for Active; 'I' for Inactive)
REMARK    1  A    between atoms: C_5  and  O_6
REMARK    2  A    between atoms: O_6  and  C_7
REMARK    3  A    between atoms: C_7  and  C_8
REMARK    4  A    between atoms: C_8  and  C_9
REMARK    5  A    between atoms: C_9  and  N_10
REMARK    6  A    between atoms: N_16  and  C_17
REMARK                            x       y       z     vdW  Elec       q    Type
REMARK                         _______ _______ _______ _____ _____    ______ ____
ROOT
ATOM      1  O   UNL     1       4.389   3.217  16.831  0.00  0.00    +0.000 OA
ATOM      2  C   UNL     1       5.110   4.092  17.307  0.00  0.00    +0.000 A 
ATOM      3  C   UNL     1       6.131   4.663  16.397  0.00  0.00    +0.000 A 
ATOM      4  C   UNL     1       6.967   5.621  16.798  0.00  0.00    +0.000 A 
ATOM      5  C   UNL     1       6.850   5.999  18.202  0.00  0.00    +0.000 A 
ATOM      6  N   UNL     1       5.953   5.609  19.047  0.00  0.00    +0.000 NA
ATOM      7  N   UNL     1       5.033   4.669  18.589  0.00  0.00    +0.000 N 
ENDROOT
BRANCH   7   8
ATOM      8  C   UNL     1       3.986   4.354  19.517  0.00  0.00    +0.000 A 
ATOM      9  C   UNL     1       3.814   3.063  20.041  0.00  0.00    +0.000 A 
ATOM     10  C   UNL     1       2.732   2.749  20.872  0.00  0.00    +0.000 A 
ATOM     11  C   UNL     1       1.794   3.724  21.193  0.00  0.00    +0.000 A 
ATOM     12  C   UNL     1       1.958   5.020  20.711  0.00  0.00    +0.000 A 
ATOM     13  C   UNL     1       3.055   5.335  19.899  0.00  0.00    +0.000 A 
ENDBRANCH   7   8
BRANCH   5  14
ATOM     14  O   UNL     1       7.873   6.836  18.499  0.00  0.00    +0.000 OA
BRANCH  14  15
ATOM     15  C   UNL     1       7.874   8.098  17.816  0.00  0.00    +0.000 C 
BRANCH  15  16
ATOM     16  C   UNL     1       8.787   9.060  18.579  0.00  0.00    +0.000 C 
BRANCH  16  17
ATOM     17  C   UNL     1       8.723  10.454  17.947  0.00  0.00    +0.000 C 
BRANCH  17  18
ATOM     18  N   UNL     1       9.273  11.545  18.773  0.00  0.00    +0.000 NA
ATOM     19  C   UNL     1       9.430  12.765  17.953  0.00  0.00    +0.000 C 
ATOM     20  C   UNL     1      10.778  12.600  17.275  0.00  0.00    +0.000 C 
ATOM     21  C   UNL     1      11.626  11.962  18.359  0.00  0.00    +0.000 C 
ATOM     22  C   UNL     1      10.626  11.285  19.295  0.00  0.00    +0.000 C 
ENDBRANCH  17  18
ENDBRANCH  16  17
ENDBRANCH  15  16
ENDBRANCH  14  15
ENDBRANCH   5  14
TORSDOF 6
ENDMDL
MODEL 8
REMARK VINA RESULT:      -6.8      0.958      1.204
REMARK  Name = 
REMARK  6 active torsions:
REMARK  status: ('A' for Active; 'I' for Inactive)
REMARK    1  A    between atoms: C_5  and  O_6
REMARK    2  A    between atoms: O_6  and  C_7
REMARK    3  A    between atoms: C_7  and  C_8
REMARK    4  A    between atoms: C_8  and  C_9
REMARK    5  A    between atoms: C_9  and  N_10
REMARK    6  A    between atoms: N_16  and  C_17
REMARK                            x       y       z     vdW  Elec       q    Type
REMARK                         _______ _______ _______ _____ _____    ______ ____
ROOT
ATOM      1  O   UNL     1       8.089   4.159  16.912  0.00  0.00    +0.000 OA
ATOM      2  C   UNL     1       7.122   4.918  16.885  0.00  0.00    +0.000 A 
ATOM      3  C   UNL     1       6.818   5.632  18.148  0.00  0.00    +0.000 A 
ATOM      4  C   UNL     1       5.797   6.486  18.240  0.00  0.00    +0.000 A 
ATOM      5  C   UNL     1       4.973   6.598  17.042  0.00  0.00    +0.000 A 
ATOM      6  N   UNL     1       5.198   6.072  15.883  0.00  0.00    +0.000 NA
ATOM      7  N   UNL     1       6.316   5.249  15.779  0.00  0.00    +0.000 N 
ENDROOT
BRANCH   7   8
ATOM      8  C   UNL     1       6.596   4.783  14.451  0.00  0.00    +0.000 A 
ATOM      9  C   UNL     1       7.602   5.352  13.656  0.00  0.00    +0.000 A 
ATOM     10  C   UNL     1       7.801   4.950  12.330  0.00  0.00    +0.000 A 
ATOM     11  C   UNL     1       6.989   3.970  11.770  0.00  0.00    +0.000 A 
ATOM     12  C   UNL     1       6.004   3.368  12.547  0.00  0.00    +0.000 A 
ATOM     13  C   UNL     1       5.824   3.757  13.881  0.00  0.00    +0.000 A 
ENDBRANCH   7   8
BRANCH   5  14
ATOM     14  O   UNL     1       3.887   7.349  17.347  0.00  0.00    +0.000 OA
BRANCH  14  15
ATOM     15  C   UNL     1       3.212   7.016  18.568  0.00  0.00    +0.000 C 
BRANCH  15  16
ATOM     16  C   UNL     1       1.886   6.337  18.218  0.00  0.00    +0.000 C 
BRANCH  16  17
ATOM     17  C   UNL     1       2.122   4.856  17.906  0.00  0.00    +0.000 C 
BRANCH  17  18
ATOM     18  N   UNL     1       2.879   4.110  18.929  0.00  0.00    +0.000 NA
ATOM     19  C   UNL     1       3.874   3.232  18.277  0.00  0.00    +0.000 C 
ATOM     20  C   UNL     1       3.102   1.972  17.931  0.00  0.00    +0.000 C 
ATOM     21  C   UNL     1       2.188   1.795  19.129  0.00  0.00    +0.000 C 
ATOM     22  C   UNL     1       2.060   3.191  19.737  0.00  0.00    +0.000 C 
ENDBRANCH  17  18
ENDBRANCH  16  17
ENDBRANCH  15  16
ENDBRANCH  14  15
ENDBRANCH   5  14
TORSDOF 6
ENDMDL
MODEL 9
REMARK VINA RESULT:      -6.7      3.978      7.882
REMARK  Name = 
REMARK  6 active torsions:
REMARK  status: ('A' for Active; 'I' for Inactive)
REMARK    1  A    between atoms: C_5  and  O_6
REMARK    2  A    between atoms: O_6  and  C_7
REMARK    3  A    between atoms: C_7  and  C_8
REMARK    4  A    between atoms: C_8  and  C_9
REMARK    5  A    between atoms: C_9  and  N_10
REMARK    6  A    between atoms: N_16  and  C_17
REMARK                            x       y       z     vdW  Elec       q    Type
REMARK                         _______ _______ _______ _____ _____    ______ ____
ROOT
ATOM      1  O   UNL     1       0.554  10.387  18.164  0.00  0.00    +0.000 OA
ATOM      2  C   UNL     1       1.139   9.416  18.638  0.00  0.00    +0.000 A 
ATOM      3  C   UNL     1       2.052   8.693  17.721  0.00  0.00    +0.000 A 
ATOM      4  C   UNL     1       2.746   7.627  18.123  0.00  0.00    +0.000 A 
ATOM      5  C   UNL     1       2.479   7.192  19.489  0.00  0.00    +0.000 A 
ATOM      6  N   UNL     1       1.759   7.793  20.376  0.00  0.00    +0.000 NA
ATOM      7  N   UNL     1       1.105   8.953  19.968  0.00  0.00    +0.000 N 
ENDROOT
BRANCH   7   8
ATOM      8  C   UNL     1       0.415   9.652  21.012  0.00  0.00    +0.000 A 
ATOM      9  C   UNL     1       0.348   9.160  22.325  0.00  0.00    +0.000 A 
ATOM     10  C   UNL     1      -0.408   9.806  23.311  0.00  0.00    +0.000 A 
ATOM     11  C   UNL     1      -1.119  10.959  22.999  0.00  0.00    +0.000 A 
ATOM     12  C   UNL     1      -1.045  11.485  21.713  0.00  0.00    +0.000 A 
ATOM     13  C   UNL     1      -0.268  10.849  20.735  0.00  0.00    +0.000 A 
ENDBRANCH   7   8
BRANCH   5  14
ATOM     14  O   UNL     1       3.111   6.009  19.684  0.00  0.00    +0.000 OA
BRANCH  14  15
ATOM     15  C   UNL     1       4.160   5.694  18.759  0.00  0.00    +0.000 C 
BRANCH  15  16
ATOM     16  C   UNL     1       4.485   4.204  18.885  0.00  0.00    +0.000 C 
BRANCH  16  17
ATOM     17  C   UNL     1       3.323   3.367  18.342  0.00  0.00    +0.000 C 
BRANCH  17  18
ATOM     18  N   UNL     1       2.795   2.347  19.268  0.00  0.00    +0.000 NA
ATOM     19  C   UNL     1       1.320   2.302  19.178  0.00  0.00    +0.000 C 
ATOM     20  C   UNL     1       0.846   3.397  20.116  0.00  0.00    +0.000 C 
ATOM     21  C   UNL     1       1.819   3.295  21.275  0.00  0.00    +0.000 C 
ATOM     22  C   UNL     1       3.061   2.626  20.690  0.00  0.00    +0.000 C 
ENDBRANCH  17  18
ENDBRANCH  16  17
ENDBRANCH  15  16
ENDBRANCH  14  15
ENDBRANCH   5  14
TORSDOF 6
ENDMDL
