MODEL 1
REMARK VINA RESULT:      -7.7      0.000      0.000
REMARK  Name = 
REMARK  1 active torsions:
REMARK  status: ('A' for Active; 'I' for Inactive)
REMARK    1  A    between atoms: C_1  and  C_2
REMARK                            x       y       z     vdW  Elec       q    Type
REMARK                         _______ _______ _______ _____ _____    ______ ____
ROOT
ATOM      1  C   UNL     1       7.989   5.897  19.304  0.00  0.00    +0.000 C 
ATOM      2  C   UNL     1       6.880   5.249  18.527  0.00  0.00    +0.000 A 
ATOM      3  C   UNL     1       7.078   4.894  17.210  0.00  0.00    +0.000 A 
ATOM      4  C   UNL     1       6.025   4.299  16.531  0.00  0.00    +0.000 A 
ATOM      5 CL   UNL     1       6.322   3.872  14.874  0.00  0.00    +0.000 Cl
ATOM      6  C   UNL     1       4.789   4.060  17.163  0.00  0.00    +0.000 A 
ATOM      7  C   UNL     1       3.698   3.457  16.502  0.00  0.00    +0.000 A 
ATOM      8  C   UNL     1       2.492   3.235  17.148  0.00  0.00    +0.000 A 
ATOM      9  C   UNL     1       2.337   3.611  18.477  0.00  0.00    +0.000 A 
ATOM     10  C   UNL     1       1.110   3.380  19.122  0.00  0.00    +0.000 A 
ATOM     11  C   UNL     1       0.924   3.744  20.451  0.00  0.00    +0.000 A 
ATOM     12  C   UNL     1       1.965   4.344  21.149  0.00  0.00    +0.000 A 
ATOM     13  C   UNL     1       3.193   4.578  20.516  0.00  0.00    +0.000 A 
ATOM     14  C   UNL     1       3.417   4.220  19.168  0.00  0.00    +0.000 A 
ATOM     15  C   UNL     1       4.658   4.453  18.516  0.00  0.00    +0.000 A 
ATOM     16  N   UNL     1       5.703   5.034  19.164  0.00  0.00    +0.000 NA
ENDROOT
TORSDOF 0
ENDMDL
MODEL 2
REMARK VINA RESULT:      -7.5      2.816      5.045
REMARK  Name = 
REMARK  1 active torsions:
REMARK  status: ('A' for Active; 'I' for Inactive)
REMARK    1  A    between atoms: C_1  and  C_2
REMARK                            x       y       z     vdW  Elec       q    Type
REMARK                         _______ _______ _______ _____ _____    ______ ____
ROOT
ATOM      1  C   UNL     1       1.544   7.996  20.820  0.00  0.00    +0.000 C 
ATOM      2  C   UNL     1       1.927   6.658  20.258  0.00  0.00    +0.000 A 
ATOM      3  C   UNL     1       1.458   5.504  20.848  0.00  0.00    +0.000 A 
ATOM      4  C   UNL     1       1.839   4.290  20.296  0.00  0.00    +0.000 A 
ATOM      5 CL   UNL     1       1.224   2.864  21.075  0.00  0.00    +0.000 Cl
ATOM      6  C   UNL     1       2.678   4.231  19.165  0.00  0.00    +0.000 A 
ATOM      7  C   UNL     1       3.084   3.013  18.579  0.00  0.00    +0.000 A 
ATOM      8  C   UNL     1       3.911   2.986  17.468  0.00  0.00    +0.000 A 
ATOM      9  C   UNL     1       4.362   4.175  16.907  0.00  0.00    +0.000 A 
ATOM     10  C   UNL     1       5.200   4.134  15.779  0.00  0.00    +0.000 A 
ATOM     11  C   UNL     1       5.666   5.306  15.196  0.00  0.00    +0.000 A 
ATOM     12  C   UNL     1       5.299   6.533  15.734  0.00  0.00    +0.000 A 
ATOM     13  C   UNL     1       4.463   6.586  16.858  0.00  0.00    +0.000 A 
ATOM     14  C   UNL     1       3.970   5.415  17.475  0.00  0.00    +0.000 A 
ATOM     15  C   UNL     1       3.122   5.456  18.615  0.00  0.00    +0.000 A 
ATOM     16  N   UNL     1       2.736   6.637  19.171  0.00  0.00    +0.000 NA
ENDROOT
TORSDOF 0
ENDMDL
MODEL 3
REMARK VINA RESULT:      -7.4      1.006      1.007
REMARK  Name = 
REMARK  1 active torsions:
REMARK  status: ('A' for Active; 'I' for Inactive)
REMARK    1  A    between atoms: C_1  and  C_2
REMARK                            x       y       z     vdW  Elec       q    Type
REMARK                         _______ _______ _______ _____ _____    ______ ____
ROOT
ATOM      1  C   UNL     1       7.578   7.320  17.844  0.00  0.00    +0.000 C 
ATOM      2  C   UNL     1       6.589   6.270  17.429  0.00  0.00    +0.000 A 
ATOM      3  C   UNL     1       6.795   5.548  16.273  0.00  0.00    +0.000 A 
ATOM      4  C   UNL     1       5.855   4.589  15.928  0.00  0.00    +0.000 A 
ATOM      5 CL   UNL     1       6.157   3.707  14.463  0.00  0.00    +0.000 Cl
ATOM      6  C   UNL     1       4.722   4.353  16.732  0.00  0.00    +0.000 A 
ATOM      7  C   UNL     1       3.747   3.385  16.410  0.00  0.00    +0.000 A 
ATOM      8  C   UNL     1       2.641   3.174  17.219  0.00  0.00    +0.000 A 
ATOM      9  C   UNL     1       2.473   3.927  18.376  0.00  0.00    +0.000 A 
ATOM     10  C   UNL     1       1.348   3.704  19.188  0.00  0.00    +0.000 A 
ATOM     11  C   UNL     1       1.153   4.440  20.351  0.00  0.00    +0.000 A 
ATOM     12  C   UNL     1       2.081   5.408  20.714  0.00  0.00    +0.000 A 
ATOM     13  C   UNL     1       3.207   5.638  19.912  0.00  0.00    +0.000 A 
ATOM     14  C   UNL     1       3.438   4.908  18.724  0.00  0.00    +0.000 A 
ATOM     15  C   UNL     1       4.575   5.133  17.903  0.00  0.00    +0.000 A 
ATOM     16  N   UNL     1       5.510   6.068  18.224  0.00  0.00    +0.000 NA
ENDROOT
TORSDOF 0
ENDMDL
MODEL 4
REMARK VINA RESULT:      -7.4      2.925      5.326
REMARK  Name = 
REMARK  1 active torsions:
REMARK  status: ('A' for Active; 'I' for Inactive)
REMARK    1  A    between atoms: C_1  and  C_2
REMARK                            x       y       z     vdW  Elec       q    Type
REMARK                         _______ _______ _______ _____ _____    ______ ____
ROOT
ATOM      1  C   UNL     1       2.062   2.592  21.207  0.00  0.00    +0.000 C 
ATOM      2  C   UNL     1       2.316   3.887  20.492  0.00  0.00    +0.000 A 
ATOM      3  C   UNL     1       1.758   5.055  20.964  0.00  0.00    +0.000 A 
ATOM      4  C   UNL     1       2.020   6.228  20.271  0.00  0.00    +0.000 A 
ATOM      5 CL   UNL     1       1.293   7.673  20.902  0.00  0.00    +0.000 Cl
ATOM      6  C   UNL     1       2.833   6.231  19.119  0.00  0.00    +0.000 A 
ATOM      7  C   UNL     1       3.118   7.406  18.392  0.00  0.00    +0.000 A 
ATOM      8  C   UNL     1       3.921   7.380  17.262  0.00  0.00    +0.000 A 
ATOM      9  C   UNL     1       4.461   6.178  16.821  0.00  0.00    +0.000 A 
ATOM     10  C   UNL     1       5.274   6.164  15.675  0.00  0.00    +0.000 A 
ATOM     11  C   UNL     1       5.830   4.978  15.210  0.00  0.00    +0.000 A 
ATOM     12  C   UNL     1       5.578   3.791  15.887  0.00  0.00    +0.000 A 
ATOM     13  C   UNL     1       4.771   3.793  17.032  0.00  0.00    +0.000 A 
ATOM     14  C   UNL     1       4.191   4.981  17.533  0.00  0.00    +0.000 A 
ATOM     15  C   UNL     1       3.370   4.995  18.693  0.00  0.00    +0.000 A 
ATOM     16  N   UNL     1       3.102   3.855  19.387  0.00  0.00    +0.000 NA
ENDROOT
TORSDOF 0
ENDMDL
MODEL 5
REMARK VINA RESULT:      -7.3      1.868      3.069
REMARK  Name = 
REMARK  1 active torsions:
REMARK  status: ('A' for Active; 'I' for Inactive)
REMARK    1  A    between atoms: C_1  and  C_2
REMARK                            x       y       z     vdW  Elec       q    Type
REMARK                         _______ _______ _______ _____ _____    ______ ____
ROOT
ATOM      1  C   UNL     1       6.140   3.774  13.904  0.00  0.00    +0.000 C 
ATOM      2  C   UNL     1       5.881   4.357  15.262  0.00  0.00    +0.000 A 
ATOM      3  C   UNL     1       6.714   5.337  15.760  0.00  0.00    +0.000 A 
ATOM      4  C   UNL     1       6.437   5.847  17.020  0.00  0.00    +0.000 A 
ATOM      5 CL   UNL     1       7.514   7.077  17.605  0.00  0.00    +0.000 Cl
ATOM      6  C   UNL     1       5.339   5.383  17.772  0.00  0.00    +0.000 A 
ATOM      7  C   UNL     1       5.030   5.880  19.056  0.00  0.00    +0.000 A 
ATOM      8  C   UNL     1       3.944   5.405  19.774  0.00  0.00    +0.000 A 
ATOM      9  C   UNL     1       3.133   4.414  19.233  0.00  0.00    +0.000 A 
ATOM     10  C   UNL     1       2.034   3.941  19.970  0.00  0.00    +0.000 A 
ATOM     11  C   UNL     1       1.204   2.952  19.455  0.00  0.00    +0.000 A 
ATOM     12  C   UNL     1       1.464   2.425  18.196  0.00  0.00    +0.000 A 
ATOM     13  C   UNL     1       2.556   2.891  17.451  0.00  0.00    +0.000 A 
ATOM     14  C   UNL     1       3.420   3.896  17.943  0.00  0.00    +0.000 A 
ATOM     15  C   UNL     1       4.531   4.375  17.198  0.00  0.00    +0.000 A 
ATOM     16  N   UNL     1       4.818   3.889  15.959  0.00  0.00    +0.000 NA
ENDROOT
TORSDOF 0
ENDMDL
MODEL 6
REMARK VINA RESULT:      -7.0      1.484      1.522
REMARK  Name = 
REMARK  1 active torsions:
REMARK  status: ('A' for Active; 'I' for Inactive)
REMARK    1  A    between atoms: C_1  and  C_2
REMARK                            x       y       z     vdW  Elec       q    Type
REMARK                         _______ _______ _______ _____ _____    ______ ____
ROOT
ATOM      1  C   UNL     1       7.936   5.476  19.674  0.00  0.00    +0.000 C 
ATOM      2  C   UNL     1       6.588   5.439  19.015  0.00  0.00    +0.000 A 
ATOM      3  C   UNL     1       6.402   6.050  17.794  0.00  0.00    +0.000 A 
ATOM      4  C   UNL     1       5.139   5.991  17.223  0.00  0.00    +0.000 A 
ATOM      5 CL   UNL     1       4.953   6.777  15.686  0.00  0.00    +0.000 Cl
ATOM      6  C   UNL     1       4.076   5.326  17.866  0.00  0.00    +0.000 A 
ATOM      7  C   UNL     1       2.780   5.247  17.313  0.00  0.00    +0.000 A 
ATOM      8  C   UNL     1       1.752   4.588  17.968  0.00  0.00    +0.000 A 
ATOM      9  C   UNL     1       1.986   3.987  19.200  0.00  0.00    +0.000 A 
ATOM     10  C   UNL     1       0.936   3.320  19.854  0.00  0.00    +0.000 A 
ATOM     11  C   UNL     1       1.139   2.709  21.086  0.00  0.00    +0.000 A 
ATOM     12  C   UNL     1       2.395   2.758  21.677  0.00  0.00    +0.000 A 
ATOM     13  C   UNL     1       3.450   3.419  21.033  0.00  0.00    +0.000 A 
ATOM     14  C   UNL     1       3.279   4.050  19.780  0.00  0.00    +0.000 A 
ATOM     15  C   UNL     1       4.341   4.724  19.118  0.00  0.00    +0.000 A 
ATOM     16  N   UNL     1       5.587   4.792  19.661  0.00  0.00    +0.000 NA
ENDROOT
TORSDOF 0
ENDMDL
MODEL 7
REMARK VINA RESULT:      -6.8      2.411      4.804
REMARK  Name = 
REMARK  1 active torsions:
REMARK  status: ('A' for Active; 'I' for Inactive)
REMARK    1  A    between atoms: C_1  and  C_2
REMARK                            x       y       z     vdW  Elec       q    Type
REMARK                         _______ _______ _______ _____ _____    ______ ____
ROOT
ATOM      1  C   UNL     1       4.885   1.443  20.947  0.00  0.00    +0.000 C 
ATOM      2  C   UNL     1       4.426   2.537  20.028  0.00  0.00    +0.000 A 
ATOM      3  C   UNL     1       3.131   2.542  19.556  0.00  0.00    +0.000 A 
ATOM      4  C   UNL     1       2.751   3.572  18.708  0.00  0.00    +0.000 A 
ATOM      5 CL   UNL     1       1.111   3.534  18.139  0.00  0.00    +0.000 Cl
ATOM      6  C   UNL     1       3.657   4.586  18.338  0.00  0.00    +0.000 A 
ATOM      7  C   UNL     1       3.303   5.648  17.478  0.00  0.00    +0.000 A 
ATOM      8  C   UNL     1       4.215   6.631  17.129  0.00  0.00    +0.000 A 
ATOM      9  C   UNL     1       5.512   6.585  17.628  0.00  0.00    +0.000 A 
ATOM     10  C   UNL     1       6.427   7.589  17.268  0.00  0.00    +0.000 A 
ATOM     11  C   UNL     1       7.730   7.570  17.751  0.00  0.00    +0.000 A 
ATOM     12  C   UNL     1       8.133   6.546  18.599  0.00  0.00    +0.000 A 
ATOM     13  C   UNL     1       7.228   5.541  18.966  0.00  0.00    +0.000 A 
ATOM     14  C   UNL     1       5.896   5.529  18.495  0.00  0.00    +0.000 A 
ATOM     15  C   UNL     1       4.970   4.514  18.859  0.00  0.00    +0.000 A 
ATOM     16  N   UNL     1       5.322   3.496  19.691  0.00  0.00    +0.000 NA
ENDROOT
TORSDOF 0
ENDMDL
MODEL 8
REMARK VINA RESULT:      -6.8      3.367      4.269
REMARK  Name = 
REMARK  1 active torsions:
REMARK  status: ('A' for Active; 'I' for Inactive)
REMARK    1  A    between atoms: C_1  and  C_2
REMARK                            x       y       z     vdW  Elec       q    Type
REMARK                         _______ _______ _______ _____ _____    ______ ____
ROOT
ATOM      1  C   UNL     1       5.540   4.947  15.519  0.00  0.00    +0.000 C 
ATOM      2  C   UNL     1       4.775   4.982  16.810  0.00  0.00    +0.000 A 
ATOM      3  C   UNL     1       4.804   3.894  17.656  0.00  0.00    +0.000 A 
ATOM      4  C   UNL     1       4.082   3.970  18.838  0.00  0.00    +0.000 A 
ATOM      5 CL   UNL     1       4.147   2.575  19.870  0.00  0.00    +0.000 Cl
ATOM      6  C   UNL     1       3.342   5.122  19.170  0.00  0.00    +0.000 A 
ATOM      7  C   UNL     1       2.597   5.232  20.364  0.00  0.00    +0.000 A 
ATOM      8  C   UNL     1       1.877   6.377  20.665  0.00  0.00    +0.000 A 
ATOM      9  C   UNL     1       1.876   7.450  19.780  0.00  0.00    +0.000 A 
ATOM     10  C   UNL     1       1.143   8.606  20.097  0.00  0.00    +0.000 A 
ATOM     11  C   UNL     1       1.122   9.695  19.234  0.00  0.00    +0.000 A 
ATOM     12  C   UNL     1       1.836   9.639  18.043  0.00  0.00    +0.000 A 
ATOM     13  C   UNL     1       2.572   8.491  17.718  0.00  0.00    +0.000 A 
ATOM     14  C   UNL     1       2.616   7.367  18.572  0.00  0.00    +0.000 A 
ATOM     15  C   UNL     1       3.358   6.198  18.253  0.00  0.00    +0.000 A 
ATOM     16  N   UNL     1       4.073   6.104  17.099  0.00  0.00    +0.000 NA
ENDROOT
TORSDOF 0
ENDMDL
MODEL 9
REMARK VINA RESULT:      -6.7      3.149      5.231
REMARK  Name = 
REMARK  1 active torsions:
REMARK  status: ('A' for Active; 'I' for Inactive)
REMARK    1  A    between atoms: C_1  and  C_2
REMARK                            x       y       z     vdW  Elec       q    Type
REMARK                         _______ _______ _______ _____ _____    ______ ____
ROOT
ATOM      1  C   UNL     1       2.163   9.476  18.084  0.00  0.00    +0.000 C 
ATOM      2  C   UNL     1       2.554   8.051  18.349  0.00  0.00    +0.000 A 
ATOM      3  C   UNL     1       2.062   7.398  19.459  0.00  0.00    +0.000 A 
ATOM      4  C   UNL     1       2.451   6.083  19.666  0.00  0.00    +0.000 A 
ATOM      5 CL   UNL     1       1.808   5.303  21.077  0.00  0.00    +0.000 Cl
ATOM      6  C   UNL     1       3.321   5.428  18.770  0.00  0.00    +0.000 A 
ATOM      7  C   UNL     1       3.735   4.091  18.950  0.00  0.00    +0.000 A 
ATOM      8  C   UNL     1       4.592   3.472  18.054  0.00  0.00    +0.000 A 
ATOM      9  C   UNL     1       5.065   4.171  16.949  0.00  0.00    +0.000 A 
ATOM     10  C   UNL     1       5.933   3.532  16.047  0.00  0.00    +0.000 A 
ATOM     11  C   UNL     1       6.421   4.204  14.933  0.00  0.00    +0.000 A 
ATOM     12  C   UNL     1       6.047   5.523  14.708  0.00  0.00    +0.000 A 
ATOM     13  C   UNL     1       5.181   6.169  15.601  0.00  0.00    +0.000 A 
ATOM     14  C   UNL     1       4.664   5.517  16.742  0.00  0.00    +0.000 A 
ATOM     15  C   UNL     1       3.786   6.162  17.655  0.00  0.00    +0.000 A 
ATOM     16  N   UNL     1       3.392   7.451  17.470  0.00  0.00    +0.000 NA
ENDROOT
TORSDOF 0
ENDMDL
