MODEL 1
REMARK VINA RESULT:      -8.2      0.000      0.000
REMARK  Name = 
REMARK  3 active torsions:
REMARK  status: ('A' for Active; 'I' for Inactive)
REMARK    1  A    between atoms: N_6  and  C_7
REMARK    2  A    between atoms: C_7  and  C_8
REMARK    3  A    between atoms: C_8  and  N_9
REMARK                            x       y       z     vdW  Elec       q    Type
REMARK                         _______ _______ _______ _____ _____    ______ ____
ROOT
ATOM      1  N   UNL     1       7.513   6.880  17.513  0.00  0.00    +0.000 NA
ATOM      2  C   UNL     1       6.157   7.344  17.136  0.00  0.00    +0.000 C 
ATOM      3  C   UNL     1       5.508   6.639  15.937  0.00  0.00    +0.000 C 
ATOM      4  C   UNL     1       5.348   5.117  15.971  0.00  0.00    +0.000 C 
ATOM      5  N   UNL     1       5.510   4.563  17.304  0.00  0.00    +0.000 N 
ATOM      6  C   UNL     1       4.431   4.139  18.004  0.00  0.00    +0.000 A 
ATOM      7  N   UNL     1       3.198   3.964  17.580  0.00  0.00    +0.000 NA
ATOM      8  C   UNL     1       2.481   3.525  18.667  0.00  0.00    +0.000 A 
ATOM      9  C   UNL     1       1.131   3.159  18.773  0.00  0.00    +0.000 A 
ATOM     10  C   UNL     1       0.636   2.779  20.028  0.00  0.00    +0.000 A 
ATOM     11  C   UNL     1       1.465   2.756  21.152  0.00  0.00    +0.000 A 
ATOM     12  C   UNL     1       2.819   3.096  21.061  0.00  0.00    +0.000 A 
ATOM     13  C   UNL     1       3.284   3.468  19.799  0.00  0.00    +0.000 A 
ATOM     14  N   UNL     1       4.516   3.847  19.344  0.00  0.00    +0.000 N 
ATOM     15  C   UNL     1       6.887   4.410  17.757  0.00  0.00    +0.000 C 
ATOM     16  C   UNL     1       7.415   5.697  18.407  0.00  0.00    +0.000 C 
ATOM     17  H   UNL     1       5.348   3.924  19.904  0.00  0.00    +0.000 HD
ENDROOT
BRANCH   1  18
ATOM     18  C   UNL     1       8.228   7.975  18.218  0.00  0.00    +0.000 C 
BRANCH  18  19
ATOM     19  C   UNL     1       7.907   9.426  17.773  0.00  0.00    +0.000 C 
BRANCH  19  25
ATOM     20  O   UNL     1       8.066  12.313  17.148  0.00  0.00    +0.000 OA
ATOM     21  C   UNL     1       8.729  11.783  18.026  0.00  0.00    +0.000 C 
ATOM     22  O   UNL     1       9.573  12.473  18.855  0.00  0.00    +0.000 OA
ATOM     23  C   UNL     1      10.321  11.518  19.616  0.00  0.00    +0.000 C 
ATOM     24  C   UNL     1       9.507  10.253  19.544  0.00  0.00    +0.000 C 
ATOM     25  N   UNL     1       8.776  10.446  18.335  0.00  0.00    +0.000 N 
ENDBRANCH  19  25
ENDBRANCH  18  19
ENDBRANCH   1  18
TORSDOF 3
ENDMDL
MODEL 2
REMARK VINA RESULT:      -8.1      6.990      8.919
REMARK  Name = 
REMARK  3 active torsions:
REMARK  status: ('A' for Active; 'I' for Inactive)
REMARK    1  A    between atoms: N_6  and  C_7
REMARK    2  A    between atoms: C_7  and  C_8
REMARK    3  A    between atoms: C_8  and  N_9
REMARK                            x       y       z     vdW  Elec       q    Type
REMARK                         _______ _______ _______ _____ _____    ______ ____
ROOT
ATOM      1  N   UNL     1       2.192   7.482  20.062  0.00  0.00    +0.000 NA
ATOM      2  C   UNL     1       0.968   7.699  20.870  0.00  0.00    +0.000 C 
ATOM      3  C   UNL     1       0.826   9.077  21.530  0.00  0.00    +0.000 C 
ATOM      4  C   UNL     1       0.876  10.328  20.649  0.00  0.00    +0.000 C 
ATOM      5  N   UNL     1       0.693  10.032  19.238  0.00  0.00    +0.000 N 
ATOM      6  C   UNL     1      -0.480  10.320  18.626  0.00  0.00    +0.000 A 
ATOM      7  N   UNL     1      -1.484  11.039  19.078  0.00  0.00    +0.000 NA
ATOM      8  C   UNL     1      -2.434  11.033  18.085  0.00  0.00    +0.000 A 
ATOM      9  C   UNL     1      -3.686  11.662  18.027  0.00  0.00    +0.000 A 
ATOM     10  C   UNL     1      -4.487  11.458  16.895  0.00  0.00    +0.000 A 
ATOM     11  C   UNL     1      -4.051  10.651  15.841  0.00  0.00    +0.000 A 
ATOM     12  C   UNL     1      -2.796  10.033  15.872  0.00  0.00    +0.000 A 
ATOM     13  C   UNL     1      -2.021  10.257  17.010  0.00  0.00    +0.000 A 
ATOM     14  N   UNL     1      -0.773   9.833  17.375  0.00  0.00    +0.000 N 
ATOM     15  C   UNL     1       1.870   9.520  18.547  0.00  0.00    +0.000 C 
ATOM     16  C   UNL     1       1.987   7.995  18.683  0.00  0.00    +0.000 C 
ATOM     17  H   UNL     1      -0.174   9.239  16.828  0.00  0.00    +0.000 HD
ENDROOT
BRANCH   1  18
ATOM     18  C   UNL     1       2.494   6.029  20.009  0.00  0.00    +0.000 C 
BRANCH  18  19
ATOM     19  C   UNL     1       3.254   5.514  18.758  0.00  0.00    +0.000 C 
BRANCH  19  25
ATOM     20  O   UNL     1       1.115   4.094  17.288  0.00  0.00    +0.000 OA
ATOM     21  C   UNL     1       2.103   3.533  17.736  0.00  0.00    +0.000 C 
ATOM     22  O   UNL     1       2.359   2.200  17.557  0.00  0.00    +0.000 OA
ATOM     23  C   UNL     1       3.483   1.854  18.374  0.00  0.00    +0.000 C 
ATOM     24  C   UNL     1       4.173   3.164  18.646  0.00  0.00    +0.000 C 
ATOM     25  N   UNL     1       3.103   4.094  18.490  0.00  0.00    +0.000 N 
ENDBRANCH  19  25
ENDBRANCH  18  19
ENDBRANCH   1  18
TORSDOF 3
ENDMDL
MODEL 3
REMARK VINA RESULT:      -7.9      6.625      7.995
REMARK  Name = 
REMARK  3 active torsions:
REMARK  status: ('A' for Active; 'I' for Inactive)
REMARK    1  A    between atoms: N_6  and  C_7
REMARK    2  A    between atoms: C_7  and  C_8
REMARK    3  A    between atoms: C_8  and  N_9
REMARK                            x       y       z     vdW  Elec       q    Type
REMARK                         _______ _______ _______ _____ _____    ______ ____
ROOT
ATOM      1  N   UNL     1       2.396   7.430  19.783  0.00  0.00    +0.000 NA
ATOM      2  C   UNL     1       1.182   7.528  20.628  0.00  0.00    +0.000 C 
ATOM      3  C   UNL     1       1.005   8.835  21.412  0.00  0.00    +0.000 C 
ATOM      4  C   UNL     1       0.993  10.161  20.648  0.00  0.00    +0.000 C 
ATOM      5  N   UNL     1       0.790   9.986  19.220  0.00  0.00    +0.000 N 
ATOM      6  C   UNL     1      -0.405  10.284  18.657  0.00  0.00    +0.000 A 
ATOM      7  N   UNL     1      -1.424  10.920  19.190  0.00  0.00    +0.000 NA
ATOM      8  C   UNL     1      -2.394  10.968  18.218  0.00  0.00    +0.000 A 
ATOM      9  C   UNL     1      -3.669  11.553  18.239  0.00  0.00    +0.000 A 
ATOM     10  C   UNL     1      -4.486  11.421  17.108  0.00  0.00    +0.000 A 
ATOM     11  C   UNL     1      -4.044  10.728  15.978  0.00  0.00    +0.000 A 
ATOM     12  C   UNL     1      -2.768  10.158  15.930  0.00  0.00    +0.000 A 
ATOM     13  C   UNL     1      -1.977  10.307  17.070  0.00  0.00    +0.000 A 
ATOM     14  N   UNL     1      -0.707   9.900  17.373  0.00  0.00    +0.000 N 
ATOM     15  C   UNL     1       1.970   9.582  18.464  0.00  0.00    +0.000 C 
ATOM     16  C   UNL     1       2.144   8.057  18.459  0.00  0.00    +0.000 C 
ATOM     17  H   UNL     1      -0.099   9.379  16.763  0.00  0.00    +0.000 HD
ENDROOT
BRANCH   1  18
ATOM     18  C   UNL     1       2.749   6.000  19.594  0.00  0.00    +0.000 C 
BRANCH  18  19
ATOM     19  C   UNL     1       3.455   5.620  18.265  0.00  0.00    +0.000 C 
BRANCH  19  25
ATOM     20  O   UNL     1       5.152   3.483  19.407  0.00  0.00    +0.000 OA
ATOM     21  C   UNL     1       5.606   4.462  18.836  0.00  0.00    +0.000 C 
ATOM     22  O   UNL     1       6.943   4.650  18.609  0.00  0.00    +0.000 OA
ATOM     23  C   UNL     1       7.121   5.976  18.100  0.00  0.00    +0.000 C 
ATOM     24  C   UNL     1       5.766   6.366  17.572  0.00  0.00    +0.000 C 
ATOM     25  N   UNL     1       4.903   5.533  18.343  0.00  0.00    +0.000 N 
ENDBRANCH  19  25
ENDBRANCH  18  19
ENDBRANCH   1  18
TORSDOF 3
ENDMDL
MODEL 4
REMARK VINA RESULT:      -7.9      6.905      8.843
REMARK  Name = 
REMARK  3 active torsions:
REMARK  status: ('A' for Active; 'I' for Inactive)
REMARK    1  A    between atoms: N_6  and  C_7
REMARK    2  A    between atoms: C_7  and  C_8
REMARK    3  A    between atoms: C_8  and  N_9
REMARK                            x       y       z     vdW  Elec       q    Type
REMARK                         _______ _______ _______ _____ _____    ______ ____
ROOT
ATOM      1  N   UNL     1       2.263   7.579  19.911  0.00  0.00    +0.000 NA
ATOM      2  C   UNL     1       1.050   7.748  20.746  0.00  0.00    +0.000 C 
ATOM      3  C   UNL     1       0.889   9.107  21.442  0.00  0.00    +0.000 C 
ATOM      4  C   UNL     1       0.894  10.379  20.591  0.00  0.00    +0.000 C 
ATOM      5  N   UNL     1       0.690  10.112  19.177  0.00  0.00    +0.000 N 
ATOM      6  C   UNL     1      -0.500  10.387  18.594  0.00  0.00    +0.000 A 
ATOM      7  N   UNL     1      -1.512  11.071  19.082  0.00  0.00    +0.000 NA
ATOM      8  C   UNL     1      -2.480  11.067  18.107  0.00  0.00    +0.000 A 
ATOM      9  C   UNL     1      -3.747  11.667  18.087  0.00  0.00    +0.000 A 
ATOM     10  C   UNL     1      -4.565  11.471  16.966  0.00  0.00    +0.000 A 
ATOM     11  C   UNL     1      -4.130  10.700  15.884  0.00  0.00    +0.000 A 
ATOM     12  C   UNL     1      -2.861  10.111  15.877  0.00  0.00    +0.000 A 
ATOM     13  C   UNL     1      -2.070  10.326  17.006  0.00  0.00    +0.000 A 
ATOM     14  N   UNL     1      -0.805   9.923  17.337  0.00  0.00    +0.000 N 
ATOM     15  C   UNL     1       1.866   9.645  18.452  0.00  0.00    +0.000 C 
ATOM     16  C   UNL     1       2.021   8.120  18.549  0.00  0.00    +0.000 C 
ATOM     17  H   UNL     1      -0.204   9.356  16.765  0.00  0.00    +0.000 HD
ENDROOT
BRANCH   1  18
ATOM     18  C   UNL     1       2.598   6.136  19.817  0.00  0.00    +0.000 C 
BRANCH  18  19
ATOM     19  C   UNL     1       3.292   5.658  18.515  0.00  0.00    +0.000 C 
BRANCH  19  25
ATOM     20  O   UNL     1       5.246   3.616  19.390  0.00  0.00    +0.000 OA
ATOM     21  C   UNL     1       4.207   3.340  18.812  0.00  0.00    +0.000 C 
ATOM     22  O   UNL     1       3.803   2.057  18.557  0.00  0.00    +0.000 OA
ATOM     23  C   UNL     1       2.655   2.118  17.703  0.00  0.00    +0.000 C 
ATOM     24  C   UNL     1       2.117   3.512  17.887  0.00  0.00    +0.000 C 
ATOM     25  N   UNL     1       3.282   4.220  18.306  0.00  0.00    +0.000 N 
ENDBRANCH  19  25
ENDBRANCH  18  19
ENDBRANCH   1  18
TORSDOF 3
ENDMDL
MODEL 5
REMARK VINA RESULT:      -7.9      7.326      9.399
REMARK  Name = 
REMARK  3 active torsions:
REMARK  status: ('A' for Active; 'I' for Inactive)
REMARK    1  A    between atoms: N_6  and  C_7
REMARK    2  A    between atoms: C_7  and  C_8
REMARK    3  A    between atoms: C_8  and  N_9
REMARK                            x       y       z     vdW  Elec       q    Type
REMARK                         _______ _______ _______ _____ _____    ______ ____
ROOT
ATOM      1  N   UNL     1       2.297   7.815  19.803  0.00  0.00    +0.000 NA
ATOM      2  C   UNL     1       1.105   7.936  20.674  0.00  0.00    +0.000 C 
ATOM      3  C   UNL     1       0.928   9.278  21.398  0.00  0.00    +0.000 C 
ATOM      4  C   UNL     1       0.874  10.564  20.571  0.00  0.00    +0.000 C 
ATOM      5  N   UNL     1       0.638  10.317  19.159  0.00  0.00    +0.000 N 
ATOM      6  C   UNL     1      -0.575  10.569  18.613  0.00  0.00    +0.000 A 
ATOM      7  N   UNL     1      -1.591  11.217  19.142  0.00  0.00    +0.000 NA
ATOM      8  C   UNL     1      -2.586  11.203  18.195  0.00  0.00    +0.000 A 
ATOM      9  C   UNL     1      -3.868  11.770  18.221  0.00  0.00    +0.000 A 
ATOM     10  C   UNL     1      -4.712  11.571  17.120  0.00  0.00    +0.000 A 
ATOM     11  C   UNL     1      -4.289  10.830  16.013  0.00  0.00    +0.000 A 
ATOM     12  C   UNL     1      -3.005  10.276  15.959  0.00  0.00    +0.000 A 
ATOM     13  C   UNL     1      -2.188  10.493  17.070  0.00  0.00    +0.000 A 
ATOM     14  N   UNL     1      -0.904  10.119  17.358  0.00  0.00    +0.000 N 
ATOM     15  C   UNL     1       1.804   9.893  18.393  0.00  0.00    +0.000 C 
ATOM     16  C   UNL     1       2.002   8.372  18.457  0.00  0.00    +0.000 C 
ATOM     17  H   UNL     1      -0.305   9.578  16.759  0.00  0.00    +0.000 HD
ENDROOT
BRANCH   1  18
ATOM     18  C   UNL     1       2.668   6.382  19.673  0.00  0.00    +0.000 C 
BRANCH  18  19
ATOM     19  C   UNL     1       1.897   5.373  20.565  0.00  0.00    +0.000 C 
BRANCH  19  25
ATOM     20  O   UNL     1       1.901   2.784  21.997  0.00  0.00    +0.000 OA
ATOM     21  C   UNL     1       1.756   2.878  20.788  0.00  0.00    +0.000 C 
ATOM     22  O   UNL     1       1.521   1.805  19.971  0.00  0.00    +0.000 OA
ATOM     23  C   UNL     1       1.600   2.258  18.615  0.00  0.00    +0.000 C 
ATOM     24  C   UNL     1       1.394   3.747  18.699  0.00  0.00    +0.000 C 
ATOM     25  N   UNL     1       1.814   4.024  20.034  0.00  0.00    +0.000 N 
ENDBRANCH  19  25
ENDBRANCH  18  19
ENDBRANCH   1  18
TORSDOF 3
ENDMDL
MODEL 6
REMARK VINA RESULT:      -7.8      4.310      6.555
REMARK  Name = 
REMARK  3 active torsions:
REMARK  status: ('A' for Active; 'I' for Inactive)
REMARK    1  A    between atoms: N_6  and  C_7
REMARK    2  A    between atoms: C_7  and  C_8
REMARK    3  A    between atoms: C_8  and  N_9
REMARK                            x       y       z     vdW  Elec       q    Type
REMARK                         _______ _______ _______ _____ _____    ______ ____
ROOT
ATOM      1  N   UNL     1       7.072   5.358  15.217  0.00  0.00    +0.000 NA
ATOM      2  C   UNL     1       7.444   4.751  16.517  0.00  0.00    +0.000 C 
ATOM      3  C   UNL     1       7.543   5.711  17.710  0.00  0.00    +0.000 C 
ATOM      4  C   UNL     1       6.329   6.570  18.072  0.00  0.00    +0.000 C 
ATOM      5  N   UNL     1       5.102   6.101  17.451  0.00  0.00    +0.000 N 
ATOM      6  C   UNL     1       4.168   5.452  18.185  0.00  0.00    +0.000 A 
ATOM      7  N   UNL     1       4.099   5.325  19.492  0.00  0.00    +0.000 NA
ATOM      8  C   UNL     1       2.971   4.580  19.743  0.00  0.00    +0.000 A 
ATOM      9  C   UNL     1       2.408   4.173  20.961  0.00  0.00    +0.000 A 
ATOM     10  C   UNL     1       1.257   3.373  20.933  0.00  0.00    +0.000 A 
ATOM     11  C   UNL     1       0.674   2.992  19.721  0.00  0.00    +0.000 A 
ATOM     12  C   UNL     1       1.209   3.407  18.498  0.00  0.00    +0.000 A 
ATOM     13  C   UNL     1       2.354   4.203  18.557  0.00  0.00    +0.000 A 
ATOM     14  N   UNL     1       3.126   4.784  17.589  0.00  0.00    +0.000 N 
ATOM     15  C   UNL     1       4.926   6.474  16.052  0.00  0.00    +0.000 C 
ATOM     16  C   UNL     1       5.594   5.463  15.109  0.00  0.00    +0.000 C 
ATOM     17  H   UNL     1       2.971   4.714  16.598  0.00  0.00    +0.000 HD
ENDROOT
BRANCH   1  18
ATOM     18  C   UNL     1       7.589   4.510  14.112  0.00  0.00    +0.000 C 
BRANCH  18  19
ATOM     19  C   UNL     1       6.864   4.616  12.745  0.00  0.00    +0.000 C 
BRANCH  19  25
ATOM     20  O   UNL     1       4.181   3.527  12.136  0.00  0.00    +0.000 OA
ATOM     21  C   UNL     1       5.217   2.954  11.838  0.00  0.00    +0.000 C 
ATOM     22  O   UNL     1       5.255   1.777  11.139  0.00  0.00    +0.000 OA
ATOM     23  C   UNL     1       6.607   1.305  11.143  0.00  0.00    +0.000 C 
ATOM     24  C   UNL     1       7.434   2.525  11.450  0.00  0.00    +0.000 C 
ATOM     25  N   UNL     1       6.497   3.345  12.144  0.00  0.00    +0.000 N 
ENDBRANCH  19  25
ENDBRANCH  18  19
ENDBRANCH   1  18
TORSDOF 3
ENDMDL
MODEL 7
REMARK VINA RESULT:      -7.8      1.038      1.380
REMARK  Name = 
REMARK  3 active torsions:
REMARK  status: ('A' for Active; 'I' for Inactive)
REMARK    1  A    between atoms: N_6  and  C_7
REMARK    2  A    between atoms: C_7  and  C_8
REMARK    3  A    between atoms: C_8  and  N_9
REMARK                            x       y       z     vdW  Elec       q    Type
REMARK                         _______ _______ _______ _____ _____    ______ ____
ROOT
ATOM      1  N   UNL     1       7.508   7.133  17.263  0.00  0.00    +0.000 NA
ATOM      2  C   UNL     1       6.315   7.019  16.392  0.00  0.00    +0.000 C 
ATOM      3  C   UNL     1       6.212   5.743  15.545  0.00  0.00    +0.000 C 
ATOM      4  C   UNL     1       6.249   4.384  16.248  0.00  0.00    +0.000 C 
ATOM      5  N   UNL     1       6.015   4.483  17.679  0.00  0.00    +0.000 N 
ATOM      6  C   UNL     1       4.827   4.105  18.206  0.00  0.00    +0.000 A 
ATOM      7  N   UNL     1       3.847   3.447  17.625  0.00  0.00    +0.000 NA
ATOM      8  C   UNL     1       2.864   3.309  18.576  0.00  0.00    +0.000 A 
ATOM      9  C   UNL     1       1.619   2.668  18.504  0.00  0.00    +0.000 A 
ATOM     10  C   UNL     1       0.778   2.710  19.625  0.00  0.00    +0.000 A 
ATOM     11  C   UNL     1       1.169   3.369  20.794  0.00  0.00    +0.000 A 
ATOM     12  C   UNL     1       2.416   3.994  20.891  0.00  0.00    +0.000 A 
ATOM     13  C   UNL     1       3.232   3.935  19.760  0.00  0.00    +0.000 A 
ATOM     14  N   UNL     1       4.486   4.414  19.500  0.00  0.00    +0.000 N 
ATOM     15  C   UNL     1       7.162   4.905  18.474  0.00  0.00    +0.000 C 
ATOM     16  C   UNL     1       7.264   6.435  18.551  0.00  0.00    +0.000 C 
ATOM     17  H   UNL     1       5.058   4.933  20.144  0.00  0.00    +0.000 HD
ENDROOT
BRANCH   1  18
ATOM     18  C   UNL     1       7.791   8.568  17.524  0.00  0.00    +0.000 C 
BRANCH  18  19
ATOM     19  C   UNL     1       8.684   8.897  18.749  0.00  0.00    +0.000 C 
BRANCH  19  25
ATOM     20  O   UNL     1       9.156  10.547  21.160  0.00  0.00    +0.000 OA
ATOM     21  C   UNL     1       9.357  10.950  20.025  0.00  0.00    +0.000 C 
ATOM     22  O   UNL     1       9.877  12.185  19.744  0.00  0.00    +0.000 OA
ATOM     23  C   UNL     1       9.791  12.389  18.330  0.00  0.00    +0.000 C 
ATOM     24  C   UNL     1       9.656  11.004  17.754  0.00  0.00    +0.000 C 
ATOM     25  N   UNL     1       9.098  10.286  18.852  0.00  0.00    +0.000 N 
ENDBRANCH  19  25
ENDBRANCH  18  19
ENDBRANCH   1  18
TORSDOF 3
ENDMDL
MODEL 8
REMARK VINA RESULT:      -7.7      6.367      7.732
REMARK  Name = 
REMARK  3 active torsions:
REMARK  status: ('A' for Active; 'I' for Inactive)
REMARK    1  A    between atoms: N_6  and  C_7
REMARK    2  A    between atoms: C_7  and  C_8
REMARK    3  A    between atoms: C_8  and  N_9
REMARK                            x       y       z     vdW  Elec       q    Type
REMARK                         _______ _______ _______ _____ _____    ______ ____
ROOT
ATOM      1  N   UNL     1       2.483   7.423  19.496  0.00  0.00    +0.000 NA
ATOM      2  C   UNL     1       1.303   7.472  20.391  0.00  0.00    +0.000 C 
ATOM      3  C   UNL     1       1.145   8.743  21.237  0.00  0.00    +0.000 C 
ATOM      4  C   UNL     1       1.091  10.099  20.531  0.00  0.00    +0.000 C 
ATOM      5  N   UNL     1       0.834   9.983  19.105  0.00  0.00    +0.000 N 
ATOM      6  C   UNL     1      -0.384  10.292  18.602  0.00  0.00    +0.000 A 
ATOM      7  N   UNL     1      -1.388  10.895  19.201  0.00  0.00    +0.000 NA
ATOM      8  C   UNL     1      -2.395  10.974  18.270  0.00  0.00    +0.000 A 
ATOM      9  C   UNL     1      -3.673  11.544  18.366  0.00  0.00    +0.000 A 
ATOM     10  C   UNL     1      -4.533  11.451  17.263  0.00  0.00    +0.000 A 
ATOM     11  C   UNL     1      -4.129  10.812  16.087  0.00  0.00    +0.000 A 
ATOM     12  C   UNL     1      -2.851  10.257  15.966  0.00  0.00    +0.000 A 
ATOM     13  C   UNL     1      -2.017  10.367  17.080  0.00  0.00    +0.000 A 
ATOM     14  N   UNL     1      -0.733   9.960  17.315  0.00  0.00    +0.000 N 
ATOM     15  C   UNL     1       1.987   9.624  18.288  0.00  0.00    +0.000 C 
ATOM     16  C   UNL     1       2.174   8.102  18.211  0.00  0.00    +0.000 C 
ATOM     17  H   UNL     1      -0.145   9.472  16.661  0.00  0.00    +0.000 HD
ENDROOT
BRANCH   1  18
ATOM     18  C   UNL     1       2.841   6.006  19.232  0.00  0.00    +0.000 C 
BRANCH  18  19
ATOM     19  C   UNL     1       3.497   5.690  17.862  0.00  0.00    +0.000 C 
BRANCH  19  25
ATOM     20  O   UNL     1       5.371   6.838  15.881  0.00  0.00    +0.000 OA
ATOM     21  C   UNL     1       5.738   6.319  16.924  0.00  0.00    +0.000 C 
ATOM     22  O   UNL     1       7.048   6.263  17.319  0.00  0.00    +0.000 OA
ATOM     23  C   UNL     1       7.124   5.423  18.475  0.00  0.00    +0.000 C 
ATOM     24  C   UNL     1       5.722   5.403  19.024  0.00  0.00    +0.000 C 
ATOM     25  N   UNL     1       4.950   5.698  17.861  0.00  0.00    +0.000 N 
ENDBRANCH  19  25
ENDBRANCH  18  19
ENDBRANCH   1  18
TORSDOF 3
ENDMDL
MODEL 9
REMARK VINA RESULT:      -7.6      7.197      9.219
REMARK  Name = 
REMARK  3 active torsions:
REMARK  status: ('A' for Active; 'I' for Inactive)
REMARK    1  A    between atoms: N_6  and  C_7
REMARK    2  A    between atoms: C_7  and  C_8
REMARK    3  A    between atoms: C_8  and  N_9
REMARK                            x       y       z     vdW  Elec       q    Type
REMARK                         _______ _______ _______ _____ _____    ______ ____
ROOT
ATOM      1  N   UNL     1       2.483   7.762  19.574  0.00  0.00    +0.000 NA
ATOM      2  C   UNL     1       1.284   7.750  20.446  0.00  0.00    +0.000 C 
ATOM      3  C   UNL     1       1.043   9.012  21.285  0.00  0.00    +0.000 C 
ATOM      4  C   UNL     1       0.932  10.363  20.576  0.00  0.00    +0.000 C 
ATOM      5  N   UNL     1       0.710  10.232  19.146  0.00  0.00    +0.000 N 
ATOM      6  C   UNL     1      -0.512  10.476  18.617  0.00  0.00    +0.000 A 
ATOM      7  N   UNL     1      -1.557  11.026  19.195  0.00  0.00    +0.000 NA
ATOM      8  C   UNL     1      -2.549  11.051  18.244  0.00  0.00    +0.000 A 
ATOM      9  C   UNL     1      -3.856  11.553  18.312  0.00  0.00    +0.000 A 
ATOM     10  C   UNL     1      -4.688  11.415  17.193  0.00  0.00    +0.000 A 
ATOM     11  C   UNL     1      -4.228  10.796  16.027  0.00  0.00    +0.000 A 
ATOM     12  C   UNL     1      -2.920  10.309  15.933  0.00  0.00    +0.000 A 
ATOM     13  C   UNL     1      -2.116  10.463  17.063  0.00  0.00    +0.000 A 
ATOM     14  N   UNL     1      -0.817  10.125  17.325  0.00  0.00    +0.000 N 
ATOM     15  C   UNL     1       1.897   9.933  18.352  0.00  0.00    +0.000 C 
ATOM     16  C   UNL     1       2.165   8.423  18.282  0.00  0.00    +0.000 C 
ATOM     17  H   UNL     1      -0.191   9.668  16.683  0.00  0.00    +0.000 HD
ENDROOT
BRANCH   1  18
ATOM     18  C   UNL     1       2.921   6.365  19.321  0.00  0.00    +0.000 C 
BRANCH  18  19
ATOM     19  C   UNL     1       1.836   5.365  18.841  0.00  0.00    +0.000 C 
BRANCH  19  25
ATOM     20  O   UNL     1       1.168   2.574  18.122  0.00  0.00    +0.000 OA
ATOM     21  C   UNL     1       1.398   2.932  19.267  0.00  0.00    +0.000 C 
ATOM     22  O   UNL     1       1.430   2.073  20.333  0.00  0.00    +0.000 OA
ATOM     23  C   UNL     1       1.532   2.858  21.527  0.00  0.00    +0.000 C 
ATOM     24  C   UNL     1       2.062   4.188  21.064  0.00  0.00    +0.000 C 
ATOM     25  N   UNL     1       1.642   4.211  19.701  0.00  0.00    +0.000 N 
ENDBRANCH  19  25
ENDBRANCH  18  19
ENDBRANCH   1  18
TORSDOF 3
ENDMDL
