MODEL 1
REMARK VINA RESULT:      -7.2      0.000      0.000
REMARK  Name = 
REMARK  1 active torsions:
REMARK  status: ('A' for Active; 'I' for Inactive)
REMARK    1  A    between atoms: C_6  and  C_7
REMARK                            x       y       z     vdW  Elec       q    Type
REMARK                         _______ _______ _______ _____ _____    ______ ____
ROOT
ATOM      1 CL   UNL     1       8.327   5.187  13.009  0.00  0.00    +0.000 Cl
ATOM      2  C   UNL     1       7.100   5.017  14.213  0.00  0.00    +0.000 A 
ATOM      3  C   UNL     1       7.324   5.599  15.458  0.00  0.00    +0.000 A 
ATOM      4  C   UNL     1       6.379   5.467  16.489  0.00  0.00    +0.000 A 
ATOM      5 CL   UNL     1       6.852   6.133  18.018  0.00  0.00    +0.000 Cl
ATOM      6  C   UNL     1       5.149   4.799  16.285  0.00  0.00    +0.000 A 
ATOM      7  C   UNL     1       4.945   4.252  14.993  0.00  0.00    +0.000 A 
ATOM      8  C   UNL     1       5.916   4.322  13.986  0.00  0.00    +0.000 A 
ATOM      9 CL   UNL     1       5.589   3.511  12.496  0.00  0.00    +0.000 Cl
ENDROOT
BRANCH   6  10
ATOM     10  C   UNL     1       4.071   4.675  17.318  0.00  0.00    +0.000 A 
ATOM     11  C   UNL     1       3.677   3.393  17.770  0.00  0.00    +0.000 A 
ATOM     12  C   UNL     1       2.666   3.206  18.723  0.00  0.00    +0.000 A 
ATOM     13 CL   UNL     1       2.207   1.587  19.105  0.00  0.00    +0.000 Cl
ATOM     14  C   UNL     1       2.059   4.311  19.316  0.00  0.00    +0.000 A 
ATOM     15 CL   UNL     1       0.844   4.169  20.533  0.00  0.00    +0.000 Cl
ATOM     16  C   UNL     1       2.439   5.596  18.920  0.00  0.00    +0.000 A 
ATOM     17  C   UNL     1       3.402   5.777  17.915  0.00  0.00    +0.000 A 
ATOM     18 CL   UNL     1       3.679   7.417  17.431  0.00  0.00    +0.000 Cl
ENDBRANCH   6  10
TORSDOF 1
ENDMDL
MODEL 2
REMARK VINA RESULT:      -7.1      0.145      6.058
REMARK  Name = 
REMARK  1 active torsions:
REMARK  status: ('A' for Active; 'I' for Inactive)
REMARK    1  A    between atoms: C_6  and  C_7
REMARK                            x       y       z     vdW  Elec       q    Type
REMARK                         _______ _______ _______ _____ _____    ______ ____
ROOT
ATOM      1 CL   UNL     1       1.019   4.027  20.680  0.00  0.00    +0.000 Cl
ATOM      2  C   UNL     1       2.206   4.199  19.436  0.00  0.00    +0.000 A 
ATOM      3  C   UNL     1       2.542   5.488  19.031  0.00  0.00    +0.000 A 
ATOM      4  C   UNL     1       3.475   5.693  18.001  0.00  0.00    +0.000 A 
ATOM      5 CL   UNL     1       3.696   7.343  17.517  0.00  0.00    +0.000 Cl
ATOM      6  C   UNL     1       4.149   4.611  17.386  0.00  0.00    +0.000 A 
ATOM      7  C   UNL     1       3.803   3.318  17.853  0.00  0.00    +0.000 A 
ATOM      8  C   UNL     1       2.822   3.109  18.830  0.00  0.00    +0.000 A 
ATOM      9 CL   UNL     1       2.413   1.477  19.222  0.00  0.00    +0.000 Cl
ENDROOT
BRANCH   6  10
ATOM     10  C   UNL     1       5.199   4.759  16.328  0.00  0.00    +0.000 A 
ATOM     11  C   UNL     1       4.974   4.224  15.037  0.00  0.00    +0.000 A 
ATOM     12  C   UNL     1       5.920   4.314  14.007  0.00  0.00    +0.000 A 
ATOM     13 CL   UNL     1       5.565   3.524  12.514  0.00  0.00    +0.000 Cl
ATOM     14  C   UNL     1       7.106   5.015  14.214  0.00  0.00    +0.000 A 
ATOM     15 CL   UNL     1       8.300   5.217  12.984  0.00  0.00    +0.000 Cl
ATOM     16  C   UNL     1       7.356   5.584  15.465  0.00  0.00    +0.000 A 
ATOM     17  C   UNL     1       6.436   5.431  16.515  0.00  0.00    +0.000 A 
ATOM     18 CL   UNL     1       6.934   6.072  18.045  0.00  0.00    +0.000 Cl
ENDBRANCH   6  10
TORSDOF 1
ENDMDL
MODEL 3
REMARK VINA RESULT:      -6.9      2.711      4.726
REMARK  Name = 
REMARK  1 active torsions:
REMARK  status: ('A' for Active; 'I' for Inactive)
REMARK    1  A    between atoms: C_6  and  C_7
REMARK                            x       y       z     vdW  Elec       q    Type
REMARK                         _______ _______ _______ _____ _____    ______ ____
ROOT
ATOM      1 CL   UNL     1       6.185   3.413  15.661  0.00  0.00    +0.000 Cl
ATOM      2  C   UNL     1       5.178   4.458  16.598  0.00  0.00    +0.000 A 
ATOM      3  C   UNL     1       3.867   4.055  16.840  0.00  0.00    +0.000 A 
ATOM      4  C   UNL     1       2.990   4.877  17.566  0.00  0.00    +0.000 A 
ATOM      5 CL   UNL     1       1.357   4.304  17.675  0.00  0.00    +0.000 Cl
ATOM      6  C   UNL     1       3.417   6.102  18.129  0.00  0.00    +0.000 A 
ATOM      7  C   UNL     1       4.769   6.458  17.889  0.00  0.00    +0.000 A 
ATOM      8  C   UNL     1       5.624   5.674  17.106  0.00  0.00    +0.000 A 
ATOM      9 CL   UNL     1       7.212   6.281  16.795  0.00  0.00    +0.000 Cl
ENDROOT
BRANCH   6  10
ATOM     10  C   UNL     1       2.555   6.997  18.965  0.00  0.00    +0.000 A 
ATOM     11  C   UNL     1       2.206   8.283  18.488  0.00  0.00    +0.000 A 
ATOM     12  C   UNL     1       1.416   9.174  19.227  0.00  0.00    +0.000 A 
ATOM     13 CL   UNL     1       1.157  10.752  18.576  0.00  0.00    +0.000 Cl
ATOM     14  C   UNL     1       0.881   8.776  20.449  0.00  0.00    +0.000 A 
ATOM     15 CL   UNL     1      -0.143   9.793  21.397  0.00  0.00    +0.000 Cl
ATOM     16  C   UNL     1       1.175   7.504  20.945  0.00  0.00    +0.000 A 
ATOM     17  C   UNL     1       2.025   6.641  20.234  0.00  0.00    +0.000 A 
ATOM     18 CL   UNL     1       2.410   5.150  21.027  0.00  0.00    +0.000 Cl
ENDBRANCH   6  10
TORSDOF 1
ENDMDL
MODEL 4
REMARK VINA RESULT:      -6.8      2.723      6.625
REMARK  Name = 
REMARK  1 active torsions:
REMARK  status: ('A' for Active; 'I' for Inactive)
REMARK    1  A    between atoms: C_6  and  C_7
REMARK                            x       y       z     vdW  Elec       q    Type
REMARK                         _______ _______ _______ _____ _____    ______ ____
ROOT
ATOM      1 CL   UNL     1      -0.052   9.938  21.167  0.00  0.00    +0.000 Cl
ATOM      2  C   UNL     1       0.961   8.885  20.245  0.00  0.00    +0.000 A 
ATOM      3  C   UNL     1       1.238   7.625  20.768  0.00  0.00    +0.000 A 
ATOM      4  C   UNL     1       2.081   6.736  20.082  0.00  0.00    +0.000 A 
ATOM      5 CL   UNL     1       2.438   5.258  20.916  0.00  0.00    +0.000 Cl
ATOM      6  C   UNL     1       2.625   7.059  18.816  0.00  0.00    +0.000 A 
ATOM      7  C   UNL     1       2.290   8.337  18.303  0.00  0.00    +0.000 A 
ATOM      8  C   UNL     1       1.506   9.251  19.019  0.00  0.00    +0.000 A 
ATOM      9 CL   UNL     1       1.271  10.819  18.331  0.00  0.00    +0.000 Cl
ENDROOT
BRANCH   6  10
ATOM     10  C   UNL     1       3.480   6.137  18.002  0.00  0.00    +0.000 A 
ATOM     11  C   UNL     1       4.821   6.491  17.717  0.00  0.00    +0.000 A 
ATOM     12  C   UNL     1       5.669   5.682  16.948  0.00  0.00    +0.000 A 
ATOM     13 CL   UNL     1       7.245   6.283  16.584  0.00  0.00    +0.000 Cl
ATOM     14  C   UNL     1       5.222   4.442  16.496  0.00  0.00    +0.000 A 
ATOM     15 CL   UNL     1       6.218   3.364  15.589  0.00  0.00    +0.000 Cl
ATOM     16  C   UNL     1       3.914   4.040  16.779  0.00  0.00    +0.000 A 
ATOM     17  C   UNL     1       3.046   4.885  17.490  0.00  0.00    +0.000 A 
ATOM     18 CL   UNL     1       1.418   4.318  17.653  0.00  0.00    +0.000 Cl
ENDBRANCH   6  10
TORSDOF 1
ENDMDL
MODEL 5
REMARK VINA RESULT:      -6.6      1.054      1.054
REMARK  Name = 
REMARK  1 active torsions:
REMARK  status: ('A' for Active; 'I' for Inactive)
REMARK    1  A    between atoms: C_6  and  C_7
REMARK                            x       y       z     vdW  Elec       q    Type
REMARK                         _______ _______ _______ _____ _____    ______ ____
ROOT
ATOM      1 CL   UNL     1       8.116   5.329  12.918  0.00  0.00    +0.000 Cl
ATOM      2  C   UNL     1       7.123   5.103  14.314  0.00  0.00    +0.000 A 
ATOM      3  C   UNL     1       7.562   5.641  15.520  0.00  0.00    +0.000 A 
ATOM      4  C   UNL     1       6.816   5.461  16.696  0.00  0.00    +0.000 A 
ATOM      5 CL   UNL     1       7.550   6.074  18.142  0.00  0.00    +0.000 Cl
ATOM      6  C   UNL     1       5.571   4.789  16.689  0.00  0.00    +0.000 A 
ATOM      7  C   UNL     1       5.143   4.287  15.433  0.00  0.00    +0.000 A 
ATOM      8  C   UNL     1       5.920   4.404  14.274  0.00  0.00    +0.000 A 
ATOM      9 CL   UNL     1       5.336   3.645  12.835  0.00  0.00    +0.000 Cl
ENDROOT
BRANCH   6  10
ATOM     10  C   UNL     1       4.694   4.615  17.891  0.00  0.00    +0.000 A 
ATOM     11  C   UNL     1       4.815   3.449  18.685  0.00  0.00    +0.000 A 
ATOM     12  C   UNL     1       4.015   3.219  19.813  0.00  0.00    +0.000 A 
ATOM     13 CL   UNL     1       4.189   1.707  20.629  0.00  0.00    +0.000 Cl
ATOM     14  C   UNL     1       3.110   4.191  20.232  0.00  0.00    +0.000 A 
ATOM     15 CL   UNL     1       2.126   4.007  21.638  0.00  0.00    +0.000 Cl
ATOM     16  C   UNL     1       2.979   5.369  19.494  0.00  0.00    +0.000 A 
ATOM     17  C   UNL     1       3.732   5.565  18.324  0.00  0.00    +0.000 A 
ATOM     18 CL   UNL     1       3.373   7.009  17.438  0.00  0.00    +0.000 Cl
ENDBRANCH   6  10
TORSDOF 1
ENDMDL
MODEL 6
REMARK VINA RESULT:      -6.4      1.054      6.291
REMARK  Name = 
REMARK  1 active torsions:
REMARK  status: ('A' for Active; 'I' for Inactive)
REMARK    1  A    between atoms: C_6  and  C_7
REMARK                            x       y       z     vdW  Elec       q    Type
REMARK                         _______ _______ _______ _____ _____    ______ ____
ROOT
ATOM      1 CL   UNL     1       1.079   3.822  20.888  0.00  0.00    +0.000 Cl
ATOM      2  C   UNL     1       2.241   4.038  19.627  0.00  0.00    +0.000 A 
ATOM      3  C   UNL     1       2.743   2.900  19.001  0.00  0.00    +0.000 A 
ATOM      4  C   UNL     1       3.714   3.008  17.993  0.00  0.00    +0.000 A 
ATOM      5 CL   UNL     1       4.338   1.504  17.399  0.00  0.00    +0.000 Cl
ATOM      6  C   UNL     1       4.169   4.267  17.535  0.00  0.00    +0.000 A 
ATOM      7  C   UNL     1       3.606   5.401  18.173  0.00  0.00    +0.000 A 
ATOM      8  C   UNL     1       2.690   5.292  19.227  0.00  0.00    +0.000 A 
ATOM      9 CL   UNL     1       2.173   6.751  19.996  0.00  0.00    +0.000 Cl
ENDROOT
BRANCH   6  10
ATOM     10  C   UNL     1       5.154   4.458  16.423  0.00  0.00    +0.000 A 
ATOM     11  C   UNL     1       4.797   4.104  15.099  0.00  0.00    +0.000 A 
ATOM     12  C   UNL     1       5.676   4.243  14.017  0.00  0.00    +0.000 A 
ATOM     13 CL   UNL     1       5.153   3.671  12.475  0.00  0.00    +0.000 Cl
ATOM     14  C   UNL     1       6.930   4.817  14.212  0.00  0.00    +0.000 A 
ATOM     15 CL   UNL     1       8.052   5.071  12.925  0.00  0.00    +0.000 Cl
ATOM     16  C   UNL     1       7.313   5.207  15.497  0.00  0.00    +0.000 A 
ATOM     17  C   UNL     1       6.455   5.001  16.590  0.00  0.00    +0.000 A 
ATOM     18 CL   UNL     1       7.110   5.409  18.141  0.00  0.00    +0.000 Cl
ENDBRANCH   6  10
TORSDOF 1
ENDMDL
MODEL 7
REMARK VINA RESULT:      -6.4      1.029      2.238
REMARK  Name = 
REMARK  1 active torsions:
REMARK  status: ('A' for Active; 'I' for Inactive)
REMARK    1  A    between atoms: C_6  and  C_7
REMARK                            x       y       z     vdW  Elec       q    Type
REMARK                         _______ _______ _______ _____ _____    ______ ____
ROOT
ATOM      1 CL   UNL     1       7.935   4.933  12.770  0.00  0.00    +0.000 Cl
ATOM      2  C   UNL     1       6.832   4.739  14.085  0.00  0.00    +0.000 A 
ATOM      3  C   UNL     1       7.255   5.127  15.353  0.00  0.00    +0.000 A 
ATOM      4  C   UNL     1       6.417   4.962  16.468  0.00  0.00    +0.000 A 
ATOM      5 CL   UNL     1       7.127   5.369  17.997  0.00  0.00    +0.000 Cl
ATOM      6  C   UNL     1       5.101   4.461  16.338  0.00  0.00    +0.000 A 
ATOM      7  C   UNL     1       4.696   4.111  15.024  0.00  0.00    +0.000 A 
ATOM      8  C   UNL     1       5.556   4.208  13.923  0.00  0.00    +0.000 A 
ATOM      9 CL   UNL     1       4.976   3.637  12.398  0.00  0.00    +0.000 Cl
ENDROOT
BRANCH   6  10
ATOM     10  C   UNL     1       4.132   4.318  17.472  0.00  0.00    +0.000 A 
ATOM     11  C   UNL     1       3.589   5.475  18.080  0.00  0.00    +0.000 A 
ATOM     12  C   UNL     1       2.690   5.411  19.154  0.00  0.00    +0.000 A 
ATOM     13 CL   UNL     1       2.189   6.897  19.874  0.00  0.00    +0.000 Cl
ATOM     14  C   UNL     1       2.243   4.174  19.612  0.00  0.00    +0.000 A 
ATOM     15 CL   UNL     1       1.100   4.009  20.894  0.00  0.00    +0.000 Cl
ATOM     16  C   UNL     1       2.732   3.006  19.020  0.00  0.00    +0.000 A 
ATOM     17  C   UNL     1       3.686   3.074  17.992  0.00  0.00    +0.000 A 
ATOM     18 CL   UNL     1       4.302   1.551  17.443  0.00  0.00    +0.000 Cl
ENDBRANCH   6  10
TORSDOF 1
ENDMDL
MODEL 8
REMARK VINA RESULT:      -6.4      1.340      6.210
REMARK  Name = 
REMARK  1 active torsions:
REMARK  status: ('A' for Active; 'I' for Inactive)
REMARK    1  A    between atoms: C_6  and  C_7
REMARK                            x       y       z     vdW  Elec       q    Type
REMARK                         _______ _______ _______ _____ _____    ______ ____
ROOT
ATOM      1 CL   UNL     1       2.001   3.131  21.839  0.00  0.00    +0.000 Cl
ATOM      2  C   UNL     1       2.985   3.481  20.463  0.00  0.00    +0.000 A 
ATOM      3  C   UNL     1       2.638   4.576  19.676  0.00  0.00    +0.000 A 
ATOM      4  C   UNL     1       3.378   4.892  18.525  0.00  0.00    +0.000 A 
ATOM      5 CL   UNL     1       2.752   6.201  17.576  0.00  0.00    +0.000 Cl
ATOM      6  C   UNL     1       4.531   4.157  18.160  0.00  0.00    +0.000 A 
ATOM      7  C   UNL     1       4.870   3.072  19.008  0.00  0.00    +0.000 A 
ATOM      8  C   UNL     1       4.092   2.713  20.115  0.00  0.00    +0.000 A 
ATOM      9 CL   UNL     1       4.551   1.298  20.995  0.00  0.00    +0.000 Cl
ENDROOT
BRANCH   6  10
ATOM     10  C   UNL     1       5.402   4.475  16.983  0.00  0.00    +0.000 A 
ATOM     11  C   UNL     1       5.029   4.029  15.693  0.00  0.00    +0.000 A 
ATOM     12  C   UNL     1       5.806   4.280  14.554  0.00  0.00    +0.000 A 
ATOM     13 CL   UNL     1       5.293   3.586  13.059  0.00  0.00    +0.000 Cl
ATOM     14  C   UNL     1       6.957   5.058  14.657  0.00  0.00    +0.000 A 
ATOM     15 CL   UNL     1       7.941   5.456  13.296  0.00  0.00    +0.000 Cl
ATOM     16  C   UNL     1       7.346   5.543  15.908  0.00  0.00    +0.000 A 
ATOM     17  C   UNL     1       6.602   5.230  17.057  0.00  0.00    +0.000 A 
ATOM     18 CL   UNL     1       7.272   5.785  18.555  0.00  0.00    +0.000 Cl
ENDBRANCH   6  10
TORSDOF 1
ENDMDL
MODEL 9
REMARK VINA RESULT:      -6.1      1.620      2.647
REMARK  Name = 
REMARK  1 active torsions:
REMARK  status: ('A' for Active; 'I' for Inactive)
REMARK    1  A    between atoms: C_6  and  C_7
REMARK                            x       y       z     vdW  Elec       q    Type
REMARK                         _______ _______ _______ _____ _____    ______ ____
ROOT
ATOM      1 CL   UNL     1       8.086   4.631  12.959  0.00  0.00    +0.000 Cl
ATOM      2  C   UNL     1       7.001   4.967  14.261  0.00  0.00    +0.000 A 
ATOM      3  C   UNL     1       7.499   5.658  15.363  0.00  0.00    +0.000 A 
ATOM      4  C   UNL     1       6.676   5.931  16.467  0.00  0.00    +0.000 A 
ATOM      5 CL   UNL     1       7.467   6.683  17.814  0.00  0.00    +0.000 Cl
ATOM      6  C   UNL     1       5.306   5.575  16.476  0.00  0.00    +0.000 A 
ATOM      7  C   UNL     1       4.830   4.905  15.321  0.00  0.00    +0.000 A 
ATOM      8  C   UNL     1       5.667   4.569  14.250  0.00  0.00    +0.000 A 
ATOM      9 CL   UNL     1       4.987   3.648  12.956  0.00  0.00    +0.000 Cl
ENDROOT
BRANCH   6  10
ATOM     10  C   UNL     1       4.357   5.890  17.591  0.00  0.00    +0.000 A 
ATOM     11  C   UNL     1       3.559   7.059  17.525  0.00  0.00    +0.000 A 
ATOM     12  C   UNL     1       2.663   7.419  18.540  0.00  0.00    +0.000 A 
ATOM     13 CL   UNL     1       1.832   8.924  18.384  0.00  0.00    +0.000 Cl
ATOM     14  C   UNL     1       2.477   6.576  19.633  0.00  0.00    +0.000 A 
ATOM     15 CL   UNL     1       1.357   6.921  20.900  0.00  0.00    +0.000 Cl
ATOM     16  C   UNL     1       3.223   5.398  19.725  0.00  0.00    +0.000 A 
ATOM     17  C   UNL     1       4.171   5.077  18.740  0.00  0.00    +0.000 A 
ATOM     18 CL   UNL     1       5.117   3.658  19.048  0.00  0.00    +0.000 Cl
ENDBRANCH   6  10
TORSDOF 1
ENDMDL
