MODEL 1
REMARK VINA RESULT:      -6.6      0.000      0.000
REMARK  Name = 
REMARK  11 active torsions:
REMARK  status: ('A' for Active; 'I' for Inactive)
REMARK    1  A    between atoms: C_1  and  C_2
REMARK    2  A    between atoms: C_2  and  C_3
REMARK    3  A    between atoms: C_3  and  O_5
REMARK    4  A    between atoms: O_5  and  C_6
REMARK    5  A    between atoms: C_6  and  O_7
REMARK    6  A    between atoms: O_7  and  C_8
REMARK    7  A    between atoms: C_11  and  C_12
REMARK    8  A    between atoms: C_16  and  C_17
REMARK    9  A    between atoms: C_17  and  N_18
REMARK   10  A    between atoms: N_18  and  C_19
REMARK   11  A    between atoms: N_18  and  C_20
REMARK                            x       y       z     vdW  Elec       q    Type
REMARK                         _______ _______ _______ _____ _____    ______ ____
ROOT
ATOM      1  C   UNL     1       4.052   4.799  17.238  0.00  0.00    +0.000 A 
ATOM      2  C   UNL     1       2.727   4.456  17.525  0.00  0.00    +0.000 A 
ATOM      3  C   UNL     1       2.050   5.049  18.595  0.00  0.00    +0.000 A 
ATOM      4  C   UNL     1       2.705   5.984  19.407  0.00  0.00    +0.000 A 
ATOM      5  C   UNL     1       4.038   6.328  19.136  0.00  0.00    +0.000 A 
ATOM      6  C   UNL     1       4.707   5.751  18.055  0.00  0.00    +0.000 A 
ENDROOT
BRANCH   4   7
ATOM      7  C   UNL     1       2.001   6.563  20.568  0.00  0.00    +0.000 C 
ATOM      8  C   UNL     1       1.438   7.782  20.505  0.00  0.00    +0.000 C 
ATOM      9  C   UNL     1       0.767   8.494  21.646  0.00  0.00    +0.000 C 
ATOM     10  C   UNL     1       0.069   9.675  20.936  0.00  0.00    +0.000 C 
ATOM     11  C   UNL     1       1.008  10.043  19.782  0.00  0.00    +0.000 C 
ATOM     12  C   UNL     1       1.443   8.687  19.354  0.00  0.00    +0.000 C 
ATOM     13  O   UNL     1       1.827   8.401  18.229  0.00  0.00    +0.000 OA
BRANCH  11  14
ATOM     14  C   UNL     1       0.391  10.843  18.619  0.00  0.00    +0.000 C 
BRANCH  14  15
ATOM     15  N   UNL     1      -1.086  10.815  18.566  0.00  0.00    +0.000 NA
ATOM     16  C   UNL     1      -1.669  12.161  18.420  0.00  0.00    +0.000 C 
ATOM     17  C   UNL     1      -1.493   9.986  17.417  0.00  0.00    +0.000 C 
ENDBRANCH  14  15
ENDBRANCH  11  14
ENDBRANCH   4   7
BRANCH   1  18
ATOM     18  O   UNL     1       4.657   4.198  16.184  0.00  0.00    +0.000 OA
BRANCH  18  19
ATOM     19  C   UNL     1       6.006   3.912  16.081  0.00  0.00    +0.000 C 
BRANCH  19  20
ATOM     20  O   UNL     1       6.296   3.526  14.785  0.00  0.00    +0.000 OA
BRANCH  20  21
ATOM     21  C   UNL     1       6.709   4.396  13.823  0.00  0.00    +0.000 C 
ATOM     22  O   UNL     1       7.048   5.536  14.116  0.00  0.00    +0.000 OA
BRANCH  21  24
ATOM     23  C   UNL     1       5.525   3.130  12.028  0.00  0.00    +0.000 C 
ATOM     24  C   UNL     1       6.748   3.967  12.385  0.00  0.00    +0.000 C 
ENDBRANCH  21  24
ENDBRANCH  20  21
ENDBRANCH  19  20
ENDBRANCH  18  19
ENDBRANCH   1  18
TORSDOF 8
ENDMDL
MODEL 2
REMARK VINA RESULT:      -6.5      1.706      2.710
REMARK  Name = 
REMARK  11 active torsions:
REMARK  status: ('A' for Active; 'I' for Inactive)
REMARK    1  A    between atoms: C_1  and  C_2
REMARK    2  A    between atoms: C_2  and  C_3
REMARK    3  A    between atoms: C_3  and  O_5
REMARK    4  A    between atoms: O_5  and  C_6
REMARK    5  A    between atoms: C_6  and  O_7
REMARK    6  A    between atoms: O_7  and  C_8
REMARK    7  A    between atoms: C_11  and  C_12
REMARK    8  A    between atoms: C_16  and  C_17
REMARK    9  A    between atoms: C_17  and  N_18
REMARK   10  A    between atoms: N_18  and  C_19
REMARK   11  A    between atoms: N_18  and  C_20
REMARK                            x       y       z     vdW  Elec       q    Type
REMARK                         _______ _______ _______ _____ _____    ______ ____
ROOT
ATOM      1  C   UNL     1       3.916   4.189  17.649  0.00  0.00    +0.000 A 
ATOM      2  C   UNL     1       4.534   4.797  18.745  0.00  0.00    +0.000 A 
ATOM      3  C   UNL     1       3.773   5.400  19.752  0.00  0.00    +0.000 A 
ATOM      4  C   UNL     1       2.376   5.417  19.660  0.00  0.00    +0.000 A 
ATOM      5  C   UNL     1       1.744   4.820  18.559  0.00  0.00    +0.000 A 
ATOM      6  C   UNL     1       2.503   4.200  17.564  0.00  0.00    +0.000 A 
ENDROOT
BRANCH   4   7
ATOM      7  C   UNL     1       1.584   6.104  20.698  0.00  0.00    +0.000 C 
ATOM      8  C   UNL     1       1.272   7.407  20.588  0.00  0.00    +0.000 C 
ATOM      9  C   UNL     1       0.540   8.220  21.618  0.00  0.00    +0.000 C 
ATOM     10  C   UNL     1       0.213   9.518  20.846  0.00  0.00    +0.000 C 
ATOM     11  C   UNL     1       1.401   9.716  19.900  0.00  0.00    +0.000 C 
ATOM     12  C   UNL     1       1.656   8.307  19.499  0.00  0.00    +0.000 C 
ATOM     13  O   UNL     1       2.185   7.966  18.450  0.00  0.00    +0.000 OA
BRANCH  11  14
ATOM     14  C   UNL     1       1.168  10.628  18.680  0.00  0.00    +0.000 C 
BRANCH  14  15
ATOM     15  N   UNL     1       1.299  12.075  18.959  0.00  0.00    +0.000 NA
ATOM     16  C   UNL     1       2.405  12.694  18.208  0.00  0.00    +0.000 C 
ATOM     17  C   UNL     1       0.034  12.735  18.587  0.00  0.00    +0.000 C 
ENDBRANCH  14  15
ENDBRANCH  11  14
ENDBRANCH   4   7
BRANCH   1  18
ATOM     18  O   UNL     1       4.702   3.613  16.706  0.00  0.00    +0.000 OA
BRANCH  18  19
ATOM     19  C   UNL     1       5.198   4.237  15.576  0.00  0.00    +0.000 C 
BRANCH  19  20
ATOM     20  O   UNL     1       5.782   5.439  15.934  0.00  0.00    +0.000 OA
BRANCH  20  21
ATOM     21  C   UNL     1       7.042   5.534  16.440  0.00  0.00    +0.000 C 
ATOM     22  O   UNL     1       7.861   4.643  16.248  0.00  0.00    +0.000 OA
BRANCH  21  24
ATOM     23  C   UNL     1       7.805   6.339  18.676  0.00  0.00    +0.000 C 
ATOM     24  C   UNL     1       7.442   6.733  17.249  0.00  0.00    +0.000 C 
ENDBRANCH  21  24
ENDBRANCH  20  21
ENDBRANCH  19  20
ENDBRANCH  18  19
ENDBRANCH   1  18
TORSDOF 8
ENDMDL
MODEL 3
REMARK VINA RESULT:      -6.4      1.358      1.986
REMARK  Name = 
REMARK  11 active torsions:
REMARK  status: ('A' for Active; 'I' for Inactive)
REMARK    1  A    between atoms: C_1  and  C_2
REMARK    2  A    between atoms: C_2  and  C_3
REMARK    3  A    between atoms: C_3  and  O_5
REMARK    4  A    between atoms: O_5  and  C_6
REMARK    5  A    between atoms: C_6  and  O_7
REMARK    6  A    between atoms: O_7  and  C_8
REMARK    7  A    between atoms: C_11  and  C_12
REMARK    8  A    between atoms: C_16  and  C_17
REMARK    9  A    between atoms: C_17  and  N_18
REMARK   10  A    between atoms: N_18  and  C_19
REMARK   11  A    between atoms: N_18  and  C_20
REMARK                            x       y       z     vdW  Elec       q    Type
REMARK                         _______ _______ _______ _____ _____    ______ ____
ROOT
ATOM      1  C   UNL     1       5.386   4.249  16.301  0.00  0.00    +0.000 A 
ATOM      2  C   UNL     1       4.069   3.828  16.506  0.00  0.00    +0.000 A 
ATOM      3  C   UNL     1       3.344   4.263  17.619  0.00  0.00    +0.000 A 
ATOM      4  C   UNL     1       3.941   5.116  18.556  0.00  0.00    +0.000 A 
ATOM      5  C   UNL     1       5.266   5.537  18.368  0.00  0.00    +0.000 A 
ATOM      6  C   UNL     1       5.984   5.118  17.245  0.00  0.00    +0.000 A 
ENDROOT
BRANCH   4   7
ATOM      7  C   UNL     1       3.187   5.524  19.757  0.00  0.00    +0.000 C 
ATOM      8  C   UNL     1       2.471   6.661  19.777  0.00  0.00    +0.000 C 
ATOM      9  C   UNL     1       1.731   7.207  20.965  0.00  0.00    +0.000 C 
ATOM     10  C   UNL     1       0.876   8.331  20.338  0.00  0.00    +0.000 C 
ATOM     11  C   UNL     1       1.742   8.888  19.203  0.00  0.00    +0.000 C 
ATOM     12  C   UNL     1       2.341   7.630  18.686  0.00  0.00    +0.000 C 
ATOM     13  O   UNL     1       2.741   7.467  17.542  0.00  0.00    +0.000 OA
BRANCH  11  14
ATOM     14  C   UNL     1       1.009   9.673  18.098  0.00  0.00    +0.000 C 
BRANCH  14  15
ATOM     15  N   UNL     1      -0.230  10.349  18.541  0.00  0.00    +0.000 NA
ATOM     16  C   UNL     1      -0.052  11.803  18.697  0.00  0.00    +0.000 C 
ATOM     17  C   UNL     1      -1.280  10.097  17.536  0.00  0.00    +0.000 C 
ENDBRANCH  14  15
ENDBRANCH  11  14
ENDBRANCH   4   7
BRANCH   1  18
ATOM     18  O   UNL     1       6.040   3.802  15.200  0.00  0.00    +0.000 OA
BRANCH  18  19
ATOM     19  C   UNL     1       6.005   4.386  13.947  0.00  0.00    +0.000 C 
BRANCH  19  20
ATOM     20  O   UNL     1       6.371   3.451  12.995  0.00  0.00    +0.000 OA
BRANCH  20  21
ATOM     21  C   UNL     1       5.508   2.960  12.063  0.00  0.00    +0.000 C 
ATOM     22  O   UNL     1       5.726   1.890  11.511  0.00  0.00    +0.000 OA
BRANCH  21  24
ATOM     23  C   UNL     1       3.484   3.023  10.603  0.00  0.00    +0.000 C 
ATOM     24  C   UNL     1       4.276   3.735  11.695  0.00  0.00    +0.000 C 
ENDBRANCH  21  24
ENDBRANCH  20  21
ENDBRANCH  19  20
ENDBRANCH  18  19
ENDBRANCH   1  18
TORSDOF 8
ENDMDL
MODEL 4
REMARK VINA RESULT:      -6.4      5.004      7.411
REMARK  Name = 
REMARK  11 active torsions:
REMARK  status: ('A' for Active; 'I' for Inactive)
REMARK    1  A    between atoms: C_1  and  C_2
REMARK    2  A    between atoms: C_2  and  C_3
REMARK    3  A    between atoms: C_3  and  O_5
REMARK    4  A    between atoms: O_5  and  C_6
REMARK    5  A    between atoms: C_6  and  O_7
REMARK    6  A    between atoms: O_7  and  C_8
REMARK    7  A    between atoms: C_11  and  C_12
REMARK    8  A    between atoms: C_16  and  C_17
REMARK    9  A    between atoms: C_17  and  N_18
REMARK   10  A    between atoms: N_18  and  C_19
REMARK   11  A    between atoms: N_18  and  C_20
REMARK                            x       y       z     vdW  Elec       q    Type
REMARK                         _______ _______ _______ _____ _____    ______ ____
ROOT
ATOM      1  C   UNL     1       8.170   7.791  18.413  0.00  0.00    +0.000 A 
ATOM      2  C   UNL     1       7.405   7.923  17.251  0.00  0.00    +0.000 A 
ATOM      3  C   UNL     1       6.700   6.833  16.730  0.00  0.00    +0.000 A 
ATOM      4  C   UNL     1       6.772   5.586  17.363  0.00  0.00    +0.000 A 
ATOM      5  C   UNL     1       7.546   5.437  18.524  0.00  0.00    +0.000 A 
ATOM      6  C   UNL     1       8.233   6.531  19.055  0.00  0.00    +0.000 A 
ENDROOT
BRANCH   4   7
ATOM      7  C   UNL     1       6.071   4.428  16.775  0.00  0.00    +0.000 C 
ATOM      8  C   UNL     1       4.835   4.085  17.174  0.00  0.00    +0.000 C 
ATOM      9  C   UNL     1       4.064   2.886  16.699  0.00  0.00    +0.000 C 
ATOM     10  C   UNL     1       2.646   3.162  17.248  0.00  0.00    +0.000 C 
ATOM     11  C   UNL     1       2.881   3.889  18.575  0.00  0.00    +0.000 C 
ATOM     12  C   UNL     1       4.035   4.750  18.205  0.00  0.00    +0.000 C 
ATOM     13  O   UNL     1       4.314   5.812  18.744  0.00  0.00    +0.000 OA
BRANCH  11  14
ATOM     14  C   UNL     1       1.702   4.714  19.128  0.00  0.00    +0.000 C 
BRANCH  14  15
ATOM     15  N   UNL     1       1.177   4.244  20.428  0.00  0.00    +0.000 NA
ATOM     16  C   UNL     1       0.799   2.820  20.400  0.00  0.00    +0.000 C 
ATOM     17  C   UNL     1       2.222   4.445  21.449  0.00  0.00    +0.000 C 
ENDBRANCH  14  15
ENDBRANCH  11  14
ENDBRANCH   4   7
BRANCH   1  18
ATOM     18  O   UNL     1       8.827   8.883  18.878  0.00  0.00    +0.000 OA
BRANCH  18  19
ATOM     19  C   UNL     1       8.690  10.173  18.398  0.00  0.00    +0.000 C 
BRANCH  19  20
ATOM     20  O   UNL     1       9.940  10.754  18.279  0.00  0.00    +0.000 OA
BRANCH  20  21
ATOM     21  C   UNL     1      10.128  12.097  18.155  0.00  0.00    +0.000 C 
ATOM     22  O   UNL     1       9.334  12.783  17.525  0.00  0.00    +0.000 OA
BRANCH  21  24
ATOM     23  C   UNL     1      12.099  11.764  19.650  0.00  0.00    +0.000 C 
ATOM     24  C   UNL     1      11.322  12.752  18.787  0.00  0.00    +0.000 C 
ENDBRANCH  21  24
ENDBRANCH  20  21
ENDBRANCH  19  20
ENDBRANCH  18  19
ENDBRANCH   1  18
TORSDOF 8
ENDMDL
MODEL 5
REMARK VINA RESULT:      -6.4      1.359      1.947
REMARK  Name = 
REMARK  11 active torsions:
REMARK  status: ('A' for Active; 'I' for Inactive)
REMARK    1  A    between atoms: C_1  and  C_2
REMARK    2  A    between atoms: C_2  and  C_3
REMARK    3  A    between atoms: C_3  and  O_5
REMARK    4  A    between atoms: O_5  and  C_6
REMARK    5  A    between atoms: C_6  and  O_7
REMARK    6  A    between atoms: O_7  and  C_8
REMARK    7  A    between atoms: C_11  and  C_12
REMARK    8  A    between atoms: C_16  and  C_17
REMARK    9  A    between atoms: C_17  and  N_18
REMARK   10  A    between atoms: N_18  and  C_19
REMARK   11  A    between atoms: N_18  and  C_20
REMARK                            x       y       z     vdW  Elec       q    Type
REMARK                         _______ _______ _______ _____ _____    ______ ____
ROOT
ATOM      1  C   UNL     1       3.907   4.092  17.859  0.00  0.00    +0.000 A 
ATOM      2  C   UNL     1       2.510   4.073  17.875  0.00  0.00    +0.000 A 
ATOM      3  C   UNL     1       1.795   4.782  18.845  0.00  0.00    +0.000 A 
ATOM      4  C   UNL     1       2.479   5.506  19.830  0.00  0.00    +0.000 A 
ATOM      5  C   UNL     1       3.882   5.524  19.832  0.00  0.00    +0.000 A 
ATOM      6  C   UNL     1       4.595   4.832  18.850  0.00  0.00    +0.000 A 
ENDROOT
BRANCH   4   7
ATOM      7  C   UNL     1       1.718   6.205  20.884  0.00  0.00    +0.000 C 
ATOM      8  C   UNL     1       1.287   7.466  20.712  0.00  0.00    +0.000 C 
ATOM      9  C   UNL     1       0.574   8.294  21.744  0.00  0.00    +0.000 C 
ATOM     10  C   UNL     1       0.073   9.499  20.917  0.00  0.00    +0.000 C 
ATOM     11  C   UNL     1       1.159   9.719  19.859  0.00  0.00    +0.000 C 
ATOM     12  C   UNL     1       1.502   8.309  19.534  0.00  0.00    +0.000 C 
ATOM     13  O   UNL     1       1.971   7.933  18.469  0.00  0.00    +0.000 OA
BRANCH  11  14
ATOM     14  C   UNL     1       0.749  10.515  18.605  0.00  0.00    +0.000 C 
BRANCH  14  15
ATOM     15  N   UNL     1      -0.671  10.926  18.573  0.00  0.00    +0.000 NA
ATOM     16  C   UNL     1      -0.835  12.361  18.283  0.00  0.00    +0.000 C 
ATOM     17  C   UNL     1      -1.357  10.142  17.528  0.00  0.00    +0.000 C 
ENDBRANCH  14  15
ENDBRANCH  11  14
ENDBRANCH   4   7
BRANCH   1  18
ATOM     18  O   UNL     1       4.548   3.392  16.890  0.00  0.00    +0.000 OA
BRANCH  18  19
ATOM     19  C   UNL     1       5.038   3.914  15.707  0.00  0.00    +0.000 C 
BRANCH  19  20
ATOM     20  O   UNL     1       6.391   4.169  15.843  0.00  0.00    +0.000 OA
BRANCH  20  21
ATOM     21  C   UNL     1       6.930   5.414  15.727  0.00  0.00    +0.000 C 
ATOM     22  O   UNL     1       7.801   5.643  14.897  0.00  0.00    +0.000 OA
BRANCH  21  24
ATOM     23  C   UNL     1       7.540   6.896  17.641  0.00  0.00    +0.000 C 
ATOM     24  C   UNL     1       6.465   6.523  16.625  0.00  0.00    +0.000 C 
ENDBRANCH  21  24
ENDBRANCH  20  21
ENDBRANCH  19  20
ENDBRANCH  18  19
ENDBRANCH   1  18
TORSDOF 8
ENDMDL
MODEL 6
REMARK VINA RESULT:      -6.3      1.844      3.478
REMARK  Name = 
REMARK  11 active torsions:
REMARK  status: ('A' for Active; 'I' for Inactive)
REMARK    1  A    between atoms: C_1  and  C_2
REMARK    2  A    between atoms: C_2  and  C_3
REMARK    3  A    between atoms: C_3  and  O_5
REMARK    4  A    between atoms: O_5  and  C_6
REMARK    5  A    between atoms: C_6  and  O_7
REMARK    6  A    between atoms: O_7  and  C_8
REMARK    7  A    between atoms: C_11  and  C_12
REMARK    8  A    between atoms: C_16  and  C_17
REMARK    9  A    between atoms: C_17  and  N_18
REMARK   10  A    between atoms: N_18  and  C_19
REMARK   11  A    between atoms: N_18  and  C_20
REMARK                            x       y       z     vdW  Elec       q    Type
REMARK                         _______ _______ _______ _____ _____    ______ ____
ROOT
ATOM      1  C   UNL     1       6.448   5.125  15.255  0.00  0.00    +0.000 A 
ATOM      2  C   UNL     1       5.156   4.613  15.103  0.00  0.00    +0.000 A 
ATOM      3  C   UNL     1       4.402   4.232  16.216  0.00  0.00    +0.000 A 
ATOM      4  C   UNL     1       4.946   4.341  17.502  0.00  0.00    +0.000 A 
ATOM      5  C   UNL     1       6.246   4.842  17.668  0.00  0.00    +0.000 A 
ATOM      6  C   UNL     1       6.991   5.243  16.556  0.00  0.00    +0.000 A 
ENDROOT
BRANCH   4   7
ATOM      7  C   UNL     1       4.164   3.883  18.667  0.00  0.00    +0.000 C 
ATOM      8  C   UNL     1       3.354   4.721  19.336  0.00  0.00    +0.000 C 
ATOM      9  C   UNL     1       2.575   4.380  20.575  0.00  0.00    +0.000 C 
ATOM     10  C   UNL     1       1.625   5.590  20.715  0.00  0.00    +0.000 C 
ATOM     11  C   UNL     1       2.435   6.780  20.192  0.00  0.00    +0.000 C 
ATOM     12  C   UNL     1       3.138   6.140  19.049  0.00  0.00    +0.000 C 
ATOM     13  O   UNL     1       3.546   6.734  18.060  0.00  0.00    +0.000 OA
BRANCH  11  14
ATOM     14  C   UNL     1       1.634   8.021  19.754  0.00  0.00    +0.000 C 
BRANCH  14  15
ATOM     15  N   UNL     1       0.728   8.567  20.787  0.00  0.00    +0.000 NA
ATOM     16  C   UNL     1       1.438   8.913  22.031  0.00  0.00    +0.000 C 
ATOM     17  C   UNL     1       0.084   9.778  20.246  0.00  0.00    +0.000 C 
ENDBRANCH  14  15
ENDBRANCH  11  14
ENDBRANCH   4   7
BRANCH   1  18
ATOM     18  O   UNL     1       7.131   5.487  14.140  0.00  0.00    +0.000 OA
BRANCH  18  19
ATOM     19  C   UNL     1       7.778   4.625  13.274  0.00  0.00    +0.000 C 
BRANCH  19  20
ATOM     20  O   UNL     1       6.956   4.358  12.194  0.00  0.00    +0.000 OA
BRANCH  20  21
ATOM     21  C   UNL     1       6.625   3.095  11.804  0.00  0.00    +0.000 C 
ATOM     22  O   UNL     1       7.455   2.368  11.273  0.00  0.00    +0.000 OA
BRANCH  21  24
ATOM     23  C   UNL     1       4.222   3.376  11.192  0.00  0.00    +0.000 C 
ATOM     24  C   UNL     1       5.231   2.582  12.015  0.00  0.00    +0.000 C 
ENDBRANCH  21  24
ENDBRANCH  20  21
ENDBRANCH  19  20
ENDBRANCH  18  19
ENDBRANCH   1  18
TORSDOF 8
ENDMDL
MODEL 7
REMARK VINA RESULT:      -6.3      3.213      4.946
REMARK  Name = 
REMARK  11 active torsions:
REMARK  status: ('A' for Active; 'I' for Inactive)
REMARK    1  A    between atoms: C_1  and  C_2
REMARK    2  A    between atoms: C_2  and  C_3
REMARK    3  A    between atoms: C_3  and  O_5
REMARK    4  A    between atoms: O_5  and  C_6
REMARK    5  A    between atoms: C_6  and  O_7
REMARK    6  A    between atoms: O_7  and  C_8
REMARK    7  A    between atoms: C_11  and  C_12
REMARK    8  A    between atoms: C_16  and  C_17
REMARK    9  A    between atoms: C_17  and  N_18
REMARK   10  A    between atoms: N_18  and  C_19
REMARK   11  A    between atoms: N_18  and  C_20
REMARK                            x       y       z     vdW  Elec       q    Type
REMARK                         _______ _______ _______ _____ _____    ______ ____
ROOT
ATOM      1  C   UNL     1       4.606   3.916  18.916  0.00  0.00    +0.000 A 
ATOM      2  C   UNL     1       5.286   5.078  19.293  0.00  0.00    +0.000 A 
ATOM      3  C   UNL     1       4.863   6.333  18.846  0.00  0.00    +0.000 A 
ATOM      4  C   UNL     1       3.756   6.436  17.993  0.00  0.00    +0.000 A 
ATOM      5  C   UNL     1       3.071   5.277  17.598  0.00  0.00    +0.000 A 
ATOM      6  C   UNL     1       3.483   4.025  18.062  0.00  0.00    +0.000 A 
ENDROOT
BRANCH   4   7
ATOM      7  C   UNL     1       3.350   7.759  17.480  0.00  0.00    +0.000 C 
ATOM      8  C   UNL     1       2.484   8.533  18.157  0.00  0.00    +0.000 C 
ATOM      9  C   UNL     1       1.948   9.857  17.690  0.00  0.00    +0.000 C 
ATOM     10  C   UNL     1       1.263  10.405  18.962  0.00  0.00    +0.000 C 
ATOM     11  C   UNL     1       0.718   9.163  19.674  0.00  0.00    +0.000 C 
ATOM     12  C   UNL     1       1.829   8.207  19.424  0.00  0.00    +0.000 C 
ATOM     13  O   UNL     1       2.094   7.246  20.133  0.00  0.00    +0.000 OA
BRANCH  11  14
ATOM     14  C   UNL     1       0.410   9.308  21.177  0.00  0.00    +0.000 C 
BRANCH  14  15
ATOM     15  N   UNL     1      -0.090  10.641  21.577  0.00  0.00    +0.000 NA
ATOM     16  C   UNL     1      -1.158  11.131  20.688  0.00  0.00    +0.000 C 
ATOM     17  C   UNL     1      -0.613  10.546  22.953  0.00  0.00    +0.000 C 
ENDBRANCH  14  15
ENDBRANCH  11  14
ENDBRANCH   4   7
BRANCH   1  18
ATOM     18  O   UNL     1       5.056   2.727  19.386  0.00  0.00    +0.000 OA
BRANCH  18  19
ATOM     19  C   UNL     1       4.288   1.762  20.011  0.00  0.00    +0.000 C 
BRANCH  19  20
ATOM     20  O   UNL     1       3.856   2.240  21.235  0.00  0.00    +0.000 OA
BRANCH  20  21
ATOM     21  C   UNL     1       2.591   2.695  21.452  0.00  0.00    +0.000 C 
ATOM     22  O   UNL     1       2.314   3.302  22.479  0.00  0.00    +0.000 OA
BRANCH  21  24
ATOM     23  C   UNL     1       0.756   3.735  20.118  0.00  0.00    +0.000 C 
ATOM     24  C   UNL     1       1.517   2.451  20.433  0.00  0.00    +0.000 C 
ENDBRANCH  21  24
ENDBRANCH  20  21
ENDBRANCH  19  20
ENDBRANCH  18  19
ENDBRANCH   1  18
TORSDOF 8
ENDMDL
MODEL 8
REMARK VINA RESULT:      -6.3      1.092      1.702
REMARK  Name = 
REMARK  11 active torsions:
REMARK  status: ('A' for Active; 'I' for Inactive)
REMARK    1  A    between atoms: C_1  and  C_2
REMARK    2  A    between atoms: C_2  and  C_3
REMARK    3  A    between atoms: C_3  and  O_5
REMARK    4  A    between atoms: O_5  and  C_6
REMARK    5  A    between atoms: C_6  and  O_7
REMARK    6  A    between atoms: O_7  and  C_8
REMARK    7  A    between atoms: C_11  and  C_12
REMARK    8  A    between atoms: C_16  and  C_17
REMARK    9  A    between atoms: C_17  and  N_18
REMARK   10  A    between atoms: N_18  and  C_19
REMARK   11  A    between atoms: N_18  and  C_20
REMARK                            x       y       z     vdW  Elec       q    Type
REMARK                         _______ _______ _______ _____ _____    ______ ____
ROOT
ATOM      1  C   UNL     1       4.349   4.744  17.341  0.00  0.00    +0.000 A 
ATOM      2  C   UNL     1       4.935   5.485  18.370  0.00  0.00    +0.000 A 
ATOM      3  C   UNL     1       4.167   5.956  19.440  0.00  0.00    +0.000 A 
ATOM      4  C   UNL     1       2.790   5.704  19.478  0.00  0.00    +0.000 A 
ATOM      5  C   UNL     1       2.187   4.971  18.445  0.00  0.00    +0.000 A 
ATOM      6  C   UNL     1       2.959   4.483  17.387  0.00  0.00    +0.000 A 
ENDROOT
BRANCH   4   7
ATOM      7  C   UNL     1       1.978   6.254  20.581  0.00  0.00    +0.000 C 
ATOM      8  C   UNL     1       1.456   7.491  20.513  0.00  0.00    +0.000 C 
ATOM      9  C   UNL     1       0.682   8.175  21.604  0.00  0.00    +0.000 C 
ATOM     10  C   UNL     1       0.097   9.406  20.878  0.00  0.00    +0.000 C 
ATOM     11  C   UNL     1       1.167   9.793  19.851  0.00  0.00    +0.000 C 
ATOM     12  C   UNL     1       1.612   8.444  19.412  0.00  0.00    +0.000 C 
ATOM     13  O   UNL     1       2.109   8.195  18.323  0.00  0.00    +0.000 OA
BRANCH  11  14
ATOM     14  C   UNL     1       0.703  10.661  18.665  0.00  0.00    +0.000 C 
BRANCH  14  15
ATOM     15  N   UNL     1       1.213  12.049  18.681  0.00  0.00    +0.000 NA
ATOM     16  C   UNL     1       1.296  12.602  20.044  0.00  0.00    +0.000 C 
ATOM     17  C   UNL     1       2.557  12.055  18.075  0.00  0.00    +0.000 C 
ENDBRANCH  14  15
ENDBRANCH  11  14
ENDBRANCH   4   7
BRANCH   1  18
ATOM     18  O   UNL     1       5.143   4.305  16.333  0.00  0.00    +0.000 OA
BRANCH  18  19
ATOM     19  C   UNL     1       5.778   5.102  15.398  0.00  0.00    +0.000 C 
BRANCH  19  20
ATOM     20  O   UNL     1       6.656   4.332  14.657  0.00  0.00    +0.000 OA
BRANCH  20  21
ATOM     21  C   UNL     1       7.326   4.804  13.570  0.00  0.00    +0.000 C 
ATOM     22  O   UNL     1       8.153   5.699  13.686  0.00  0.00    +0.000 OA
BRANCH  21  24
ATOM     23  C   UNL     1       5.903   3.231  12.255  0.00  0.00    +0.000 C 
ATOM     24  C   UNL     1       7.053   4.232  12.209  0.00  0.00    +0.000 C 
ENDBRANCH  21  24
ENDBRANCH  20  21
ENDBRANCH  19  20
ENDBRANCH  18  19
ENDBRANCH   1  18
TORSDOF 8
ENDMDL
MODEL 9
REMARK VINA RESULT:      -6.3      4.806      7.236
REMARK  Name = 
REMARK  11 active torsions:
REMARK  status: ('A' for Active; 'I' for Inactive)
REMARK    1  A    between atoms: C_1  and  C_2
REMARK    2  A    between atoms: C_2  and  C_3
REMARK    3  A    between atoms: C_3  and  O_5
REMARK    4  A    between atoms: O_5  and  C_6
REMARK    5  A    between atoms: C_6  and  O_7
REMARK    6  A    between atoms: O_7  and  C_8
REMARK    7  A    between atoms: C_11  and  C_12
REMARK    8  A    between atoms: C_16  and  C_17
REMARK    9  A    between atoms: C_17  and  N_18
REMARK   10  A    between atoms: N_18  and  C_19
REMARK   11  A    between atoms: N_18  and  C_20
REMARK                            x       y       z     vdW  Elec       q    Type
REMARK                         _______ _______ _______ _____ _____    ______ ____
ROOT
ATOM      1  C   UNL     1       7.970   7.498  18.277  0.00  0.00    +0.000 A 
ATOM      2  C   UNL     1       8.095   6.283  18.958  0.00  0.00    +0.000 A 
ATOM      3  C   UNL     1       7.438   5.137  18.501  0.00  0.00    +0.000 A 
ATOM      4  C   UNL     1       6.626   5.201  17.361  0.00  0.00    +0.000 A 
ATOM      5  C   UNL     1       6.484   6.416  16.676  0.00  0.00    +0.000 A 
ATOM      6  C   UNL     1       7.157   7.557  17.120  0.00  0.00    +0.000 A 
ENDROOT
BRANCH   4   7
ATOM      7  C   UNL     1       5.891   3.999  16.920  0.00  0.00    +0.000 C 
ATOM      8  C   UNL     1       4.635   3.760  17.333  0.00  0.00    +0.000 C 
ATOM      9  C   UNL     1       3.826   2.536  17.007  0.00  0.00    +0.000 C 
ATOM     10  C   UNL     1       2.411   2.936  17.480  0.00  0.00    +0.000 C 
ATOM     11  C   UNL     1       2.650   3.829  18.702  0.00  0.00    +0.000 C 
ATOM     12  C   UNL     1       3.844   4.588  18.245  0.00  0.00    +0.000 C 
ATOM     13  O   UNL     1       4.155   5.703  18.641  0.00  0.00    +0.000 OA
BRANCH  11  14
ATOM     14  C   UNL     1       1.495   4.764  19.110  0.00  0.00    +0.000 C 
BRANCH  14  15
ATOM     15  N   UNL     1       1.289   4.890  20.569  0.00  0.00    +0.000 NA
ATOM     16  C   UNL     1       2.127   3.952  21.337  0.00  0.00    +0.000 C 
ATOM     17  C   UNL     1       1.622   6.270  20.966  0.00  0.00    +0.000 C 
ENDBRANCH  14  15
ENDBRANCH  11  14
ENDBRANCH   4   7
BRANCH   1  18
ATOM     18  O   UNL     1       8.636   8.576  18.760  0.00  0.00    +0.000 OA
BRANCH  18  19
ATOM     19  C   UNL     1       8.671   9.830  18.180  0.00  0.00    +0.000 C 
BRANCH  19  20
ATOM     20  O   UNL     1       9.184  10.742  19.087  0.00  0.00    +0.000 OA
BRANCH  20  21
ATOM     21  C   UNL     1       9.524  12.016  18.750  0.00  0.00    +0.000 C 
ATOM     22  O   UNL     1       8.892  12.626  17.897  0.00  0.00    +0.000 OA
BRANCH  21  24
ATOM     23  C   UNL     1      11.839  11.713  19.631  0.00  0.00    +0.000 C 
ATOM     24  C   UNL     1      10.686  12.689  19.421  0.00  0.00    +0.000 C 
ENDBRANCH  21  24
ENDBRANCH  20  21
ENDBRANCH  19  20
ENDBRANCH  18  19
ENDBRANCH   1  18
TORSDOF 8
ENDMDL
