MODEL 1
REMARK VINA RESULT:      -8.2      0.000      0.000
REMARK  Name = 
REMARK  12 active torsions:
REMARK  status: ('A' for Active; 'I' for Inactive)
REMARK    1  A    between atoms: C_1  and  C_2
REMARK    2  A    between atoms: C_2  and  C_3
REMARK    3  A    between atoms: C_2  and  O_4
REMARK    4  A    between atoms: O_4  and  C_5
REMARK    5  A    between atoms: C_5  and  C_7
REMARK    6  A    between atoms: C_8  and  N_9
REMARK    7  A    between atoms: C_12  and  C_13
REMARK    8  A    between atoms: C_15  and  O_16
REMARK    9  A    between atoms: O_16  and  C_17
REMARK   10  A    between atoms: C_17  and  C_18
REMARK   11  A    between atoms: C_17  and  C_19
REMARK   12  A    between atoms: C_21  and  C_22
REMARK                            x       y       z     vdW  Elec       q    Type
REMARK                         _______ _______ _______ _____ _____    ______ ____
ROOT
ATOM      1  C   UNL     1       5.091   3.788  16.126  0.00  0.00    +0.000 A 
ATOM      2  C   UNL     1       5.947   4.746  16.669  0.00  0.00    +0.000 A 
ATOM      3  C   UNL     1       6.902   5.316  15.852  0.00  0.00    +0.000 A 
ATOM      4  N   UNL     1       7.055   5.000  14.552  0.00  0.00    +0.000 NA
ATOM      5  C   UNL     1       6.206   4.080  14.015  0.00  0.00    +0.000 A 
ATOM      6  C   UNL     1       5.221   3.453  14.777  0.00  0.00    +0.000 A 
ENDROOT
BRANCH   1  10
ATOM      7  N   UNL     1       2.294   2.982  18.114  0.00  0.00    +0.000 N 
ATOM      8  C   UNL     1       3.191   1.970  18.412  0.00  0.00    +0.000 A 
ATOM      9  N   UNL     1       4.294   2.093  17.719  0.00  0.00    +0.000 NA
ATOM     10  C   UNL     1       4.049   3.196  16.953  0.00  0.00    +0.000 A 
ATOM     11  N   UNL     1       2.797   3.669  17.053  0.00  0.00    +0.000 NA
BRANCH   7  13
ATOM     12  C   UNL     1       0.805   3.596  19.992  0.00  0.00    +0.000 C 
ATOM     13  C   UNL     1       1.057   3.228  18.721  0.00  0.00    +0.000 C 
BRANCH  12  14
ATOM     14  C   UNL     1       1.873   4.101  20.880  0.00  0.00    +0.000 C 
ATOM     15  O   UNL     1       2.648   3.370  21.478  0.00  0.00    +0.000 OA
BRANCH  14  16
ATOM     16  O   UNL     1       1.868   5.451  20.905  0.00  0.00    +0.000 OA
BRANCH  16  18
ATOM     17  C   UNL     1       2.141   7.552  19.705  0.00  0.00    +0.000 C 
ATOM     18  C   UNL     1       2.394   6.047  19.700  0.00  0.00    +0.000 C 
ATOM     19  C   UNL     1       3.885   5.748  19.635  0.00  0.00    +0.000 C 
ENDBRANCH  16  18
ENDBRANCH  14  16
ENDBRANCH  12  14
ENDBRANCH   7  13
ENDBRANCH   1  10
BRANCH   5  20
ATOM     20  C   UNL     1       6.308   3.747  12.534  0.00  0.00    +0.000 C 
ATOM     21  F   UNL     1       5.129   3.837  11.857  0.00  0.00    +0.000 F 
ATOM     22  F   UNL     1       7.178   4.565  11.873  0.00  0.00    +0.000 F 
ATOM     23  F   UNL     1       6.763   2.479  12.317  0.00  0.00    +0.000 F 
ENDBRANCH   5  20
BRANCH   3  24
ATOM     24  O   UNL     1       7.722   6.262  16.432  0.00  0.00    +0.000 OA
BRANCH  24  25
ATOM     25  C   UNL     1       7.218   6.830  17.649  0.00  0.00    +0.000 C 
ATOM     26  C   UNL     1       7.852   6.139  18.856  0.00  0.00    +0.000 C 
ATOM     27  C   UNL     1       7.611   8.307  17.648  0.00  0.00    +0.000 C 
ENDBRANCH  24  25
ENDBRANCH   3  24
TORSDOF 8
ENDMDL
MODEL 2
REMARK VINA RESULT:      -8.1      0.575      1.103
REMARK  Name = 
REMARK  12 active torsions:
REMARK  status: ('A' for Active; 'I' for Inactive)
REMARK    1  A    between atoms: C_1  and  C_2
REMARK    2  A    between atoms: C_2  and  C_3
REMARK    3  A    between atoms: C_2  and  O_4
REMARK    4  A    between atoms: O_4  and  C_5
REMARK    5  A    between atoms: C_5  and  C_7
REMARK    6  A    between atoms: C_8  and  N_9
REMARK    7  A    between atoms: C_12  and  C_13
REMARK    8  A    between atoms: C_15  and  O_16
REMARK    9  A    between atoms: O_16  and  C_17
REMARK   10  A    between atoms: C_17  and  C_18
REMARK   11  A    between atoms: C_17  and  C_19
REMARK   12  A    between atoms: C_21  and  C_22
REMARK                            x       y       z     vdW  Elec       q    Type
REMARK                         _______ _______ _______ _____ _____    ______ ____
ROOT
ATOM      1  C   UNL     1       5.178   3.845  16.325  0.00  0.00    +0.000 A 
ATOM      2  C   UNL     1       6.009   4.874  16.769  0.00  0.00    +0.000 A 
ATOM      3  C   UNL     1       6.876   5.456  15.866  0.00  0.00    +0.000 A 
ATOM      4  N   UNL     1       6.964   5.087  14.573  0.00  0.00    +0.000 NA
ATOM      5  C   UNL     1       6.137   4.098  14.135  0.00  0.00    +0.000 A 
ATOM      6  C   UNL     1       5.240   3.455  14.987  0.00  0.00    +0.000 A 
ENDROOT
BRANCH   1  10
ATOM      7  N   UNL     1       2.428   2.812  18.274  0.00  0.00    +0.000 N 
ATOM      8  C   UNL     1       3.514   2.362  19.005  0.00  0.00    +0.000 A 
ATOM      9  N   UNL     1       4.641   2.631  18.396  0.00  0.00    +0.000 NA
ATOM     10  C   UNL     1       4.226   3.237  17.245  0.00  0.00    +0.000 A 
ATOM     11  N   UNL     1       2.895   3.227  17.066  0.00  0.00    +0.000 NA
BRANCH   7  13
ATOM     12  C   UNL     1       0.508   3.296  19.757  0.00  0.00    +0.000 C 
ATOM     13  C   UNL     1       1.080   2.784  18.651  0.00  0.00    +0.000 C 
BRANCH  12  14
ATOM     14  C   UNL     1       1.217   4.261  20.622  0.00  0.00    +0.000 C 
ATOM     15  O   UNL     1       1.928   3.926  21.558  0.00  0.00    +0.000 OA
BRANCH  14  16
ATOM     16  O   UNL     1       0.980   5.526  20.213  0.00  0.00    +0.000 OA
BRANCH  16  18
ATOM     17  C   UNL     1       2.849   6.309  18.864  0.00  0.00    +0.000 C 
ATOM     18  C   UNL     1       2.158   6.360  20.224  0.00  0.00    +0.000 C 
ATOM     19  C   UNL     1       1.730   7.782  20.562  0.00  0.00    +0.000 C 
ENDBRANCH  16  18
ENDBRANCH  14  16
ENDBRANCH  12  14
ENDBRANCH   7  13
ENDBRANCH   1  10
BRANCH   5  20
ATOM     20  C   UNL     1       6.163   3.701  12.666  0.00  0.00    +0.000 C 
ATOM     21  F   UNL     1       7.025   4.431  11.904  0.00  0.00    +0.000 F 
ATOM     22  F   UNL     1       6.520   2.396  12.483  0.00  0.00    +0.000 F 
ATOM     23  F   UNL     1       4.941   3.832  12.071  0.00  0.00    +0.000 F 
ENDBRANCH   5  20
BRANCH   3  24
ATOM     24  O   UNL     1       7.675   6.472  16.348  0.00  0.00    +0.000 OA
BRANCH  24  25
ATOM     25  C   UNL     1       7.285   6.986  17.629  0.00  0.00    +0.000 C 
ATOM     26  C   UNL     1       8.042   6.261  18.742  0.00  0.00    +0.000 C 
ATOM     27  C   UNL     1       7.658   8.468  17.647  0.00  0.00    +0.000 C 
ENDBRANCH  24  25
ENDBRANCH   3  24
TORSDOF 8
ENDMDL
MODEL 3
REMARK VINA RESULT:      -7.9      0.918      1.470
REMARK  Name = 
REMARK  12 active torsions:
REMARK  status: ('A' for Active; 'I' for Inactive)
REMARK    1  A    between atoms: C_1  and  C_2
REMARK    2  A    between atoms: C_2  and  C_3
REMARK    3  A    between atoms: C_2  and  O_4
REMARK    4  A    between atoms: O_4  and  C_5
REMARK    5  A    between atoms: C_5  and  C_7
REMARK    6  A    between atoms: C_8  and  N_9
REMARK    7  A    between atoms: C_12  and  C_13
REMARK    8  A    between atoms: C_15  and  O_16
REMARK    9  A    between atoms: O_16  and  C_17
REMARK   10  A    between atoms: C_17  and  C_18
REMARK   11  A    between atoms: C_17  and  C_19
REMARK   12  A    between atoms: C_21  and  C_22
REMARK                            x       y       z     vdW  Elec       q    Type
REMARK                         _______ _______ _______ _____ _____    ______ ____
ROOT
ATOM      1  C   UNL     1       4.681   4.092  16.548  0.00  0.00    +0.000 A 
ATOM      2  C   UNL     1       5.080   5.319  17.079  0.00  0.00    +0.000 A 
ATOM      3  C   UNL     1       5.930   6.113  16.337  0.00  0.00    +0.000 A 
ATOM      4  N   UNL     1       6.397   5.771  15.121  0.00  0.00    +0.000 NA
ATOM      5  C   UNL     1       5.991   4.583  14.592  0.00  0.00    +0.000 A 
ATOM      6  C   UNL     1       5.141   3.721  15.283  0.00  0.00    +0.000 A 
ENDROOT
BRANCH   1  10
ATOM      7  N   UNL     1       2.113   2.637  18.475  0.00  0.00    +0.000 N 
ATOM      8  C   UNL     1       3.112   1.679  18.515  0.00  0.00    +0.000 A 
ATOM      9  N   UNL     1       4.149   2.046  17.804  0.00  0.00    +0.000 NA
ATOM     10  C   UNL     1       3.755   3.248  17.291  0.00  0.00    +0.000 A 
ATOM     11  N   UNL     1       2.477   3.566  17.551  0.00  0.00    +0.000 NA
BRANCH   7  13
ATOM     12  C   UNL     1       0.596   3.291  20.317  0.00  0.00    +0.000 C 
ATOM     13  C   UNL     1       0.905   2.634  19.183  0.00  0.00    +0.000 C 
BRANCH  12  14
ATOM     14  C   UNL     1       1.440   4.390  20.832  0.00  0.00    +0.000 C 
ATOM     15  O   UNL     1       2.394   4.211  21.575  0.00  0.00    +0.000 OA
BRANCH  14  16
ATOM     16  O   UNL     1       1.017   5.578  20.349  0.00  0.00    +0.000 OA
BRANCH  16  18
ATOM     17  C   UNL     1       2.553   6.883  18.984  0.00  0.00    +0.000 C 
ATOM     18  C   UNL     1       2.029   6.605  20.391  0.00  0.00    +0.000 C 
ATOM     19  C   UNL     1       1.411   7.858  20.996  0.00  0.00    +0.000 C 
ENDBRANCH  16  18
ENDBRANCH  14  16
ENDBRANCH  12  14
ENDBRANCH   7  13
ENDBRANCH   1  10
BRANCH   5  20
ATOM     20  C   UNL     1       6.447   4.195  13.194  0.00  0.00    +0.000 C 
ATOM     21  F   UNL     1       7.469   4.952  12.707  0.00  0.00    +0.000 F 
ATOM     22  F   UNL     1       6.877   2.901  13.124  0.00  0.00    +0.000 F 
ATOM     23  F   UNL     1       5.443   4.295  12.274  0.00  0.00    +0.000 F 
ENDBRANCH   5  20
BRANCH   3  24
ATOM     24  O   UNL     1       6.293   7.319  16.900  0.00  0.00    +0.000 OA
BRANCH  24  25
ATOM     25  C   UNL     1       7.652   7.387  17.351  0.00  0.00    +0.000 C 
ATOM     26  C   UNL     1       7.992   8.812  17.790  0.00  0.00    +0.000 C 
ATOM     27  C   UNL     1       7.771   6.448  18.551  0.00  0.00    +0.000 C 
ENDBRANCH  24  25
ENDBRANCH   3  24
TORSDOF 8
ENDMDL
MODEL 4
REMARK VINA RESULT:      -7.7      2.496      3.834
REMARK  Name = 
REMARK  12 active torsions:
REMARK  status: ('A' for Active; 'I' for Inactive)
REMARK    1  A    between atoms: C_1  and  C_2
REMARK    2  A    between atoms: C_2  and  C_3
REMARK    3  A    between atoms: C_2  and  O_4
REMARK    4  A    between atoms: O_4  and  C_5
REMARK    5  A    between atoms: C_5  and  C_7
REMARK    6  A    between atoms: C_8  and  N_9
REMARK    7  A    between atoms: C_12  and  C_13
REMARK    8  A    between atoms: C_15  and  O_16
REMARK    9  A    between atoms: O_16  and  C_17
REMARK   10  A    between atoms: C_17  and  C_18
REMARK   11  A    between atoms: C_17  and  C_19
REMARK   12  A    between atoms: C_21  and  C_22
REMARK                            x       y       z     vdW  Elec       q    Type
REMARK                         _______ _______ _______ _____ _____    ______ ____
ROOT
ATOM      1  C   UNL     1       5.056   4.017  16.854  0.00  0.00    +0.000 A 
ATOM      2  C   UNL     1       5.622   3.593  15.652  0.00  0.00    +0.000 A 
ATOM      3  C   UNL     1       6.646   4.340  15.106  0.00  0.00    +0.000 A 
ATOM      4  N   UNL     1       7.135   5.461  15.672  0.00  0.00    +0.000 NA
ATOM      5  C   UNL     1       6.596   5.863  16.857  0.00  0.00    +0.000 A 
ATOM      6  C   UNL     1       5.554   5.168  17.467  0.00  0.00    +0.000 A 
ENDROOT
BRANCH   1  10
ATOM      7  N   UNL     1       2.229   2.720  18.512  0.00  0.00    +0.000 N 
ATOM      8  C   UNL     1       3.115   1.656  18.530  0.00  0.00    +0.000 A 
ATOM      9  N   UNL     1       4.228   1.956  17.910  0.00  0.00    +0.000 NA
ATOM     10  C   UNL     1       3.999   3.229  17.474  0.00  0.00    +0.000 A 
ATOM     11  N   UNL     1       2.749   3.668  17.688  0.00  0.00    +0.000 NA
BRANCH   7  13
ATOM     12  C   UNL     1       0.640   3.532  20.226  0.00  0.00    +0.000 C 
ATOM     13  C   UNL     1       0.985   2.799  19.150  0.00  0.00    +0.000 C 
BRANCH  12  14
ATOM     14  C   UNL     1       1.495   4.629  20.725  0.00  0.00    +0.000 C 
ATOM     15  O   UNL     1       2.438   4.453  21.481  0.00  0.00    +0.000 OA
BRANCH  14  16
ATOM     16  O   UNL     1       1.094   5.812  20.211  0.00  0.00    +0.000 OA
BRANCH  16  18
ATOM     17  C   UNL     1       2.595   7.072  18.767  0.00  0.00    +0.000 C 
ATOM     18  C   UNL     1       2.135   6.812  20.199  0.00  0.00    +0.000 C 
ATOM     19  C   UNL     1       1.582   8.082  20.830  0.00  0.00    +0.000 C 
ENDBRANCH  16  18
ENDBRANCH  14  16
ENDBRANCH  12  14
ENDBRANCH   7  13
ENDBRANCH   1  10
BRANCH   5  20
ATOM     20  C   UNL     1       7.168   7.087  17.557  0.00  0.00    +0.000 C 
ATOM     21  F   UNL     1       6.251   8.058  17.827  0.00  0.00    +0.000 F 
ATOM     22  F   UNL     1       7.749   6.782  18.754  0.00  0.00    +0.000 F 
ATOM     23  F   UNL     1       8.145   7.697  16.822  0.00  0.00    +0.000 F 
ENDBRANCH   5  20
BRANCH   3  24
ATOM     24  O   UNL     1       7.178   3.879  13.919  0.00  0.00    +0.000 OA
BRANCH  24  25
ATOM     25  C   UNL     1       6.475   4.299  12.742  0.00  0.00    +0.000 C 
ATOM     26  C   UNL     1       7.429   5.015  11.785  0.00  0.00    +0.000 C 
ATOM     27  C   UNL     1       5.938   3.036  12.069  0.00  0.00    +0.000 C 
ENDBRANCH  24  25
ENDBRANCH   3  24
TORSDOF 8
ENDMDL
MODEL 5
REMARK VINA RESULT:      -7.6      2.709      4.019
REMARK  Name = 
REMARK  12 active torsions:
REMARK  status: ('A' for Active; 'I' for Inactive)
REMARK    1  A    between atoms: C_1  and  C_2
REMARK    2  A    between atoms: C_2  and  C_3
REMARK    3  A    between atoms: C_2  and  O_4
REMARK    4  A    between atoms: O_4  and  C_5
REMARK    5  A    between atoms: C_5  and  C_7
REMARK    6  A    between atoms: C_8  and  N_9
REMARK    7  A    between atoms: C_12  and  C_13
REMARK    8  A    between atoms: C_15  and  O_16
REMARK    9  A    between atoms: O_16  and  C_17
REMARK   10  A    between atoms: C_17  and  C_18
REMARK   11  A    between atoms: C_17  and  C_19
REMARK   12  A    between atoms: C_21  and  C_22
REMARK                            x       y       z     vdW  Elec       q    Type
REMARK                         _______ _______ _______ _____ _____    ______ ____
ROOT
ATOM      1  C   UNL     1       5.739   4.415  17.253  0.00  0.00    +0.000 A 
ATOM      2  C   UNL     1       6.035   4.095  15.929  0.00  0.00    +0.000 A 
ATOM      3  C   UNL     1       6.845   4.950  15.209  0.00  0.00    +0.000 A 
ATOM      4  N   UNL     1       7.370   6.083  15.715  0.00  0.00    +0.000 NA
ATOM      5  C   UNL     1       7.098   6.385  17.016  0.00  0.00    +0.000 A 
ATOM      6  C   UNL     1       6.282   5.577  17.806  0.00  0.00    +0.000 A 
ENDROOT
BRANCH   1  10
ATOM      7  N   UNL     1       3.229   2.536  18.864  0.00  0.00    +0.000 N 
ATOM      8  C   UNL     1       4.318   2.388  19.707  0.00  0.00    +0.000 A 
ATOM      9  N   UNL     1       5.372   3.003  19.233  0.00  0.00    +0.000 NA
ATOM     10  C   UNL     1       4.919   3.513  18.050  0.00  0.00    +0.000 A 
ATOM     11  N   UNL     1       3.677   3.125  17.722  0.00  0.00    +0.000 NA
BRANCH   7  13
ATOM     12  C   UNL     1       1.092   2.407  20.102  0.00  0.00    +0.000 C 
ATOM     13  C   UNL     1       1.918   2.098  19.085  0.00  0.00    +0.000 C 
BRANCH  12  14
ATOM     14  C   UNL     1       1.369   3.537  21.013  0.00  0.00    +0.000 C 
ATOM     15  O   UNL     1       1.935   3.408  22.088  0.00  0.00    +0.000 OA
BRANCH  14  16
ATOM     16  O   UNL     1       0.933   4.696  20.474  0.00  0.00    +0.000 OA
BRANCH  16  18
ATOM     17  C   UNL     1       2.449   5.994  19.079  0.00  0.00    +0.000 C 
ATOM     18  C   UNL     1       1.926   5.743  20.491  0.00  0.00    +0.000 C 
ATOM     19  C   UNL     1       1.283   6.999  21.062  0.00  0.00    +0.000 C 
ENDBRANCH  16  18
ENDBRANCH  14  16
ENDBRANCH  12  14
ENDBRANCH   7  13
ENDBRANCH   1  10
BRANCH   5  20
ATOM     20  C   UNL     1       7.727   7.622  17.640  0.00  0.00    +0.000 C 
ATOM     21  F   UNL     1       8.624   8.260  16.838  0.00  0.00    +0.000 F 
ATOM     22  F   UNL     1       6.800   8.564  17.983  0.00  0.00    +0.000 F 
ATOM     23  F   UNL     1       8.400   7.336  18.793  0.00  0.00    +0.000 F 
ENDBRANCH   5  20
BRANCH   3  24
ATOM     24  O   UNL     1       7.115   4.590  13.905  0.00  0.00    +0.000 OA
BRANCH  24  25
ATOM     25  C   UNL     1       6.235   3.595  13.362  0.00  0.00    +0.000 C 
ATOM     26  C   UNL     1       4.882   4.219  13.017  0.00  0.00    +0.000 C 
ATOM     27  C   UNL     1       6.890   3.071  12.084  0.00  0.00    +0.000 C 
ENDBRANCH  24  25
ENDBRANCH   3  24
TORSDOF 8
ENDMDL
MODEL 6
REMARK VINA RESULT:      -7.5      4.868      7.243
REMARK  Name = 
REMARK  12 active torsions:
REMARK  status: ('A' for Active; 'I' for Inactive)
REMARK    1  A    between atoms: C_1  and  C_2
REMARK    2  A    between atoms: C_2  and  C_3
REMARK    3  A    between atoms: C_2  and  O_4
REMARK    4  A    between atoms: O_4  and  C_5
REMARK    5  A    between atoms: C_5  and  C_7
REMARK    6  A    between atoms: C_8  and  N_9
REMARK    7  A    between atoms: C_12  and  C_13
REMARK    8  A    between atoms: C_15  and  O_16
REMARK    9  A    between atoms: O_16  and  C_17
REMARK   10  A    between atoms: C_17  and  C_18
REMARK   11  A    between atoms: C_17  and  C_19
REMARK   12  A    between atoms: C_21  and  C_22
REMARK                            x       y       z     vdW  Elec       q    Type
REMARK                         _______ _______ _______ _____ _____    ______ ____
ROOT
ATOM      1  C   UNL     1       2.374   7.615  18.883  0.00  0.00    +0.000 A 
ATOM      2  C   UNL     1       2.257   6.461  19.659  0.00  0.00    +0.000 A 
ATOM      3  C   UNL     1       3.046   5.373  19.345  0.00  0.00    +0.000 A 
ATOM      4  N   UNL     1       3.928   5.361  18.327  0.00  0.00    +0.000 NA
ATOM      5  C   UNL     1       4.058   6.494  17.582  0.00  0.00    +0.000 A 
ATOM      6  C   UNL     1       3.292   7.632  17.831  0.00  0.00    +0.000 A 
ENDROOT
BRANCH   1  10
ATOM      7  N   UNL     1       0.744  10.731  19.119  0.00  0.00    +0.000 N 
ATOM      8  C   UNL     1       0.653  10.234  20.408  0.00  0.00    +0.000 A 
ATOM      9  N   UNL     1       1.185   9.042  20.496  0.00  0.00    +0.000 NA
ATOM     10  C   UNL     1       1.583   8.793  19.214  0.00  0.00    +0.000 A 
ATOM     11  N   UNL     1       1.198   9.723  18.327  0.00  0.00    +0.000 NA
BRANCH   7  13
ATOM     12  C   UNL     1      -0.835  12.415  18.228  0.00  0.00    +0.000 C 
ATOM     13  C   UNL     1       0.369  12.003  18.670  0.00  0.00    +0.000 C 
BRANCH  12  14
ATOM     14  C   UNL     1      -2.058  11.614  18.443  0.00  0.00    +0.000 C 
ATOM     15  O   UNL     1      -2.829  11.805  19.371  0.00  0.00    +0.000 OA
BRANCH  14  16
ATOM     16  O   UNL     1      -2.192  10.686  17.472  0.00  0.00    +0.000 OA
BRANCH  16  18
ATOM     17  C   UNL     1      -2.830  10.157  15.182  0.00  0.00    +0.000 C 
ATOM     18  C   UNL     1      -2.936  11.158  16.329  0.00  0.00    +0.000 C 
ATOM     19  C   UNL     1      -4.387  11.346  16.752  0.00  0.00    +0.000 C 
ENDBRANCH  16  18
ENDBRANCH  14  16
ENDBRANCH  12  14
ENDBRANCH   7  13
ENDBRANCH   1  10
BRANCH   5  20
ATOM     20  C   UNL     1       5.091   6.538  16.467  0.00  0.00    +0.000 C 
ATOM     21  F   UNL     1       5.512   5.313  16.044  0.00  0.00    +0.000 F 
ATOM     22  F   UNL     1       4.630   7.177  15.351  0.00  0.00    +0.000 F 
ATOM     23  F   UNL     1       6.221   7.212  16.832  0.00  0.00    +0.000 F 
ENDBRANCH   5  20
BRANCH   3  24
ATOM     24  O   UNL     1       2.899   4.257  20.143  0.00  0.00    +0.000 OA
BRANCH  24  25
ATOM     25  C   UNL     1       1.548   3.802  20.299  0.00  0.00    +0.000 C 
ATOM     26  C   UNL     1       1.141   2.937  19.106  0.00  0.00    +0.000 C 
ATOM     27  C   UNL     1       1.506   2.959  21.573  0.00  0.00    +0.000 C 
ENDBRANCH  24  25
ENDBRANCH   3  24
TORSDOF 8
ENDMDL
MODEL 7
REMARK VINA RESULT:      -7.5      4.507      6.794
REMARK  Name = 
REMARK  12 active torsions:
REMARK  status: ('A' for Active; 'I' for Inactive)
REMARK    1  A    between atoms: C_1  and  C_2
REMARK    2  A    between atoms: C_2  and  C_3
REMARK    3  A    between atoms: C_2  and  O_4
REMARK    4  A    between atoms: O_4  and  C_5
REMARK    5  A    between atoms: C_5  and  C_7
REMARK    6  A    between atoms: C_8  and  N_9
REMARK    7  A    between atoms: C_12  and  C_13
REMARK    8  A    between atoms: C_15  and  O_16
REMARK    9  A    between atoms: O_16  and  C_17
REMARK   10  A    between atoms: C_17  and  C_18
REMARK   11  A    between atoms: C_17  and  C_19
REMARK   12  A    between atoms: C_21  and  C_22
REMARK                            x       y       z     vdW  Elec       q    Type
REMARK                         _______ _______ _______ _____ _____    ______ ____
ROOT
ATOM      1  C   UNL     1       2.790   7.036  18.332  0.00  0.00    +0.000 A 
ATOM      2  C   UNL     1       2.440   5.867  19.008  0.00  0.00    +0.000 A 
ATOM      3  C   UNL     1       3.123   4.705  18.713  0.00  0.00    +0.000 A 
ATOM      4  N   UNL     1       4.116   4.634  17.805  0.00  0.00    +0.000 NA
ATOM      5  C   UNL     1       4.472   5.780  17.159  0.00  0.00    +0.000 A 
ATOM      6  C   UNL     1       3.825   6.991  17.396  0.00  0.00    +0.000 A 
ENDROOT
BRANCH   1  10
ATOM      7  N   UNL     1       0.746   9.667  19.484  0.00  0.00    +0.000 N 
ATOM      8  C   UNL     1       1.327  10.199  18.345  0.00  0.00    +0.000 A 
ATOM      9  N   UNL     1       2.164   9.354  17.799  0.00  0.00    +0.000 NA
ATOM     10  C   UNL     1       2.113   8.286  18.649  0.00  0.00    +0.000 A 
ATOM     11  N   UNL     1       1.385   8.498  19.757  0.00  0.00    +0.000 NA
BRANCH   7  13
ATOM     12  C   UNL     1      -1.172  11.165  19.924  0.00  0.00    +0.000 C 
ATOM     13  C   UNL     1      -0.258  10.241  20.273  0.00  0.00    +0.000 C 
BRANCH  12  14
ATOM     14  C   UNL     1      -1.438  11.500  18.510  0.00  0.00    +0.000 C 
ATOM     15  O   UNL     1      -1.019  12.514  17.971  0.00  0.00    +0.000 OA
BRANCH  14  16
ATOM     16  O   UNL     1      -2.172  10.530  17.924  0.00  0.00    +0.000 OA
BRANCH  16  18
ATOM     17  C   UNL     1      -2.868   9.801  15.708  0.00  0.00    +0.000 C 
ATOM     18  C   UNL     1      -2.813  10.956  16.703  0.00  0.00    +0.000 C 
ATOM     19  C   UNL     1      -4.214  11.442  17.048  0.00  0.00    +0.000 C 
ENDBRANCH  16  18
ENDBRANCH  14  16
ENDBRANCH  12  14
ENDBRANCH   7  13
ENDBRANCH   1  10
BRANCH   5  20
ATOM     20  C   UNL     1       5.632   5.750  16.175  0.00  0.00    +0.000 C 
ATOM     21  F   UNL     1       6.727   6.454  16.578  0.00  0.00    +0.000 F 
ATOM     22  F   UNL     1       6.076   4.483  15.928  0.00  0.00    +0.000 F 
ATOM     23  F   UNL     1       5.292   6.262  14.956  0.00  0.00    +0.000 F 
ENDBRANCH   5  20
BRANCH   3  24
ATOM     24  O   UNL     1       2.747   3.576  19.411  0.00  0.00    +0.000 OA
BRANCH  24  25
ATOM     25  C   UNL     1       1.349   3.502  19.726  0.00  0.00    +0.000 C 
ATOM     26  C   UNL     1       0.640   2.551  18.762  0.00  0.00    +0.000 C 
ATOM     27  C   UNL     1       1.242   2.954  21.149  0.00  0.00    +0.000 C 
ENDBRANCH  24  25
ENDBRANCH   3  24
TORSDOF 8
ENDMDL
MODEL 8
REMARK VINA RESULT:      -7.5      4.701      6.517
REMARK  Name = 
REMARK  12 active torsions:
REMARK  status: ('A' for Active; 'I' for Inactive)
REMARK    1  A    between atoms: C_1  and  C_2
REMARK    2  A    between atoms: C_2  and  C_3
REMARK    3  A    between atoms: C_2  and  O_4
REMARK    4  A    between atoms: O_4  and  C_5
REMARK    5  A    between atoms: C_5  and  C_7
REMARK    6  A    between atoms: C_8  and  N_9
REMARK    7  A    between atoms: C_12  and  C_13
REMARK    8  A    between atoms: C_15  and  O_16
REMARK    9  A    between atoms: O_16  and  C_17
REMARK   10  A    between atoms: C_17  and  C_18
REMARK   11  A    between atoms: C_17  and  C_19
REMARK   12  A    between atoms: C_21  and  C_22
REMARK                            x       y       z     vdW  Elec       q    Type
REMARK                         _______ _______ _______ _____ _____    ______ ____
ROOT
ATOM      1  C   UNL     1       2.803   5.946  19.493  0.00  0.00    +0.000 A 
ATOM      2  C   UNL     1       4.194   5.914  19.391  0.00  0.00    +0.000 A 
ATOM      3  C   UNL     1       4.816   4.691  19.239  0.00  0.00    +0.000 A 
ATOM      4  N   UNL     1       4.153   3.520  19.182  0.00  0.00    +0.000 NA
ATOM      5  C   UNL     1       2.793   3.553  19.260  0.00  0.00    +0.000 A 
ATOM      6  C   UNL     1       2.092   4.747  19.422  0.00  0.00    +0.000 A 
ENDROOT
BRANCH   1  10
ATOM      7  N   UNL     1       1.534   9.227  19.264  0.00  0.00    +0.000 N 
ATOM      8  C   UNL     1       1.189   8.848  20.551  0.00  0.00    +0.000 A 
ATOM      9  N   UNL     1       1.557   7.617  20.798  0.00  0.00    +0.000 NA
ATOM     10  C   UNL     1       2.115   7.224  19.616  0.00  0.00    +0.000 A 
ATOM     11  N   UNL     1       1.984   8.116  18.621  0.00  0.00    +0.000 NA
BRANCH   7  13
ATOM     12  C   UNL     1       0.256  11.200  18.495  0.00  0.00    +0.000 C 
ATOM     13  C   UNL     1       1.385  10.492  18.682  0.00  0.00    +0.000 C 
BRANCH  12  14
ATOM     14  C   UNL     1      -1.005  10.847  19.180  0.00  0.00    +0.000 C 
ATOM     15  O   UNL     1      -1.282  11.222  20.309  0.00  0.00    +0.000 OA
BRANCH  14  16
ATOM     16  O   UNL     1      -1.783  10.091  18.376  0.00  0.00    +0.000 OA
BRANCH  16  18
ATOM     17  C   UNL     1      -2.617   9.927  16.094  0.00  0.00    +0.000 C 
ATOM     18  C   UNL     1      -2.386  10.837  17.297  0.00  0.00    +0.000 C 
ATOM     19  C   UNL     1      -3.702  11.418  17.798  0.00  0.00    +0.000 C 
ENDBRANCH  16  18
ENDBRANCH  14  16
ENDBRANCH  12  14
ENDBRANCH   7  13
ENDBRANCH   1  10
BRANCH   5  20
ATOM     20  C   UNL     1       2.008   2.256  19.133  0.00  0.00    +0.000 C 
ATOM     21  F   UNL     1       0.916   2.338  18.321  0.00  0.00    +0.000 F 
ATOM     22  F   UNL     1       2.764   1.234  18.635  0.00  0.00    +0.000 F 
ATOM     23  F   UNL     1       1.541   1.811  20.336  0.00  0.00    +0.000 F 
ENDBRANCH   5  20
BRANCH   3  24
ATOM     24  O   UNL     1       6.191   4.710  19.137  0.00  0.00    +0.000 OA
BRANCH  24  25
ATOM     25  C   UNL     1       6.705   5.538  18.085  0.00  0.00    +0.000 C 
ATOM     26  C   UNL     1       7.826   6.431  18.617  0.00  0.00    +0.000 C 
ATOM     27  C   UNL     1       7.269   4.602  17.016  0.00  0.00    +0.000 C 
ENDBRANCH  24  25
ENDBRANCH   3  24
TORSDOF 8
ENDMDL
MODEL 9
REMARK VINA RESULT:      -7.5      5.044      6.882
REMARK  Name = 
REMARK  12 active torsions:
REMARK  status: ('A' for Active; 'I' for Inactive)
REMARK    1  A    between atoms: C_1  and  C_2
REMARK    2  A    between atoms: C_2  and  C_3
REMARK    3  A    between atoms: C_2  and  O_4
REMARK    4  A    between atoms: O_4  and  C_5
REMARK    5  A    between atoms: C_5  and  C_7
REMARK    6  A    between atoms: C_8  and  N_9
REMARK    7  A    between atoms: C_12  and  C_13
REMARK    8  A    between atoms: C_15  and  O_16
REMARK    9  A    between atoms: O_16  and  C_17
REMARK   10  A    between atoms: C_17  and  C_18
REMARK   11  A    between atoms: C_17  and  C_19
REMARK   12  A    between atoms: C_21  and  C_22
REMARK                            x       y       z     vdW  Elec       q    Type
REMARK                         _______ _______ _______ _____ _____    ______ ____
ROOT
ATOM      1  C   UNL     1       2.774   6.516  18.762  0.00  0.00    +0.000 A 
ATOM      2  C   UNL     1       3.683   5.974  17.854  0.00  0.00    +0.000 A 
ATOM      3  C   UNL     1       4.102   4.671  18.039  0.00  0.00    +0.000 A 
ATOM      4  N   UNL     1       3.679   3.890  19.051  0.00  0.00    +0.000 NA
ATOM      5  C   UNL     1       2.775   4.412  19.926  0.00  0.00    +0.000 A 
ATOM      6  C   UNL     1       2.310   5.722  19.812  0.00  0.00    +0.000 A 
ENDROOT
BRANCH   1  10
ATOM      7  N   UNL     1       1.001   9.556  18.551  0.00  0.00    +0.000 N 
ATOM      8  C   UNL     1       2.054   9.747  17.671  0.00  0.00    +0.000 A 
ATOM      9  N   UNL     1       2.851   8.710  17.652  0.00  0.00    +0.000 NA
ATOM     10  C   UNL     1       2.284   7.875  18.572  0.00  0.00    +0.000 A 
ATOM     11  N   UNL     1       1.254   8.414  19.244  0.00  0.00    +0.000 NA
BRANCH   7  13
ATOM     12  C   UNL     1      -0.258  11.328  19.731  0.00  0.00    +0.000 C 
ATOM     13  C   UNL     1      -0.091  10.405  18.766  0.00  0.00    +0.000 C 
BRANCH  12  14
ATOM     14  C   UNL     1       0.871  11.797  20.561  0.00  0.00    +0.000 C 
ATOM     15  O   UNL     1       1.771  12.503  20.131  0.00  0.00    +0.000 OA
BRANCH  14  16
ATOM     16  O   UNL     1       0.739  11.357  21.831  0.00  0.00    +0.000 OA
BRANCH  16  18
ATOM     17  C   UNL     1      -0.779  10.058  23.223  0.00  0.00    +0.000 C 
ATOM     18  C   UNL     1      -0.636  11.225  22.250  0.00  0.00    +0.000 C 
ATOM     19  C   UNL     1      -1.059  12.532  22.907  0.00  0.00    +0.000 C 
ENDBRANCH  16  18
ENDBRANCH  14  16
ENDBRANCH  12  14
ENDBRANCH   7  13
ENDBRANCH   1  10
BRANCH   5  20
ATOM     20  C   UNL     1       2.227   3.537  21.042  0.00  0.00    +0.000 C 
ATOM     21  F   UNL     1       2.431   4.032  22.295  0.00  0.00    +0.000 F 
ATOM     22  F   UNL     1       0.881   3.336  20.938  0.00  0.00    +0.000 F 
ATOM     23  F   UNL     1       2.782   2.289  21.044  0.00  0.00    +0.000 F 
ENDBRANCH   5  20
BRANCH   3  24
ATOM     24  O   UNL     1       4.996   4.176  17.113  0.00  0.00    +0.000 OA
BRANCH  24  25
ATOM     25  C   UNL     1       6.102   5.042  16.822  0.00  0.00    +0.000 C 
ATOM     26  C   UNL     1       7.279   4.723  17.745  0.00  0.00    +0.000 C 
ATOM     27  C   UNL     1       6.509   4.774  15.373  0.00  0.00    +0.000 C 
ENDBRANCH  24  25
ENDBRANCH   3  24
TORSDOF 8
ENDMDL
