MODEL 1
REMARK VINA RESULT:      -8.5      0.000      0.000
REMARK  Name = 
REMARK  9 active torsions:
REMARK  status: ('A' for Active; 'I' for Inactive)
REMARK    1  A    between atoms: C_1  and  O_2
REMARK    2  A    between atoms: O_2  and  C_3
REMARK    3  A    between atoms: C_5  and  C_6
REMARK    4  A    between atoms: C_6  and  N_7
REMARK    5  A    between atoms: N_7  and  C_8
REMARK    6  A    between atoms: C_9  and  C_11
REMARK    7  A    between atoms: C_14  and  C_15
REMARK    8  A    between atoms: C_15  and  C_16
REMARK    9  A    between atoms: C_26  and  O_27
REMARK                            x       y       z     vdW  Elec       q    Type
REMARK                         _______ _______ _______ _____ _____    ______ ____
ROOT
ATOM      1  C   UNL     1       2.211   6.528  19.104  0.00  0.00    +0.000 A 
ATOM      2  C   UNL     1       3.225   6.516  18.102  0.00  0.00    +0.000 A 
ATOM      3  C   UNL     1       3.712   5.292  17.576  0.00  0.00    +0.000 A 
ATOM      4  C   UNL     1       4.725   4.853  16.659  0.00  0.00    +0.000 A 
ATOM      5  N   UNL     1       4.782   3.511  16.593  0.00  0.00    +0.000 NA
ATOM      6  N   UNL     1       3.814   3.101  17.416  0.00  0.00    +0.000 N 
ATOM      7  C   UNL     1       3.147   4.114  18.048  0.00  0.00    +0.000 A 
ATOM      8  C   UNL     1       2.140   4.076  19.014  0.00  0.00    +0.000 A 
ATOM      9  C   UNL     1       1.720   5.297  19.564  0.00  0.00    +0.000 A 
ATOM     10  H   UNL     1       3.687   2.104  17.540  0.00  0.00    +0.000 HD
ENDROOT
BRANCH   1  13
ATOM     11  N   UNL     1       1.712   9.050  18.970  0.00  0.00    +0.000 N 
ATOM     12  C   UNL     1       2.012   9.204  17.555  0.00  0.00    +0.000 C 
ATOM     13  C   UNL     1       1.870   7.866  19.715  0.00  0.00    +0.000 C 
ATOM     14  O   UNL     1       1.751   7.878  20.944  0.00  0.00    +0.000 OA
BRANCH  11  15
ATOM     15  C   UNL     1       1.090  10.217  19.625  0.00  0.00    +0.000 C 
BRANCH  15  18
ATOM     16  C   UNL     1      -2.149  10.177  17.564  0.00  0.00    +0.000 A 
ATOM     17  C   UNL     1      -0.852   9.900  18.017  0.00  0.00    +0.000 A 
ATOM     18  C   UNL     1      -0.314  10.544  19.142  0.00  0.00    +0.000 A 
ATOM     19  C   UNL     1      -1.075  11.545  19.765  0.00  0.00    +0.000 A 
ATOM     20  C   UNL     1      -2.368  11.838  19.319  0.00  0.00    +0.000 A 
ATOM     21  C   UNL     1      -2.908  11.146  18.234  0.00  0.00    +0.000 A 
ATOM     22 CL   UNL     1      -4.536  11.501  17.765  0.00  0.00    +0.000 Cl
BRANCH  16  24
ATOM     23  C   UNL     1      -2.739  10.341  15.271  0.00  0.00    +0.000 C 
ATOM     24  O   UNL     1      -2.717   9.576  16.470  0.00  0.00    +0.000 OA
ENDBRANCH  16  24
ENDBRANCH  15  18
ENDBRANCH  11  15
ENDBRANCH   1  13
BRANCH   9  25
ATOM     25  O   UNL     1       0.855   5.227  20.623  0.00  0.00    +0.000 OA
ATOM     26  H   UNL     1       0.372   6.067  20.705  0.00  0.00    +0.000 HD
ENDBRANCH   9  25
BRANCH   4  27
ATOM     27  C   UNL     1       5.744   5.650  15.910  0.00  0.00    +0.000 C 
BRANCH  27  28
ATOM     28  C   UNL     1       6.702   6.240  16.920  0.00  0.00    +0.000 A 
ATOM     29  C   UNL     1       7.032   7.601  16.871  0.00  0.00    +0.000 A 
ATOM     30  C   UNL     1       7.857   8.169  17.845  0.00  0.00    +0.000 A 
ATOM     31  C   UNL     1       8.375   7.380  18.871  0.00  0.00    +0.000 A 
ATOM     32  C   UNL     1       8.072   6.021  18.922  0.00  0.00    +0.000 A 
ATOM     33  C   UNL     1       7.241   5.447  17.953  0.00  0.00    +0.000 A 
ENDBRANCH  27  28
ENDBRANCH   4  27
TORSDOF 7
ENDMDL
MODEL 2
REMARK VINA RESULT:      -8.5      0.939      1.847
REMARK  Name = 
REMARK  9 active torsions:
REMARK  status: ('A' for Active; 'I' for Inactive)
REMARK    1  A    between atoms: C_1  and  O_2
REMARK    2  A    between atoms: O_2  and  C_3
REMARK    3  A    between atoms: C_5  and  C_6
REMARK    4  A    between atoms: C_6  and  N_7
REMARK    5  A    between atoms: N_7  and  C_8
REMARK    6  A    between atoms: C_9  and  C_11
REMARK    7  A    between atoms: C_14  and  C_15
REMARK    8  A    between atoms: C_15  and  C_16
REMARK    9  A    between atoms: C_26  and  O_27
REMARK                            x       y       z     vdW  Elec       q    Type
REMARK                         _______ _______ _______ _____ _____    ______ ____
ROOT
ATOM      1  C   UNL     1       2.261   6.167  19.167  0.00  0.00    +0.000 A 
ATOM      2  C   UNL     1       3.282   6.213  18.173  0.00  0.00    +0.000 A 
ATOM      3  C   UNL     1       3.823   5.019  17.631  0.00  0.00    +0.000 A 
ATOM      4  C   UNL     1       4.861   4.638  16.715  0.00  0.00    +0.000 A 
ATOM      5  N   UNL     1       4.975   3.301  16.628  0.00  0.00    +0.000 NA
ATOM      6  N   UNL     1       4.018   2.838  17.436  0.00  0.00    +0.000 N 
ATOM      7  C   UNL     1       3.304   3.811  18.079  0.00  0.00    +0.000 A 
ATOM      8  C   UNL     1       2.292   3.715  19.036  0.00  0.00    +0.000 A 
ATOM      9  C   UNL     1       1.818   4.908  19.603  0.00  0.00    +0.000 A 
ATOM     10  H   UNL     1       3.931   1.834  17.543  0.00  0.00    +0.000 HD
ENDROOT
BRANCH   1  13
ATOM     11  N   UNL     1       1.776   8.694  19.091  0.00  0.00    +0.000 N 
ATOM     12  C   UNL     1       2.215   8.906  17.720  0.00  0.00    +0.000 C 
ATOM     13  C   UNL     1       1.860   7.479  19.796  0.00  0.00    +0.000 C 
ATOM     14  O   UNL     1       1.619   7.439  21.007  0.00  0.00    +0.000 OA
BRANCH  11  15
ATOM     15  C   UNL     1       1.091   9.834  19.729  0.00  0.00    +0.000 C 
BRANCH  15  18
ATOM     16  C   UNL     1      -2.292  11.538  19.108  0.00  0.00    +0.000 A 
ATOM     17  C   UNL     1      -1.089  11.139  19.705  0.00  0.00    +0.000 A 
ATOM     18  C   UNL     1      -0.217  10.241  19.069  0.00  0.00    +0.000 A 
ATOM     19  C   UNL     1      -0.614   9.676  17.848  0.00  0.00    +0.000 A 
ATOM     20  C   UNL     1      -1.817  10.059  17.244  0.00  0.00    +0.000 A 
ATOM     21  C   UNL     1      -2.644  10.997  17.864  0.00  0.00    +0.000 A 
ATOM     22 CL   UNL     1      -4.087  11.485  17.042  0.00  0.00    +0.000 Cl
BRANCH  16  24
ATOM     23  C   UNL     1      -2.611  13.449  20.480  0.00  0.00    +0.000 C 
ATOM     24  O   UNL     1      -3.177  12.411  19.689  0.00  0.00    +0.000 OA
ENDBRANCH  16  24
ENDBRANCH  15  18
ENDBRANCH  11  15
ENDBRANCH   1  13
BRANCH   9  25
ATOM     25  O   UNL     1       0.948   4.785  20.653  0.00  0.00    +0.000 OA
ATOM     26  H   UNL     1       0.672   5.668  20.952  0.00  0.00    +0.000 HD
ENDBRANCH   9  25
BRANCH   4  27
ATOM     27  C   UNL     1       5.851   5.489  15.988  0.00  0.00    +0.000 C 
BRANCH  27  28
ATOM     28  C   UNL     1       6.708   6.185  17.021  0.00  0.00    +0.000 A 
ATOM     29  C   UNL     1       7.216   5.471  18.116  0.00  0.00    +0.000 A 
ATOM     30  C   UNL     1       8.069   6.088  19.034  0.00  0.00    +0.000 A 
ATOM     31  C   UNL     1       8.412   7.431  18.879  0.00  0.00    +0.000 A 
ATOM     32  C   UNL     1       7.899   8.159  17.807  0.00  0.00    +0.000 A 
ATOM     33  C   UNL     1       7.049   7.545  16.880  0.00  0.00    +0.000 A 
ENDBRANCH  27  28
ENDBRANCH   4  27
TORSDOF 7
ENDMDL
MODEL 3
REMARK VINA RESULT:      -8.3      2.533      3.736
REMARK  Name = 
REMARK  9 active torsions:
REMARK  status: ('A' for Active; 'I' for Inactive)
REMARK    1  A    between atoms: C_1  and  O_2
REMARK    2  A    between atoms: O_2  and  C_3
REMARK    3  A    between atoms: C_5  and  C_6
REMARK    4  A    between atoms: C_6  and  N_7
REMARK    5  A    between atoms: N_7  and  C_8
REMARK    6  A    between atoms: C_9  and  C_11
REMARK    7  A    between atoms: C_14  and  C_15
REMARK    8  A    between atoms: C_15  and  C_16
REMARK    9  A    between atoms: C_26  and  O_27
REMARK                            x       y       z     vdW  Elec       q    Type
REMARK                         _______ _______ _______ _____ _____    ______ ____
ROOT
ATOM      1  C   UNL     1       0.783   9.469  19.663  0.00  0.00    +0.000 A 
ATOM      2  C   UNL     1       1.628   8.926  18.652  0.00  0.00    +0.000 A 
ATOM      3  C   UNL     1       2.333   7.714  18.867  0.00  0.00    +0.000 A 
ATOM      4  C   UNL     1       3.295   6.903  18.176  0.00  0.00    +0.000 A 
ATOM      5  N   UNL     1       3.678   5.850  18.920  0.00  0.00    +0.000 NA
ATOM      6  N   UNL     1       2.959   5.963  20.040  0.00  0.00    +0.000 N 
ATOM      7  C   UNL     1       2.147   7.063  20.080  0.00  0.00    +0.000 A 
ATOM      8  C   UNL     1       1.317   7.545  21.093  0.00  0.00    +0.000 A 
ATOM      9  C   UNL     1       0.681   8.777  20.881  0.00  0.00    +0.000 A 
ATOM     10  H   UNL     1       3.103   5.273  20.768  0.00  0.00    +0.000 HD
ENDROOT
BRANCH   1  13
ATOM     11  N   UNL     1      -0.957  11.065  18.639  0.00  0.00    +0.000 N 
ATOM     12  C   UNL     1      -1.659  10.062  17.852  0.00  0.00    +0.000 C 
ATOM     13  C   UNL     1       0.201  10.837  19.406  0.00  0.00    +0.000 C 
ATOM     14  O   UNL     1       0.820  11.784  19.902  0.00  0.00    +0.000 OA
BRANCH  11  15
ATOM     15  C   UNL     1      -1.598  12.392  18.705  0.00  0.00    +0.000 C 
BRANCH  15  18
ATOM     16  C   UNL     1      -5.069  12.452  20.344  0.00  0.00    +0.000 A 
ATOM     17  C   UNL     1      -4.043  12.355  19.394  0.00  0.00    +0.000 A 
ATOM     18  C   UNL     1      -2.695  12.517  19.750  0.00  0.00    +0.000 A 
ATOM     19  C   UNL     1      -2.393  12.869  21.075  0.00  0.00    +0.000 A 
ATOM     20  C   UNL     1      -3.407  12.978  22.032  0.00  0.00    +0.000 A 
ATOM     21  C   UNL     1      -4.737  12.755  21.672  0.00  0.00    +0.000 A 
ATOM     22 CL   UNL     1      -5.945  12.838  22.909  0.00  0.00    +0.000 Cl
BRANCH  16  24
ATOM     23  C   UNL     1      -6.837  10.978  19.763  0.00  0.00    +0.000 C 
ATOM     24  O   UNL     1      -6.399  12.302  20.045  0.00  0.00    +0.000 OA
ENDBRANCH  16  24
ENDBRANCH  15  18
ENDBRANCH  11  15
ENDBRANCH   1  13
BRANCH   9  25
ATOM     25  O   UNL     1       0.006   9.311  21.946  0.00  0.00    +0.000 OA
ATOM     26  H   UNL     1       0.479   9.102  22.769  0.00  0.00    +0.000 HD
ENDBRANCH   9  25
BRANCH   4  27
ATOM     27  C   UNL     1       3.976   7.137  16.866  0.00  0.00    +0.000 C 
BRANCH  27  28
ATOM     28  C   UNL     1       5.207   6.261  16.823  0.00  0.00    +0.000 A 
ATOM     29  C   UNL     1       6.339   6.594  17.580  0.00  0.00    +0.000 A 
ATOM     30  C   UNL     1       7.453   5.751  17.603  0.00  0.00    +0.000 A 
ATOM     31  C   UNL     1       7.455   4.573  16.858  0.00  0.00    +0.000 A 
ATOM     32  C   UNL     1       6.346   4.238  16.084  0.00  0.00    +0.000 A 
ATOM     33  C   UNL     1       5.224   5.075  16.061  0.00  0.00    +0.000 A 
ENDBRANCH  27  28
ENDBRANCH   4  27
TORSDOF 7
ENDMDL
MODEL 4
REMARK VINA RESULT:      -8.1      2.810      4.248
REMARK  Name = 
REMARK  9 active torsions:
REMARK  status: ('A' for Active; 'I' for Inactive)
REMARK    1  A    between atoms: C_1  and  O_2
REMARK    2  A    between atoms: O_2  and  C_3
REMARK    3  A    between atoms: C_5  and  C_6
REMARK    4  A    between atoms: C_6  and  N_7
REMARK    5  A    between atoms: N_7  and  C_8
REMARK    6  A    between atoms: C_9  and  C_11
REMARK    7  A    between atoms: C_14  and  C_15
REMARK    8  A    between atoms: C_15  and  C_16
REMARK    9  A    between atoms: C_26  and  O_27
REMARK                            x       y       z     vdW  Elec       q    Type
REMARK                         _______ _______ _______ _____ _____    ______ ____
ROOT
ATOM      1  C   UNL     1       0.705   9.478  19.873  0.00  0.00    +0.000 A 
ATOM      2  C   UNL     1       1.555   8.953  18.856  0.00  0.00    +0.000 A 
ATOM      3  C   UNL     1       2.243   7.727  19.046  0.00  0.00    +0.000 A 
ATOM      4  C   UNL     1       3.204   6.924  18.344  0.00  0.00    +0.000 A 
ATOM      5  N   UNL     1       3.565   5.846  19.064  0.00  0.00    +0.000 NA
ATOM      6  N   UNL     1       2.835   5.937  20.177  0.00  0.00    +0.000 N 
ATOM      7  C   UNL     1       2.036   7.046  20.238  0.00  0.00    +0.000 A 
ATOM      8  C   UNL     1       1.200   7.510  21.255  0.00  0.00    +0.000 A 
ATOM      9  C   UNL     1       0.580   8.755  21.070  0.00  0.00    +0.000 A 
ATOM     10  H   UNL     1       2.962   5.227  20.888  0.00  0.00    +0.000 HD
ENDROOT
BRANCH   1  13
ATOM     11  N   UNL     1      -1.016  11.120  18.890  0.00  0.00    +0.000 N 
ATOM     12  C   UNL     1      -1.737  10.144  18.086  0.00  0.00    +0.000 C 
ATOM     13  C   UNL     1       0.142  10.860  19.646  0.00  0.00    +0.000 C 
ATOM     14  O   UNL     1       0.777  11.787  20.158  0.00  0.00    +0.000 OA
BRANCH  11  15
ATOM     15  C   UNL     1      -1.637  12.455  18.987  0.00  0.00    +0.000 C 
BRANCH  15  18
ATOM     16  C   UNL     1      -3.500  12.782  22.327  0.00  0.00    +0.000 A 
ATOM     17  C   UNL     1      -2.479  12.669  21.375  0.00  0.00    +0.000 A 
ATOM     18  C   UNL     1      -2.762  12.562  20.004  0.00  0.00    +0.000 A 
ATOM     19  C   UNL     1      -4.105  12.484  19.604  0.00  0.00    +0.000 A 
ATOM     20  C   UNL     1      -5.135  12.587  20.545  0.00  0.00    +0.000 A 
ATOM     21  C   UNL     1      -4.834  12.751  21.899  0.00  0.00    +0.000 A 
ATOM     22 CL   UNL     1      -6.146  12.941  23.011  0.00  0.00    +0.000 Cl
BRANCH  16  24
ATOM     23  C   UNL     1      -2.831  14.156  24.144  0.00  0.00    +0.000 C 
ATOM     24  O   UNL     1      -3.274  12.887  23.676  0.00  0.00    +0.000 OA
ENDBRANCH  16  24
ENDBRANCH  15  18
ENDBRANCH  11  15
ENDBRANCH   1  13
BRANCH   9  25
ATOM     25  O   UNL     1      -0.100   9.267  22.142  0.00  0.00    +0.000 OA
ATOM     26  H   UNL     1      -0.079   8.630  22.876  0.00  0.00    +0.000 HD
ENDBRANCH   9  25
BRANCH   4  27
ATOM     27  C   UNL     1       3.902   7.185  17.048  0.00  0.00    +0.000 C 
BRANCH  27  28
ATOM     28  C   UNL     1       5.084   6.246  16.964  0.00  0.00    +0.000 A 
ATOM     29  C   UNL     1       4.993   5.060  16.221  0.00  0.00    +0.000 A 
ATOM     30  C   UNL     1       6.103   4.224  16.077  0.00  0.00    +0.000 A 
ATOM     31  C   UNL     1       7.313   4.555  16.686  0.00  0.00    +0.000 A 
ATOM     32  C   UNL     1       7.413   5.720  17.445  0.00  0.00    +0.000 A 
ATOM     33  C   UNL     1       6.306   6.565  17.588  0.00  0.00    +0.000 A 
ENDBRANCH  27  28
ENDBRANCH   4  27
TORSDOF 7
ENDMDL
MODEL 5
REMARK VINA RESULT:      -8.1      2.559      3.966
REMARK  Name = 
REMARK  9 active torsions:
REMARK  status: ('A' for Active; 'I' for Inactive)
REMARK    1  A    between atoms: C_1  and  O_2
REMARK    2  A    between atoms: O_2  and  C_3
REMARK    3  A    between atoms: C_5  and  C_6
REMARK    4  A    between atoms: C_6  and  N_7
REMARK    5  A    between atoms: N_7  and  C_8
REMARK    6  A    between atoms: C_9  and  C_11
REMARK    7  A    between atoms: C_14  and  C_15
REMARK    8  A    between atoms: C_15  and  C_16
REMARK    9  A    between atoms: C_26  and  O_27
REMARK                            x       y       z     vdW  Elec       q    Type
REMARK                         _______ _______ _______ _____ _____    ______ ____
ROOT
ATOM      1  C   UNL     1       0.696   9.480  19.550  0.00  0.00    +0.000 A 
ATOM      2  C   UNL     1       1.560   8.915  18.567  0.00  0.00    +0.000 A 
ATOM      3  C   UNL     1       2.305   7.739  18.843  0.00  0.00    +0.000 A 
ATOM      4  C   UNL     1       3.295   6.927  18.194  0.00  0.00    +0.000 A 
ATOM      5  N   UNL     1       3.710   5.926  18.991  0.00  0.00    +0.000 NA
ATOM      6  N   UNL     1       2.986   6.071  20.103  0.00  0.00    +0.000 N 
ATOM      7  C   UNL     1       2.138   7.145  20.088  0.00  0.00    +0.000 A 
ATOM      8  C   UNL     1       1.291   7.649  21.075  0.00  0.00    +0.000 A 
ATOM      9  C   UNL     1       0.614   8.848  20.801  0.00  0.00    +0.000 A 
ATOM     10  H   UNL     1       3.151   5.425  20.866  0.00  0.00    +0.000 HD
ENDROOT
BRANCH   1  13
ATOM     11  N   UNL     1      -1.020  10.974  18.348  0.00  0.00    +0.000 N 
ATOM     12  C   UNL     1      -1.589   9.931  17.508  0.00  0.00    +0.000 C 
ATOM     13  C   UNL     1       0.069  10.814  19.224  0.00  0.00    +0.000 C 
ATOM     14  O   UNL     1       0.587  11.795  19.767  0.00  0.00    +0.000 OA
BRANCH  11  15
ATOM     15  C   UNL     1      -1.733  12.266  18.339  0.00  0.00    +0.000 C 
BRANCH  15  18
ATOM     16  C   UNL     1      -4.172  12.732  21.267  0.00  0.00    +0.000 A 
ATOM     17  C   UNL     1      -3.000  12.689  20.501  0.00  0.00    +0.000 A 
ATOM     18  C   UNL     1      -3.016  12.290  19.155  0.00  0.00    +0.000 A 
ATOM     19  C   UNL     1      -4.229  11.847  18.605  0.00  0.00    +0.000 A 
ATOM     20  C   UNL     1      -5.406  11.876  19.361  0.00  0.00    +0.000 A 
ATOM     21  C   UNL     1      -5.380  12.331  20.680  0.00  0.00    +0.000 A 
ATOM     22 CL   UNL     1      -6.876  12.410  21.548  0.00  0.00    +0.000 Cl
BRANCH  16  24
ATOM     23  C   UNL     1      -2.948  13.279  23.226  0.00  0.00    +0.000 C 
ATOM     24  O   UNL     1      -4.207  13.113  22.584  0.00  0.00    +0.000 OA
ENDBRANCH  16  24
ENDBRANCH  15  18
ENDBRANCH  11  15
ENDBRANCH   1  13
BRANCH   9  25
ATOM     25  O   UNL     1      -0.080   9.412  21.838  0.00  0.00    +0.000 OA
ATOM     26  H   UNL     1      -0.417  10.283  21.569  0.00  0.00    +0.000 HD
ENDBRANCH   9  25
BRANCH   4  27
ATOM     27  C   UNL     1       3.969   7.117  16.874  0.00  0.00    +0.000 C 
BRANCH  27  28
ATOM     28  C   UNL     1       5.194   6.231  16.851  0.00  0.00    +0.000 A 
ATOM     29  C   UNL     1       6.327   6.569  17.603  0.00  0.00    +0.000 A 
ATOM     30  C   UNL     1       7.434   5.718  17.645  0.00  0.00    +0.000 A 
ATOM     31  C   UNL     1       7.428   4.526  16.922  0.00  0.00    +0.000 A 
ATOM     32  C   UNL     1       6.318   4.185  16.153  0.00  0.00    +0.000 A 
ATOM     33  C   UNL     1       5.203   5.030  16.112  0.00  0.00    +0.000 A 
ENDBRANCH  27  28
ENDBRANCH   4  27
TORSDOF 7
ENDMDL
MODEL 6
REMARK VINA RESULT:      -8.0      3.108      5.379
REMARK  Name = 
REMARK  9 active torsions:
REMARK  status: ('A' for Active; 'I' for Inactive)
REMARK    1  A    between atoms: C_1  and  O_2
REMARK    2  A    between atoms: O_2  and  C_3
REMARK    3  A    between atoms: C_5  and  C_6
REMARK    4  A    between atoms: C_6  and  N_7
REMARK    5  A    between atoms: N_7  and  C_8
REMARK    6  A    between atoms: C_9  and  C_11
REMARK    7  A    between atoms: C_14  and  C_15
REMARK    8  A    between atoms: C_15  and  C_16
REMARK    9  A    between atoms: C_26  and  O_27
REMARK                            x       y       z     vdW  Elec       q    Type
REMARK                         _______ _______ _______ _____ _____    ______ ____
ROOT
ATOM      1  C   UNL     1       0.865   9.162  20.164  0.00  0.00    +0.000 A 
ATOM      2  C   UNL     1       1.735   8.037  20.267  0.00  0.00    +0.000 A 
ATOM      3  C   UNL     1       2.481   7.590  19.146  0.00  0.00    +0.000 A 
ATOM      4  C   UNL     1       3.369   6.511  18.817  0.00  0.00    +0.000 A 
ATOM      5  N   UNL     1       3.741   6.555  17.525  0.00  0.00    +0.000 NA
ATOM      6  N   UNL     1       3.138   7.647  17.048  0.00  0.00    +0.000 N 
ATOM      7  C   UNL     1       2.357   8.303  17.960  0.00  0.00    +0.000 A 
ATOM      8  C   UNL     1       1.532   9.420  17.815  0.00  0.00    +0.000 A 
ATOM      9  C   UNL     1       0.757   9.803  18.920  0.00  0.00    +0.000 A 
ATOM     10  H   UNL     1       3.263   7.869  16.068  0.00  0.00    +0.000 HD
ENDROOT
BRANCH   1  13
ATOM     11  N   UNL     1      -0.079  10.730  21.974  0.00  0.00    +0.000 N 
ATOM     12  C   UNL     1       0.774  11.869  21.667  0.00  0.00    +0.000 C 
ATOM     13  C   UNL     1      -0.003   9.465  21.361  0.00  0.00    +0.000 C 
ATOM     14  O   UNL     1      -0.654   8.514  21.804  0.00  0.00    +0.000 OA
BRANCH  11  15
ATOM     15  C   UNL     1      -1.172  10.986  22.931  0.00  0.00    +0.000 C 
BRANCH  15  18
ATOM     16  C   UNL     1      -4.251  13.277  22.849  0.00  0.00    +0.000 A 
ATOM     17  C   UNL     1      -3.255  12.396  23.291  0.00  0.00    +0.000 A 
ATOM     18  C   UNL     1      -2.251  11.930  22.427  0.00  0.00    +0.000 A 
ATOM     19  C   UNL     1      -2.311  12.300  21.074  0.00  0.00    +0.000 A 
ATOM     20  C   UNL     1      -3.305  13.173  20.617  0.00  0.00    +0.000 A 
ATOM     21  C   UNL     1      -4.260  13.672  21.505  0.00  0.00    +0.000 A 
ATOM     22 CL   UNL     1      -5.426  14.800  20.902  0.00  0.00    +0.000 Cl
BRANCH  16  24
ATOM     23  C   UNL     1      -6.292  12.845  23.980  0.00  0.00    +0.000 C 
ATOM     24  O   UNL     1      -5.252  13.759  23.654  0.00  0.00    +0.000 OA
ENDBRANCH  16  24
ENDBRANCH  15  18
ENDBRANCH  11  15
ENDBRANCH   1  13
BRANCH   9  25
ATOM     25  O   UNL     1      -0.164  10.795  18.709  0.00  0.00    +0.000 OA
ATOM     26  H   UNL     1      -0.070  11.478  19.395  0.00  0.00    +0.000 HD
ENDBRANCH   9  25
BRANCH   4  27
ATOM     27  C   UNL     1       3.805   5.347  19.648  0.00  0.00    +0.000 C 
BRANCH  27  28
ATOM     28  C   UNL     1       2.823   4.221  19.414  0.00  0.00    +0.000 A 
ATOM     29  C   UNL     1       1.639   4.149  20.161  0.00  0.00    +0.000 A 
ATOM     30  C   UNL     1       0.693   3.154  19.900  0.00  0.00    +0.000 A 
ATOM     31  C   UNL     1       0.926   2.211  18.900  0.00  0.00    +0.000 A 
ATOM     32  C   UNL     1       2.107   2.257  18.163  0.00  0.00    +0.000 A 
ATOM     33  C   UNL     1       3.057   3.254  18.416  0.00  0.00    +0.000 A 
ENDBRANCH  27  28
ENDBRANCH   4  27
TORSDOF 7
ENDMDL
MODEL 7
REMARK VINA RESULT:      -8.0      3.193      4.443
REMARK  Name = 
REMARK  9 active torsions:
REMARK  status: ('A' for Active; 'I' for Inactive)
REMARK    1  A    between atoms: C_1  and  O_2
REMARK    2  A    between atoms: O_2  and  C_3
REMARK    3  A    between atoms: C_5  and  C_6
REMARK    4  A    between atoms: C_6  and  N_7
REMARK    5  A    between atoms: N_7  and  C_8
REMARK    6  A    between atoms: C_9  and  C_11
REMARK    7  A    between atoms: C_14  and  C_15
REMARK    8  A    between atoms: C_15  and  C_16
REMARK    9  A    between atoms: C_26  and  O_27
REMARK                            x       y       z     vdW  Elec       q    Type
REMARK                         _______ _______ _______ _____ _____    ______ ____
ROOT
ATOM      1  C   UNL     1       1.236   9.443  19.328  0.00  0.00    +0.000 A 
ATOM      2  C   UNL     1       1.959   8.474  18.573  0.00  0.00    +0.000 A 
ATOM      3  C   UNL     1       2.314   7.225  19.145  0.00  0.00    +0.000 A 
ATOM      4  C   UNL     1       3.065   6.058  18.776  0.00  0.00    +0.000 A 
ATOM      5  N   UNL     1       3.125   5.171  19.785  0.00  0.00    +0.000 NA
ATOM      6  N   UNL     1       2.406   5.735  20.759  0.00  0.00    +0.000 N 
ATOM      7  C   UNL     1       1.908   6.970  20.449  0.00  0.00    +0.000 A 
ATOM      8  C   UNL     1       1.183   7.880  21.221  0.00  0.00    +0.000 A 
ATOM      9  C   UNL     1       0.900   9.132  20.655  0.00  0.00    +0.000 A 
ATOM     10  H   UNL     1       2.331   5.242  21.641  0.00  0.00    +0.000 HD
ENDROOT
BRANCH   1  13
ATOM     11  N   UNL     1      -0.217  11.384  18.465  0.00  0.00    +0.000 N 
ATOM     12  C   UNL     1      -1.501  10.722  18.643  0.00  0.00    +0.000 C 
ATOM     13  C   UNL     1       1.042  10.798  18.693  0.00  0.00    +0.000 C 
ATOM     14  O   UNL     1       2.076  11.382  18.353  0.00  0.00    +0.000 OA
BRANCH  11  15
ATOM     15  C   UNL     1      -0.276  12.818  18.122  0.00  0.00    +0.000 C 
BRANCH  15  18
ATOM     16  C   UNL     1       0.169  14.226  21.665  0.00  0.00    +0.000 A 
ATOM     17  C   UNL     1      -0.153  13.378  20.597  0.00  0.00    +0.000 A 
ATOM     18  C   UNL     1       0.067  13.760  19.265  0.00  0.00    +0.000 A 
ATOM     19  C   UNL     1       0.542  15.057  19.012  0.00  0.00    +0.000 A 
ATOM     20  C   UNL     1       0.860  15.917  20.068  0.00  0.00    +0.000 A 
ATOM     21  C   UNL     1       0.689  15.498  21.389  0.00  0.00    +0.000 A 
ATOM     22 CL   UNL     1       1.161  16.577  22.657  0.00  0.00    +0.000 Cl
BRANCH  16  24
ATOM     23  C   UNL     1      -1.356  14.031  23.473  0.00  0.00    +0.000 C 
ATOM     24  O   UNL     1      -0.028  13.899  22.983  0.00  0.00    +0.000 OA
ENDBRANCH  16  24
ENDBRANCH  15  18
ENDBRANCH  11  15
ENDBRANCH   1  13
BRANCH   9  25
ATOM     25  O   UNL     1       0.336  10.066  21.483  0.00  0.00    +0.000 OA
ATOM     26  H   UNL     1       0.188  10.891  20.991  0.00  0.00    +0.000 HD
ENDBRANCH   9  25
BRANCH   4  27
ATOM     27  C   UNL     1       3.844   5.779  17.532  0.00  0.00    +0.000 C 
BRANCH  27  28
ATOM     28  C   UNL     1       5.299   6.072  17.823  0.00  0.00    +0.000 A 
ATOM     29  C   UNL     1       5.970   7.087  17.127  0.00  0.00    +0.000 A 
ATOM     30  C   UNL     1       7.291   7.413  17.443  0.00  0.00    +0.000 A 
ATOM     31  C   UNL     1       7.963   6.719  18.448  0.00  0.00    +0.000 A 
ATOM     32  C   UNL     1       7.317   5.694  19.135  0.00  0.00    +0.000 A 
ATOM     33  C   UNL     1       5.991   5.366  18.828  0.00  0.00    +0.000 A 
ENDBRANCH  27  28
ENDBRANCH   4  27
TORSDOF 7
ENDMDL
MODEL 8
REMARK VINA RESULT:      -8.0      4.027      9.908
REMARK  Name = 
REMARK  9 active torsions:
REMARK  status: ('A' for Active; 'I' for Inactive)
REMARK    1  A    between atoms: C_1  and  O_2
REMARK    2  A    between atoms: O_2  and  C_3
REMARK    3  A    between atoms: C_5  and  C_6
REMARK    4  A    between atoms: C_6  and  N_7
REMARK    5  A    between atoms: N_7  and  C_8
REMARK    6  A    between atoms: C_9  and  C_11
REMARK    7  A    between atoms: C_14  and  C_15
REMARK    8  A    between atoms: C_15  and  C_16
REMARK    9  A    between atoms: C_26  and  O_27
REMARK                            x       y       z     vdW  Elec       q    Type
REMARK                         _______ _______ _______ _____ _____    ______ ____
ROOT
ATOM      1  C   UNL     1       1.328  10.783  18.891  0.00  0.00    +0.000 A 
ATOM      2  C   UNL     1       0.435  10.811  20.001  0.00  0.00    +0.000 A 
ATOM      3  C   UNL     1       0.159  12.024  20.683  0.00  0.00    +0.000 A 
ATOM      4  C   UNL     1      -0.582  12.456  21.834  0.00  0.00    +0.000 A 
ATOM      5  N   UNL     1      -0.424  13.774  22.055  0.00  0.00    +0.000 NA
ATOM      6  N   UNL     1       0.365  14.181  21.058  0.00  0.00    +0.000 N 
ATOM      7  C   UNL     1       0.764  13.183  20.212  0.00  0.00    +0.000 A 
ATOM      8  C   UNL     1       1.631  13.209  19.118  0.00  0.00    +0.000 A 
ATOM      9  C   UNL     1       1.936  11.987  18.501  0.00  0.00    +0.000 A 
ATOM     10  H   UNL     1       0.638  15.156  21.036  0.00  0.00    +0.000 HD
ENDROOT
BRANCH   1  13
ATOM     11  N   UNL     1       1.826   8.268  19.117  0.00  0.00    +0.000 N 
ATOM     12  C   UNL     1       1.826   8.229  20.572  0.00  0.00    +0.000 C 
ATOM     13  C   UNL     1       1.681   9.427  18.331  0.00  0.00    +0.000 C 
ATOM     14  O   UNL     1       1.863   9.383  17.110  0.00  0.00    +0.000 OA
BRANCH  11  15
ATOM     15  C   UNL     1       1.873   6.958  18.440  0.00  0.00    +0.000 C 
BRANCH  15  18
ATOM     16  C   UNL     1       4.935   4.690  18.902  0.00  0.00    +0.000 A 
ATOM     17  C   UNL     1       3.660   5.254  19.040  0.00  0.00    +0.000 A 
ATOM     18  C   UNL     1       3.267   6.371  18.285  0.00  0.00    +0.000 A 
ATOM     19  C   UNL     1       4.213   6.973  17.441  0.00  0.00    +0.000 A 
ATOM     20  C   UNL     1       5.493   6.425  17.301  0.00  0.00    +0.000 A 
ATOM     21  C   UNL     1       5.846   5.280  18.016  0.00  0.00    +0.000 A 
ATOM     22 CL   UNL     1       7.418   4.605  17.753  0.00  0.00    +0.000 Cl
BRANCH  16  24
ATOM     23  C   UNL     1       4.444   2.525  19.743  0.00  0.00    +0.000 C 
ATOM     24  O   UNL     1       5.366   3.601  19.617  0.00  0.00    +0.000 OA
ENDBRANCH  16  24
ENDBRANCH  15  18
ENDBRANCH  11  15
ENDBRANCH   1  13
BRANCH   9  25
ATOM     25  O   UNL     1       2.912  12.012  17.540  0.00  0.00    +0.000 OA
ATOM     26  H   UNL     1       3.786  12.048  17.964  0.00  0.00    +0.000 HD
ENDBRANCH   9  25
BRANCH   4  27
ATOM     27  C   UNL     1      -1.356  11.652  22.827  0.00  0.00    +0.000 C 
BRANCH  27  28
ATOM     28  C   UNL     1      -2.762  12.208  22.874  0.00  0.00    +0.000 A 
ATOM     29  C   UNL     1      -3.419  12.573  21.691  0.00  0.00    +0.000 A 
ATOM     30  C   UNL     1      -4.743  13.017  21.720  0.00  0.00    +0.000 A 
ATOM     31  C   UNL     1      -5.422  13.117  22.934  0.00  0.00    +0.000 A 
ATOM     32  C   UNL     1      -4.776  12.778  24.121  0.00  0.00    +0.000 A 
ATOM     33  C   UNL     1      -3.451  12.327  24.098  0.00  0.00    +0.000 A 
ENDBRANCH  27  28
ENDBRANCH   4  27
TORSDOF 7
ENDMDL
MODEL 9
REMARK VINA RESULT:      -7.9      4.117      9.849
REMARK  Name = 
REMARK  9 active torsions:
REMARK  status: ('A' for Active; 'I' for Inactive)
REMARK    1  A    between atoms: C_1  and  O_2
REMARK    2  A    between atoms: O_2  and  C_3
REMARK    3  A    between atoms: C_5  and  C_6
REMARK    4  A    between atoms: C_6  and  N_7
REMARK    5  A    between atoms: N_7  and  C_8
REMARK    6  A    between atoms: C_9  and  C_11
REMARK    7  A    between atoms: C_14  and  C_15
REMARK    8  A    between atoms: C_15  and  C_16
REMARK    9  A    between atoms: C_26  and  O_27
REMARK                            x       y       z     vdW  Elec       q    Type
REMARK                         _______ _______ _______ _____ _____    ______ ____
ROOT
ATOM      1  C   UNL     1       1.293  10.764  18.966  0.00  0.00    +0.000 A 
ATOM      2  C   UNL     1       0.393  10.792  20.070  0.00  0.00    +0.000 A 
ATOM      3  C   UNL     1       0.074  12.013  20.718  0.00  0.00    +0.000 A 
ATOM      4  C   UNL     1      -0.687  12.452  21.853  0.00  0.00    +0.000 A 
ATOM      5  N   UNL     1      -0.573  13.779  22.040  0.00  0.00    +0.000 NA
ATOM      6  N   UNL     1       0.209  14.185  21.036  0.00  0.00    +0.000 N 
ATOM      7  C   UNL     1       0.644  13.178  20.219  0.00  0.00    +0.000 A 
ATOM      8  C   UNL     1       1.516  13.204  19.129  0.00  0.00    +0.000 A 
ATOM      9  C   UNL     1       1.864  11.975  18.547  0.00  0.00    +0.000 A 
ATOM     10  H   UNL     1       0.450  15.168  20.990  0.00  0.00    +0.000 HD
ENDROOT
BRANCH   1  13
ATOM     11  N   UNL     1       1.810   8.259  19.252  0.00  0.00    +0.000 N 
ATOM     12  C   UNL     1       1.734   8.239  20.705  0.00  0.00    +0.000 C 
ATOM     13  C   UNL     1       1.693   9.405  18.444  0.00  0.00    +0.000 C 
ATOM     14  O   UNL     1       1.939   9.348  17.235  0.00  0.00    +0.000 OA
BRANCH  11  15
ATOM     15  C   UNL     1       1.910   6.941  18.597  0.00  0.00    +0.000 C 
BRANCH  15  18
ATOM     16  C   UNL     1       5.360   6.145  17.113  0.00  0.00    +0.000 A 
ATOM     17  C   UNL     1       4.049   6.615  17.263  0.00  0.00    +0.000 A 
ATOM     18  C   UNL     1       3.327   6.409  18.449  0.00  0.00    +0.000 A 
ATOM     19  C   UNL     1       3.917   5.640  19.465  0.00  0.00    +0.000 A 
ATOM     20  C   UNL     1       5.223   5.157  19.325  0.00  0.00    +0.000 A 
ATOM     21  C   UNL     1       5.946   5.422  18.160  0.00  0.00    +0.000 A 
ATOM     22 CL   UNL     1       7.580   4.858  18.067  0.00  0.00    +0.000 Cl
BRANCH  16  24
ATOM     23  C   UNL     1       5.981   5.312  14.978  0.00  0.00    +0.000 C 
ATOM     24  O   UNL     1       6.105   6.320  15.974  0.00  0.00    +0.000 OA
ENDBRANCH  16  24
ENDBRANCH  15  18
ENDBRANCH  11  15
ENDBRANCH   1  13
BRANCH   9  25
ATOM     25  O   UNL     1       2.844  12.006  17.590  0.00  0.00    +0.000 OA
ATOM     26  H   UNL     1       3.618  12.486  17.932  0.00  0.00    +0.000 HD
ENDBRANCH   9  25
BRANCH   4  27
ATOM     27  C   UNL     1      -1.441  11.650  22.864  0.00  0.00    +0.000 C 
BRANCH  27  28
ATOM     28  C   UNL     1      -2.849  12.197  22.928  0.00  0.00    +0.000 A 
ATOM     29  C   UNL     1      -3.548  12.492  21.749  0.00  0.00    +0.000 A 
ATOM     30  C   UNL     1      -4.875  12.927  21.799  0.00  0.00    +0.000 A 
ATOM     31  C   UNL     1      -5.514  13.087  23.027  0.00  0.00    +0.000 A 
ATOM     32  C   UNL     1      -4.826  12.818  24.209  0.00  0.00    +0.000 A 
ATOM     33  C   UNL     1      -3.499  12.376  24.166  0.00  0.00    +0.000 A 
ENDBRANCH  27  28
ENDBRANCH   4  27
TORSDOF 7
ENDMDL
