MODEL 1
REMARK VINA RESULT:      -8.7      0.000      0.000
REMARK  Name = 
REMARK  7 active torsions:
REMARK  status: ('A' for Active; 'I' for Inactive)
REMARK    1  A    between atoms: C_9  and  C_10
REMARK    2  A    between atoms: C_10  and  C_11
REMARK    3  A    between atoms: C_14  and  O_15
REMARK    4  A    between atoms: O_15  and  C_16
REMARK    5  A    between atoms: C_16  and  C_17
REMARK    6  A    between atoms: C_17  and  O_18
REMARK    7  A    between atoms: O_18  and  C_19
REMARK                            x       y       z     vdW  Elec       q    Type
REMARK                         _______ _______ _______ _____ _____    ______ ____
ROOT
ATOM      1  C   UNL     1       3.898   5.028  17.379  0.00  0.00    +0.000 A 
ATOM      2  C   UNL     1       5.089   4.413  16.983  0.00  0.00    +0.000 A 
ATOM      3  C   UNL     1       6.257   5.159  16.819  0.00  0.00    +0.000 A 
ATOM      4  C   UNL     1       6.248   6.538  17.025  0.00  0.00    +0.000 A 
ATOM      5  C   UNL     1       5.060   7.159  17.416  0.00  0.00    +0.000 A 
ATOM      6  C   UNL     1       3.890   6.412  17.591  0.00  0.00    +0.000 A 
ENDROOT
BRANCH   1   7
ATOM      7  C   UNL     1       2.653   4.196  17.565  0.00  0.00    +0.000 C 
BRANCH   7  16
ATOM      8  O   UNL     1       0.583   2.149  18.373  0.00  0.00    +0.000 OA
ATOM      9  C   UNL     1       1.294   2.792  19.140  0.00  0.00    +0.000 C 
ATOM     10  C   UNL     1       0.860   3.172  20.543  0.00  0.00    +0.000 C 
ATOM     11  C   UNL     1       1.838   2.468  21.487  0.00  0.00    +0.000 C 
ATOM     12  C   UNL     1       3.283   2.858  21.117  0.00  0.00    +0.000 C 
ATOM     13  N   UNL     1       3.312   3.870  20.034  0.00  0.00    +0.000 NA
ATOM     14  C   UNL     1       2.533   5.042  20.479  0.00  0.00    +0.000 C 
ATOM     15  C   UNL     1       1.045   4.693  20.637  0.00  0.00    +0.000 C 
ATOM     16  C   UNL     1       2.712   3.264  18.793  0.00  0.00    +0.000 C 
ENDBRANCH   7  16
ENDBRANCH   1   7
BRANCH   4  17
ATOM     17  O   UNL     1       7.322   7.374  16.865  0.00  0.00    +0.000 OA
BRANCH  17  18
ATOM     18  C   UNL     1       8.050   7.741  18.040  0.00  0.00    +0.000 C 
BRANCH  18  19
ATOM     19  C   UNL     1       8.256   9.254  18.126  0.00  0.00    +0.000 C 
BRANCH  19  20
ATOM     20  O   UNL     1       9.069   9.540  19.266  0.00  0.00    +0.000 OA
BRANCH  20  21
ATOM     21  C   UNL     1       9.764  10.718  19.217  0.00  0.00    +0.000 A 
ATOM     22  C   UNL     1      10.014  11.204  17.931  0.00  0.00    +0.000 A 
ATOM     23  C   UNL     1      10.724  12.391  17.750  0.00  0.00    +0.000 A 
ATOM     24  C   UNL     1      11.172  13.111  18.857  0.00  0.00    +0.000 A 
ATOM     25  C   UNL     1      10.900  12.644  20.142  0.00  0.00    +0.000 A 
ATOM     26  C   UNL     1      10.195  11.452  20.323  0.00  0.00    +0.000 A 
ENDBRANCH  20  21
ENDBRANCH  19  20
ENDBRANCH  18  19
ENDBRANCH  17  18
ENDBRANCH   4  17
TORSDOF 7
ENDMDL
MODEL 2
REMARK VINA RESULT:      -8.4      1.420      1.924
REMARK  Name = 
REMARK  7 active torsions:
REMARK  status: ('A' for Active; 'I' for Inactive)
REMARK    1  A    between atoms: C_9  and  C_10
REMARK    2  A    between atoms: C_10  and  C_11
REMARK    3  A    between atoms: C_14  and  O_15
REMARK    4  A    between atoms: O_15  and  C_16
REMARK    5  A    between atoms: C_16  and  C_17
REMARK    6  A    between atoms: C_17  and  O_18
REMARK    7  A    between atoms: O_18  and  C_19
REMARK                            x       y       z     vdW  Elec       q    Type
REMARK                         _______ _______ _______ _____ _____    ______ ____
ROOT
ATOM      1  C   UNL     1       5.167   4.990  17.704  0.00  0.00    +0.000 A 
ATOM      2  C   UNL     1       5.084   5.823  16.585  0.00  0.00    +0.000 A 
ATOM      3  C   UNL     1       6.046   6.808  16.357  0.00  0.00    +0.000 A 
ATOM      4  C   UNL     1       7.095   6.993  17.257  0.00  0.00    +0.000 A 
ATOM      5  C   UNL     1       7.180   6.166  18.379  0.00  0.00    +0.000 A 
ATOM      6  C   UNL     1       6.222   5.171  18.606  0.00  0.00    +0.000 A 
ENDROOT
BRANCH   1   7
ATOM      7  C   UNL     1       4.123   3.922  17.919  0.00  0.00    +0.000 C 
BRANCH   7  16
ATOM      8  O   UNL     1       4.360   2.114  20.328  0.00  0.00    +0.000 OA
ATOM      9  C   UNL     1       3.346   2.708  19.974  0.00  0.00    +0.000 C 
ATOM     10  C   UNL     1       1.948   2.182  20.237  0.00  0.00    +0.000 C 
ATOM     11  C   UNL     1       1.281   3.213  21.151  0.00  0.00    +0.000 C 
ATOM     12  C   UNL     1       1.346   4.605  20.493  0.00  0.00    +0.000 C 
ATOM     13  N   UNL     1       1.937   4.537  19.135  0.00  0.00    +0.000 NA
ATOM     14  C   UNL     1       1.132   3.596  18.331  0.00  0.00    +0.000 C 
ATOM     15  C   UNL     1       1.248   2.162  18.872  0.00  0.00    +0.000 C 
ATOM     16  C   UNL     1       3.361   4.063  19.253  0.00  0.00    +0.000 C 
ENDBRANCH   7  16
ENDBRANCH   1   7
BRANCH   4  17
ATOM     17  O   UNL     1       8.076   7.943  17.153  0.00  0.00    +0.000 OA
BRANCH  17  18
ATOM     18  C   UNL     1       7.861   9.187  17.824  0.00  0.00    +0.000 C 
BRANCH  18  19
ATOM     19  C   UNL     1       8.940   9.456  18.874  0.00  0.00    +0.000 C 
BRANCH  19  20
ATOM     20  O   UNL     1       8.920  10.846  19.204  0.00  0.00    +0.000 OA
BRANCH  20  21
ATOM     21  C   UNL     1      10.050  11.547  18.879  0.00  0.00    +0.000 A 
ATOM     22  C   UNL     1       9.939  12.353  17.744  0.00  0.00    +0.000 A 
ATOM     23  C   UNL     1      11.026  13.109  17.304  0.00  0.00    +0.000 A 
ATOM     24  C   UNL     1      12.227  13.078  18.011  0.00  0.00    +0.000 A 
ATOM     25  C   UNL     1      12.333  12.298  19.161  0.00  0.00    +0.000 A 
ATOM     26  C   UNL     1      11.247  11.535  19.597  0.00  0.00    +0.000 A 
ENDBRANCH  20  21
ENDBRANCH  19  20
ENDBRANCH  18  19
ENDBRANCH  17  18
ENDBRANCH   4  17
TORSDOF 7
ENDMDL
MODEL 3
REMARK VINA RESULT:      -8.3      1.591      2.243
REMARK  Name = 
REMARK  7 active torsions:
REMARK  status: ('A' for Active; 'I' for Inactive)
REMARK    1  A    between atoms: C_9  and  C_10
REMARK    2  A    between atoms: C_10  and  C_11
REMARK    3  A    between atoms: C_14  and  O_15
REMARK    4  A    between atoms: O_15  and  C_16
REMARK    5  A    between atoms: C_16  and  C_17
REMARK    6  A    between atoms: C_17  and  O_18
REMARK    7  A    between atoms: O_18  and  C_19
REMARK                            x       y       z     vdW  Elec       q    Type
REMARK                         _______ _______ _______ _____ _____    ______ ____
ROOT
ATOM      1  C   UNL     1       5.707   4.983  17.927  0.00  0.00    +0.000 A 
ATOM      2  C   UNL     1       5.656   6.119  17.114  0.00  0.00    +0.000 A 
ATOM      3  C   UNL     1       6.598   7.139  17.253  0.00  0.00    +0.000 A 
ATOM      4  C   UNL     1       7.595   7.051  18.224  0.00  0.00    +0.000 A 
ATOM      5  C   UNL     1       7.649   5.921  19.042  0.00  0.00    +0.000 A 
ATOM      6  C   UNL     1       6.711   4.892  18.899  0.00  0.00    +0.000 A 
ENDROOT
BRANCH   1   7
ATOM      7  C   UNL     1       4.686   3.887  17.745  0.00  0.00    +0.000 C 
BRANCH   7  16
ATOM      8  O   UNL     1       3.686   1.129  18.465  0.00  0.00    +0.000 OA
ATOM      9  C   UNL     1       3.180   2.190  18.817  0.00  0.00    +0.000 C 
ATOM     10  C   UNL     1       1.696   2.345  19.090  0.00  0.00    +0.000 C 
ATOM     11  C   UNL     1       1.580   2.709  20.572  0.00  0.00    +0.000 C 
ATOM     12  C   UNL     1       2.436   3.957  20.865  0.00  0.00    +0.000 C 
ATOM     13  N   UNL     1       3.040   4.505  19.626  0.00  0.00    +0.000 NA
ATOM     14  C   UNL     1       1.948   4.808  18.679  0.00  0.00    +0.000 C 
ATOM     15  C   UNL     1       1.235   3.525  18.223  0.00  0.00    +0.000 C 
ATOM     16  C   UNL     1       3.979   3.478  19.054  0.00  0.00    +0.000 C 
ENDBRANCH   7  16
ENDBRANCH   1   7
BRANCH   4  17
ATOM     17  O   UNL     1       8.551   8.000  18.472  0.00  0.00    +0.000 OA
BRANCH  17  18
ATOM     18  C   UNL     1       8.285   9.334  18.031  0.00  0.00    +0.000 C 
BRANCH  18  19
ATOM     19  C   UNL     1       9.169  10.353  18.751  0.00  0.00    +0.000 C 
BRANCH  19  20
ATOM     20  O   UNL     1      10.027  10.972  17.791  0.00  0.00    +0.000 OA
BRANCH  20  21
ATOM     21  C   UNL     1      10.011  12.341  17.777  0.00  0.00    +0.000 A 
ATOM     22  C   UNL     1      11.148  12.941  17.233  0.00  0.00    +0.000 A 
ATOM     23  C   UNL     1      11.255  14.331  17.173  0.00  0.00    +0.000 A 
ATOM     24  C   UNL     1      10.213  15.129  17.641  0.00  0.00    +0.000 A 
ATOM     25  C   UNL     1       9.063  14.535  18.158  0.00  0.00    +0.000 A 
ATOM     26  C   UNL     1       8.959  13.143  18.224  0.00  0.00    +0.000 A 
ENDBRANCH  20  21
ENDBRANCH  19  20
ENDBRANCH  18  19
ENDBRANCH  17  18
ENDBRANCH   4  17
TORSDOF 7
ENDMDL
MODEL 4
REMARK VINA RESULT:      -8.2      0.456      1.041
REMARK  Name = 
REMARK  7 active torsions:
REMARK  status: ('A' for Active; 'I' for Inactive)
REMARK    1  A    between atoms: C_9  and  C_10
REMARK    2  A    between atoms: C_10  and  C_11
REMARK    3  A    between atoms: C_14  and  O_15
REMARK    4  A    between atoms: O_15  and  C_16
REMARK    5  A    between atoms: C_16  and  C_17
REMARK    6  A    between atoms: C_17  and  O_18
REMARK    7  A    between atoms: O_18  and  C_19
REMARK                            x       y       z     vdW  Elec       q    Type
REMARK                         _______ _______ _______ _____ _____    ______ ____
ROOT
ATOM      1  C   UNL     1       3.864   4.723  17.334  0.00  0.00    +0.000 A 
ATOM      2  C   UNL     1       3.706   6.110  17.414  0.00  0.00    +0.000 A 
ATOM      3  C   UNL     1       4.807   6.960  17.310  0.00  0.00    +0.000 A 
ATOM      4  C   UNL     1       6.090   6.438  17.149  0.00  0.00    +0.000 A 
ATOM      5  C   UNL     1       6.254   5.054  17.073  0.00  0.00    +0.000 A 
ATOM      6  C   UNL     1       5.151   4.198  17.167  0.00  0.00    +0.000 A 
ENDROOT
BRANCH   1   7
ATOM      7  C   UNL     1       2.654   3.827  17.433  0.00  0.00    +0.000 C 
BRANCH   7  16
ATOM      8  O   UNL     1       0.355   2.122  18.403  0.00  0.00    +0.000 OA
ATOM      9  C   UNL     1       1.159   2.718  19.116  0.00  0.00    +0.000 C 
ATOM     10  C   UNL     1       0.805   3.243  20.494  0.00  0.00    +0.000 C 
ATOM     11  C   UNL     1       1.704   2.483  21.472  0.00  0.00    +0.000 C 
ATOM     12  C   UNL     1       3.179   2.657  21.061  0.00  0.00    +0.000 C 
ATOM     13  N   UNL     1       3.316   3.583  19.910  0.00  0.00    +0.000 NA
ATOM     14  C   UNL     1       2.702   4.873  20.283  0.00  0.00    +0.000 C 
ATOM     15  C   UNL     1       1.185   4.730  20.481  0.00  0.00    +0.000 C 
ATOM     16  C   UNL     1       2.618   2.978  18.721  0.00  0.00    +0.000 C 
ENDBRANCH   7  16
ENDBRANCH   1   7
BRANCH   4  17
ATOM     17  O   UNL     1       7.244   7.171  17.066  0.00  0.00    +0.000 OA
BRANCH  17  18
ATOM     18  C   UNL     1       7.207   8.514  17.555  0.00  0.00    +0.000 C 
BRANCH  18  19
ATOM     19  C   UNL     1       8.614   9.072  17.777  0.00  0.00    +0.000 C 
BRANCH  19  20
ATOM     20  O   UNL     1       8.638   9.769  19.023  0.00  0.00    +0.000 OA
BRANCH  20  21
ATOM     21  C   UNL     1       9.653  10.675  19.176  0.00  0.00    +0.000 A 
ATOM     22  C   UNL     1      10.261  11.088  17.989  0.00  0.00    +0.000 A 
ATOM     23  C   UNL     1      11.316  12.000  18.015  0.00  0.00    +0.000 A 
ATOM     24  C   UNL     1      11.756  12.521  19.231  0.00  0.00    +0.000 A 
ATOM     25  C   UNL     1      11.133  12.134  20.416  0.00  0.00    +0.000 A 
ATOM     26  C   UNL     1      10.081  11.215  20.390  0.00  0.00    +0.000 A 
ENDBRANCH  20  21
ENDBRANCH  19  20
ENDBRANCH  18  19
ENDBRANCH  17  18
ENDBRANCH   4  17
TORSDOF 7
ENDMDL
MODEL 5
REMARK VINA RESULT:      -8.1      5.445      8.275
REMARK  Name = 
REMARK  7 active torsions:
REMARK  status: ('A' for Active; 'I' for Inactive)
REMARK    1  A    between atoms: C_9  and  C_10
REMARK    2  A    between atoms: C_10  and  C_11
REMARK    3  A    between atoms: C_14  and  O_15
REMARK    4  A    between atoms: O_15  and  C_16
REMARK    5  A    between atoms: C_16  and  C_17
REMARK    6  A    between atoms: C_17  and  O_18
REMARK    7  A    between atoms: O_18  and  C_19
REMARK                            x       y       z     vdW  Elec       q    Type
REMARK                         _______ _______ _______ _____ _____    ______ ____
ROOT
ATOM      1  C   UNL     1       2.079   7.178  19.749  0.00  0.00    +0.000 A 
ATOM      2  C   UNL     1       1.488   8.014  20.701  0.00  0.00    +0.000 A 
ATOM      3  C   UNL     1       1.093   9.309  20.365  0.00  0.00    +0.000 A 
ATOM      4  C   UNL     1       1.304   9.800  19.077  0.00  0.00    +0.000 A 
ATOM      5  C   UNL     1       1.898   8.971  18.124  0.00  0.00    +0.000 A 
ATOM      6  C   UNL     1       2.287   7.668  18.454  0.00  0.00    +0.000 A 
ENDROOT
BRANCH   1   7
ATOM      7  C   UNL     1       2.483   5.775  20.135  0.00  0.00    +0.000 C 
BRANCH   7  16
ATOM      8  O   UNL     1       0.617   3.400  20.040  0.00  0.00    +0.000 OA
ATOM      9  C   UNL     1       1.730   3.461  19.523  0.00  0.00    +0.000 C 
ATOM     10  C   UNL     1       2.616   2.245  19.330  0.00  0.00    +0.000 C 
ATOM     11  C   UNL     1       2.790   2.093  17.817  0.00  0.00    +0.000 C 
ATOM     12  C   UNL     1       3.338   3.407  17.226  0.00  0.00    +0.000 C 
ATOM     13  N   UNL     1       3.634   4.398  18.288  0.00  0.00    +0.000 NA
ATOM     14  C   UNL     1       4.593   3.788  19.231  0.00  0.00    +0.000 C 
ATOM     15  C   UNL     1       3.960   2.603  19.978  0.00  0.00    +0.000 C 
ATOM     16  C   UNL     1       2.349   4.757  18.983  0.00  0.00    +0.000 C 
ENDBRANCH   7  16
ENDBRANCH   1   7
BRANCH   4  17
ATOM     17  O   UNL     1       0.986  11.059  18.643  0.00  0.00    +0.000 OA
BRANCH  17  18
ATOM     18  C   UNL     1       0.388  11.950  19.588  0.00  0.00    +0.000 C 
BRANCH  18  19
ATOM     19  C   UNL     1      -1.035  12.334  19.179  0.00  0.00    +0.000 C 
BRANCH  19  20
ATOM     20  O   UNL     1      -1.829  11.148  19.122  0.00  0.00    +0.000 OA
BRANCH  20  21
ATOM     21  C   UNL     1      -2.549  10.973  17.971  0.00  0.00    +0.000 A 
ATOM     22  C   UNL     1      -1.979  10.098  17.044  0.00  0.00    +0.000 A 
ATOM     23  C   UNL     1      -2.612   9.846  15.827  0.00  0.00    +0.000 A 
ATOM     24  C   UNL     1      -3.833  10.453  15.539  0.00  0.00    +0.000 A 
ATOM     25  C   UNL     1      -4.421  11.304  16.473  0.00  0.00    +0.000 A 
ATOM     26  C   UNL     1      -3.783  11.562  17.689  0.00  0.00    +0.000 A 
ENDBRANCH  20  21
ENDBRANCH  19  20
ENDBRANCH  18  19
ENDBRANCH  17  18
ENDBRANCH   4  17
TORSDOF 7
ENDMDL
MODEL 6
REMARK VINA RESULT:      -8.1      5.613      8.538
REMARK  Name = 
REMARK  7 active torsions:
REMARK  status: ('A' for Active; 'I' for Inactive)
REMARK    1  A    between atoms: C_9  and  C_10
REMARK    2  A    between atoms: C_10  and  C_11
REMARK    3  A    between atoms: C_14  and  O_15
REMARK    4  A    between atoms: O_15  and  C_16
REMARK    5  A    between atoms: C_16  and  C_17
REMARK    6  A    between atoms: C_17  and  O_18
REMARK    7  A    between atoms: O_18  and  C_19
REMARK                            x       y       z     vdW  Elec       q    Type
REMARK                         _______ _______ _______ _____ _____    ______ ____
ROOT
ATOM      1  C   UNL     1       1.996   7.734  19.240  0.00  0.00    +0.000 A 
ATOM      2  C   UNL     1       1.453   8.334  20.380  0.00  0.00    +0.000 A 
ATOM      3  C   UNL     1       1.042   9.667  20.357  0.00  0.00    +0.000 A 
ATOM      4  C   UNL     1       1.189  10.431  19.200  0.00  0.00    +0.000 A 
ATOM      5  C   UNL     1       1.735   9.838  18.060  0.00  0.00    +0.000 A 
ATOM      6  C   UNL     1       2.139   8.499  18.076  0.00  0.00    +0.000 A 
ENDROOT
BRANCH   1   7
ATOM      7  C   UNL     1       2.416   6.285  19.287  0.00  0.00    +0.000 C 
BRANCH   7  16
ATOM      8  O   UNL     1       1.530   4.083  17.419  0.00  0.00    +0.000 OA
ATOM      9  C   UNL     1       2.693   4.387  17.669  0.00  0.00    +0.000 C 
ATOM     10  C   UNL     1       3.831   3.386  17.638  0.00  0.00    +0.000 C 
ATOM     11  C   UNL     1       4.776   3.863  16.532  0.00  0.00    +0.000 C 
ATOM     12  C   UNL     1       5.191   5.323  16.802  0.00  0.00    +0.000 C 
ATOM     13  N   UNL     1       4.648   5.812  18.092  0.00  0.00    +0.000 NA
ATOM     14  C   UNL     1       5.120   4.909  19.160  0.00  0.00    +0.000 C 
ATOM     15  C   UNL     1       4.523   3.502  19.003  0.00  0.00    +0.000 C 
ATOM     16  C   UNL     1       3.145   5.813  18.012  0.00  0.00    +0.000 C 
ENDBRANCH   7  16
ENDBRANCH   1   7
BRANCH   4  17
ATOM     17  O   UNL     1       0.851  11.752  19.069  0.00  0.00    +0.000 OA
BRANCH  17  18
ATOM     18  C   UNL     1      -0.035  12.305  20.046  0.00  0.00    +0.000 C 
BRANCH  18  19
ATOM     19  C   UNL     1      -1.428  12.556  19.466  0.00  0.00    +0.000 C 
BRANCH  19  20
ATOM     20  O   UNL     1      -2.104  11.303  19.343  0.00  0.00    +0.000 OA
BRANCH  20  21
ATOM     21  C   UNL     1      -2.680  11.058  18.126  0.00  0.00    +0.000 A 
ATOM     22  C   UNL     1      -1.961  10.198  17.293  0.00  0.00    +0.000 A 
ATOM     23  C   UNL     1      -2.440   9.880  16.022  0.00  0.00    +0.000 A 
ATOM     24  C   UNL     1      -3.654  10.405  15.584  0.00  0.00    +0.000 A 
ATOM     25  C   UNL     1      -4.390  11.240  16.423  0.00  0.00    +0.000 A 
ATOM     26  C   UNL     1      -3.907  11.564  17.693  0.00  0.00    +0.000 A 
ENDBRANCH  20  21
ENDBRANCH  19  20
ENDBRANCH  18  19
ENDBRANCH  17  18
ENDBRANCH   4  17
TORSDOF 7
ENDMDL
MODEL 7
REMARK VINA RESULT:      -8.1      1.516      2.171
REMARK  Name = 
REMARK  7 active torsions:
REMARK  status: ('A' for Active; 'I' for Inactive)
REMARK    1  A    between atoms: C_9  and  C_10
REMARK    2  A    between atoms: C_10  and  C_11
REMARK    3  A    between atoms: C_14  and  O_15
REMARK    4  A    between atoms: O_15  and  C_16
REMARK    5  A    between atoms: C_16  and  C_17
REMARK    6  A    between atoms: C_17  and  O_18
REMARK    7  A    between atoms: O_18  and  C_19
REMARK                            x       y       z     vdW  Elec       q    Type
REMARK                         _______ _______ _______ _____ _____    ______ ____
ROOT
ATOM      1  C   UNL     1       5.033   5.031  17.705  0.00  0.00    +0.000 A 
ATOM      2  C   UNL     1       4.606   6.284  17.257  0.00  0.00    +0.000 A 
ATOM      3  C   UNL     1       5.522   7.310  17.026  0.00  0.00    +0.000 A 
ATOM      4  C   UNL     1       6.882   7.108  17.262  0.00  0.00    +0.000 A 
ATOM      5  C   UNL     1       7.314   5.860  17.715  0.00  0.00    +0.000 A 
ATOM      6  C   UNL     1       6.398   4.826  17.938  0.00  0.00    +0.000 A 
ENDROOT
BRANCH   1   7
ATOM      7  C   UNL     1       4.022   3.933  17.931  0.00  0.00    +0.000 C 
BRANCH   7  16
ATOM      8  O   UNL     1       4.334   2.108  20.319  0.00  0.00    +0.000 OA
ATOM      9  C   UNL     1       3.302   2.686  19.987  0.00  0.00    +0.000 C 
ATOM     10  C   UNL     1       1.919   2.130  20.267  0.00  0.00    +0.000 C 
ATOM     11  C   UNL     1       1.247   3.139  21.201  0.00  0.00    +0.000 C 
ATOM     12  C   UNL     1       1.275   4.538  20.556  0.00  0.00    +0.000 C 
ATOM     13  N   UNL     1       1.845   4.494  19.188  0.00  0.00    +0.000 NA
ATOM     14  C   UNL     1       1.045   3.546  18.387  0.00  0.00    +0.000 C 
ATOM     15  C   UNL     1       1.198   2.109  18.913  0.00  0.00    +0.000 C 
ATOM     16  C   UNL     1       3.279   4.047  19.279  0.00  0.00    +0.000 C 
ENDBRANCH   7  16
ENDBRANCH   1   7
BRANCH   4  17
ATOM     17  O   UNL     1       7.867   8.046  17.101  0.00  0.00    +0.000 OA
BRANCH  17  18
ATOM     18  C   UNL     1       8.364   8.687  18.278  0.00  0.00    +0.000 C 
BRANCH  18  19
ATOM     19  C   UNL     1       8.388  10.209  18.125  0.00  0.00    +0.000 C 
BRANCH  19  20
ATOM     20  O   UNL     1       9.748  10.640  18.056  0.00  0.00    +0.000 OA
BRANCH  20  21
ATOM     21  C   UNL     1       9.936  11.988  17.917  0.00  0.00    +0.000 A 
ATOM     22  C   UNL     1      11.187  12.364  17.424  0.00  0.00    +0.000 A 
ATOM     23  C   UNL     1      11.503  13.712  17.249  0.00  0.00    +0.000 A 
ATOM     24  C   UNL     1      10.559  14.692  17.547  0.00  0.00    +0.000 A 
ATOM     25  C   UNL     1       9.298  14.321  18.011  0.00  0.00    +0.000 A 
ATOM     26  C   UNL     1       8.984  12.972  18.193  0.00  0.00    +0.000 A 
ENDBRANCH  20  21
ENDBRANCH  19  20
ENDBRANCH  18  19
ENDBRANCH  17  18
ENDBRANCH   4  17
TORSDOF 7
ENDMDL
MODEL 8
REMARK VINA RESULT:      -8.0      1.503      2.286
REMARK  Name = 
REMARK  7 active torsions:
REMARK  status: ('A' for Active; 'I' for Inactive)
REMARK    1  A    between atoms: C_9  and  C_10
REMARK    2  A    between atoms: C_10  and  C_11
REMARK    3  A    between atoms: C_14  and  O_15
REMARK    4  A    between atoms: O_15  and  C_16
REMARK    5  A    between atoms: C_16  and  C_17
REMARK    6  A    between atoms: C_17  and  O_18
REMARK    7  A    between atoms: O_18  and  C_19
REMARK                            x       y       z     vdW  Elec       q    Type
REMARK                         _______ _______ _______ _____ _____    ______ ____
ROOT
ATOM      1  C   UNL     1       5.691   4.931  17.907  0.00  0.00    +0.000 A 
ATOM      2  C   UNL     1       5.810   5.927  16.934  0.00  0.00    +0.000 A 
ATOM      3  C   UNL     1       6.773   6.929  17.054  0.00  0.00    +0.000 A 
ATOM      4  C   UNL     1       7.619   6.966  18.162  0.00  0.00    +0.000 A 
ATOM      5  C   UNL     1       7.501   5.977  19.140  0.00  0.00    +0.000 A 
ATOM      6  C   UNL     1       6.542   4.964  19.018  0.00  0.00    +0.000 A 
ENDROOT
BRANCH   1   7
ATOM      7  C   UNL     1       4.651   3.849  17.744  0.00  0.00    +0.000 C 
BRANCH   7  16
ATOM      8  O   UNL     1       3.644   1.095  18.473  0.00  0.00    +0.000 OA
ATOM      9  C   UNL     1       3.158   2.159  18.845  0.00  0.00    +0.000 C 
ATOM     10  C   UNL     1       1.683   2.326  19.158  0.00  0.00    +0.000 C 
ATOM     11  C   UNL     1       1.610   2.682  20.645  0.00  0.00    +0.000 C 
ATOM     12  C   UNL     1       2.486   3.919  20.923  0.00  0.00    +0.000 C 
ATOM     13  N   UNL     1       3.061   4.470  19.673  0.00  0.00    +0.000 NA
ATOM     14  C   UNL     1       1.948   4.789  18.757  0.00  0.00    +0.000 C 
ATOM     15  C   UNL     1       1.211   3.516  18.312  0.00  0.00    +0.000 C 
ATOM     16  C   UNL     1       3.975   3.438  19.069  0.00  0.00    +0.000 C 
ENDBRANCH   7  16
ENDBRANCH   1   7
BRANCH   4  17
ATOM     17  O   UNL     1       8.577   7.915  18.402  0.00  0.00    +0.000 OA
BRANCH  17  18
ATOM     18  C   UNL     1       8.228   9.280  18.157  0.00  0.00    +0.000 C 
BRANCH  18  19
ATOM     19  C   UNL     1       9.339  10.234  18.597  0.00  0.00    +0.000 C 
BRANCH  19  20
ATOM     20  O   UNL     1       9.255  10.411  20.013  0.00  0.00    +0.000 OA
BRANCH  20  21
ATOM     21  C   UNL     1       9.579  11.658  20.474  0.00  0.00    +0.000 A 
ATOM     22  C   UNL     1       8.898  12.057  21.627  0.00  0.00    +0.000 A 
ATOM     23  C   UNL     1       9.134  13.313  22.187  0.00  0.00    +0.000 A 
ATOM     24  C   UNL     1      10.068  14.170  21.609  0.00  0.00    +0.000 A 
ATOM     25  C   UNL     1      10.771  13.764  20.476  0.00  0.00    +0.000 A 
ATOM     26  C   UNL     1      10.530  12.510  19.910  0.00  0.00    +0.000 A 
ENDBRANCH  20  21
ENDBRANCH  19  20
ENDBRANCH  18  19
ENDBRANCH  17  18
ENDBRANCH   4  17
TORSDOF 7
ENDMDL
MODEL 9
REMARK VINA RESULT:      -8.0      5.449      8.665
REMARK  Name = 
REMARK  7 active torsions:
REMARK  status: ('A' for Active; 'I' for Inactive)
REMARK    1  A    between atoms: C_9  and  C_10
REMARK    2  A    between atoms: C_10  and  C_11
REMARK    3  A    between atoms: C_14  and  O_15
REMARK    4  A    between atoms: O_15  and  C_16
REMARK    5  A    between atoms: C_16  and  C_17
REMARK    6  A    between atoms: C_17  and  O_18
REMARK    7  A    between atoms: O_18  and  C_19
REMARK                            x       y       z     vdW  Elec       q    Type
REMARK                         _______ _______ _______ _____ _____    ______ ____
ROOT
ATOM      1  C   UNL     1       2.427   7.413  18.429  0.00  0.00    +0.000 A 
ATOM      2  C   UNL     1       2.161   7.282  19.795  0.00  0.00    +0.000 A 
ATOM      3  C   UNL     1       1.493   8.289  20.492  0.00  0.00    +0.000 A 
ATOM      4  C   UNL     1       1.099   9.456  19.839  0.00  0.00    +0.000 A 
ATOM      5  C   UNL     1       1.365   9.595  18.476  0.00  0.00    +0.000 A 
ATOM      6  C   UNL     1       2.027   8.583  17.772  0.00  0.00    +0.000 A 
ENDROOT
BRANCH   1   7
ATOM      7  C   UNL     1       3.137   6.302  17.696  0.00  0.00    +0.000 C 
BRANCH   7  16
ATOM      8  O   UNL     1       5.204   6.841  15.559  0.00  0.00    +0.000 OA
ATOM      9  C   UNL     1       5.346   6.095  16.524  0.00  0.00    +0.000 C 
ATOM     10  C   UNL     1       6.240   4.870  16.493  0.00  0.00    +0.000 C 
ATOM     11  C   UNL     1       7.334   5.127  17.533  0.00  0.00    +0.000 C 
ATOM     12  C   UNL     1       6.687   5.435  18.898  0.00  0.00    +0.000 C 
ATOM     13  N   UNL     1       5.212   5.296  18.843  0.00  0.00    +0.000 NA
ATOM     14  C   UNL     1       4.896   3.927  18.391  0.00  0.00    +0.000 C 
ATOM     15  C   UNL     1       5.356   3.699  16.943  0.00  0.00    +0.000 C 
ATOM     16  C   UNL     1       4.668   6.319  17.882  0.00  0.00    +0.000 C 
ENDBRANCH   7  16
ENDBRANCH   1   7
BRANCH   4  17
ATOM     17  O   UNL     1       0.466  10.521  20.424  0.00  0.00    +0.000 OA
BRANCH  17  18
ATOM     18  C   UNL     1       0.619  11.800  19.803  0.00  0.00    +0.000 C 
BRANCH  18  19
ATOM     19  C   UNL     1      -0.720  12.351  19.310  0.00  0.00    +0.000 C 
BRANCH  19  20
ATOM     20  O   UNL     1      -1.698  11.312  19.385  0.00  0.00    +0.000 OA
BRANCH  20  21
ATOM     21  C   UNL     1      -2.464  11.138  18.265  0.00  0.00    +0.000 A 
ATOM     22  C   UNL     1      -1.909  10.304  17.292  0.00  0.00    +0.000 A 
ATOM     23  C   UNL     1      -2.590  10.057  16.099  0.00  0.00    +0.000 A 
ATOM     24  C   UNL     1      -3.842  10.629  15.882  0.00  0.00    +0.000 A 
ATOM     25  C   UNL     1      -4.413  11.439  16.862  0.00  0.00    +0.000 A 
ATOM     26  C   UNL     1      -3.728  11.691  18.053  0.00  0.00    +0.000 A 
ENDBRANCH  20  21
ENDBRANCH  19  20
ENDBRANCH  18  19
ENDBRANCH  17  18
ENDBRANCH   4  17
TORSDOF 7
ENDMDL
