MODEL 1
REMARK VINA RESULT:      -7.9      0.000      0.000
REMARK  Name = 
REMARK  9 active torsions:
REMARK  status: ('A' for Active; 'I' for Inactive)
REMARK    1  A    between atoms: C_1  and  C_2
REMARK    2  A    between atoms: C_2  and  N_3
REMARK    3  A    between atoms: C_7  and  C_8
REMARK    4  A    between atoms: C_8  and  C_9
REMARK    5  A    between atoms: C_15  and  C_16
REMARK    6  A    between atoms: C_16  and  C_17
REMARK    7  A    between atoms: C_17  and  N_18
REMARK    8  A    between atoms: N_18  and  C_19
REMARK    9  A    between atoms: N_18  and  C_20
REMARK                            x       y       z     vdW  Elec       q    Type
REMARK                         _______ _______ _______ _____ _____    ______ ____
ROOT
ATOM      1  C   UNL     1       3.869   6.575  17.285  0.00  0.00    +0.000 A 
ATOM      2  C   UNL     1       3.504   7.809  17.838  0.00  0.00    +0.000 A 
ATOM      3  C   UNL     1       2.314   7.941  18.528  0.00  0.00    +0.000 A 
ATOM      4  C   UNL     1       2.162   6.778  19.293  0.00  0.00    +0.000 A 
ATOM      5  N   UNL     1       2.268   6.637  20.652  0.00  0.00    +0.000 N 
ATOM      6  C   UNL     1       1.987   5.345  20.965  0.00  0.00    +0.000 A 
ATOM      7  C   UNL     1       1.679   4.666  19.793  0.00  0.00    +0.000 A 
ATOM      8  C   UNL     1       2.322   5.489  18.792  0.00  0.00    +0.000 A 
ATOM      9  C   UNL     1       3.083   5.399  17.592  0.00  0.00    +0.000 A 
ATOM     10  H   UNL     1       2.491   7.387  21.287  0.00  0.00    +0.000 HD
ENDROOT
BRANCH   1  11
ATOM     11  C   UNL     1       5.127   6.570  16.431  0.00  0.00    +0.000 C 
BRANCH  11  16
ATOM     12  N   UNL     1       7.078   4.919  16.212  0.00  0.00    +0.000 N 
ATOM     13  N   UNL     1       7.943   4.277  17.012  0.00  0.00    +0.000 NA
ATOM     14  N   UNL     1       7.597   4.624  18.244  0.00  0.00    +0.000 NA
ATOM     15  N   UNL     1       6.543   5.494  18.235  0.00  0.00    +0.000 NA
ATOM     16  C   UNL     1       6.221   5.690  16.970  0.00  0.00    +0.000 A 
BRANCH  12  18
ATOM     17  C   UNL     1       5.961   3.878  14.281  0.00  0.00    +0.000 C 
ATOM     18  C   UNL     1       7.112   4.737  14.783  0.00  0.00    +0.000 C 
ENDBRANCH  12  18
ENDBRANCH  11  16
ENDBRANCH   1  11
BRANCH   7  19
ATOM     19  C   UNL     1       0.940   3.339  19.862  0.00  0.00    +0.000 C 
BRANCH  19  20
ATOM     20  C   UNL     1       1.999   2.156  19.825  0.00  0.00    +0.000 C 
BRANCH  20  21
ATOM     21  N   UNL     1       3.358   2.410  19.278  0.00  0.00    +0.000 NA
ATOM     22  C   UNL     1       4.400   2.144  20.276  0.00  0.00    +0.000 C 
ATOM     23  C   UNL     1       3.605   1.519  18.124  0.00  0.00    +0.000 C 
ENDBRANCH  20  21
ENDBRANCH  19  20
ENDBRANCH   7  19
TORSDOF 6
ENDMDL
MODEL 2
REMARK VINA RESULT:      -7.6      0.793      1.077
REMARK  Name = 
REMARK  9 active torsions:
REMARK  status: ('A' for Active; 'I' for Inactive)
REMARK    1  A    between atoms: C_1  and  C_2
REMARK    2  A    between atoms: C_2  and  N_3
REMARK    3  A    between atoms: C_7  and  C_8
REMARK    4  A    between atoms: C_8  and  C_9
REMARK    5  A    between atoms: C_15  and  C_16
REMARK    6  A    between atoms: C_16  and  C_17
REMARK    7  A    between atoms: C_17  and  N_18
REMARK    8  A    between atoms: N_18  and  C_19
REMARK    9  A    between atoms: N_18  and  C_20
REMARK                            x       y       z     vdW  Elec       q    Type
REMARK                         _______ _______ _______ _____ _____    ______ ____
ROOT
ATOM      1  C   UNL     1       4.105   6.858  17.408  0.00  0.00    +0.000 A 
ATOM      2  C   UNL     1       3.414   8.075  17.472  0.00  0.00    +0.000 A 
ATOM      3  C   UNL     1       2.130   8.124  17.978  0.00  0.00    +0.000 A 
ATOM      4  C   UNL     1       2.100   7.264  19.082  0.00  0.00    +0.000 A 
ATOM      5  N   UNL     1       2.019   7.591  20.410  0.00  0.00    +0.000 N 
ATOM      6  C   UNL     1       1.961   6.437  21.126  0.00  0.00    +0.000 A 
ATOM      7  C   UNL     1       1.985   5.368  20.239  0.00  0.00    +0.000 A 
ATOM      8  C   UNL     1       2.595   5.963  19.070  0.00  0.00    +0.000 A 
ATOM      9  C   UNL     1       3.537   5.686  18.038  0.00  0.00    +0.000 A 
ATOM     10  H   UNL     1       1.982   8.534  20.764  0.00  0.00    +0.000 HD
ENDROOT
BRANCH   1  11
ATOM     11  C   UNL     1       5.455   6.891  16.710  0.00  0.00    +0.000 C 
BRANCH  11  16
ATOM     12  N   UNL     1       7.152   4.976  16.532  0.00  0.00    +0.000 N 
ATOM     13  N   UNL     1       7.964   4.276  17.340  0.00  0.00    +0.000 NA
ATOM     14  N   UNL     1       7.733   4.750  18.556  0.00  0.00    +0.000 NA
ATOM     15  N   UNL     1       6.807   5.754  18.527  0.00  0.00    +0.000 NA
ATOM     16  C   UNL     1       6.448   5.907  17.267  0.00  0.00    +0.000 A 
BRANCH  12  18
ATOM     17  C   UNL     1       5.880   3.841  14.756  0.00  0.00    +0.000 C 
ATOM     18  C   UNL     1       7.087   4.694  15.120  0.00  0.00    +0.000 C 
ENDBRANCH  12  18
ENDBRANCH  11  16
ENDBRANCH   1  11
BRANCH   7  19
ATOM     19  C   UNL     1       1.530   3.993  20.703  0.00  0.00    +0.000 C 
BRANCH  19  20
ATOM     20  C   UNL     1       2.602   2.914  20.247  0.00  0.00    +0.000 C 
BRANCH  20  21
ATOM     21  N   UNL     1       2.235   1.915  19.208  0.00  0.00    +0.000 NA
ATOM     22  C   UNL     1       0.946   2.232  18.585  0.00  0.00    +0.000 C 
ATOM     23  C   UNL     1       3.259   1.908  18.141  0.00  0.00    +0.000 C 
ENDBRANCH  20  21
ENDBRANCH  19  20
ENDBRANCH   7  19
TORSDOF 6
ENDMDL
MODEL 3
REMARK VINA RESULT:      -7.4      2.414      4.853
REMARK  Name = 
REMARK  9 active torsions:
REMARK  status: ('A' for Active; 'I' for Inactive)
REMARK    1  A    between atoms: C_1  and  C_2
REMARK    2  A    between atoms: C_2  and  N_3
REMARK    3  A    between atoms: C_7  and  C_8
REMARK    4  A    between atoms: C_8  and  C_9
REMARK    5  A    between atoms: C_15  and  C_16
REMARK    6  A    between atoms: C_16  and  C_17
REMARK    7  A    between atoms: C_17  and  N_18
REMARK    8  A    between atoms: N_18  and  C_19
REMARK    9  A    between atoms: N_18  and  C_20
REMARK                            x       y       z     vdW  Elec       q    Type
REMARK                         _______ _______ _______ _____ _____    ______ ____
ROOT
ATOM      1  C   UNL     1       5.491   4.832  16.629  0.00  0.00    +0.000 A 
ATOM      2  C   UNL     1       5.947   4.409  17.885  0.00  0.00    +0.000 A 
ATOM      3  C   UNL     1       5.837   5.240  18.983  0.00  0.00    +0.000 A 
ATOM      4  C   UNL     1       4.591   5.871  18.886  0.00  0.00    +0.000 A 
ATOM      5  N   UNL     1       3.474   5.664  19.652  0.00  0.00    +0.000 N 
ATOM      6  C   UNL     1       2.516   6.537  19.244  0.00  0.00    +0.000 A 
ATOM      7  C   UNL     1       3.039   7.318  18.222  0.00  0.00    +0.000 A 
ATOM      8  C   UNL     1       4.118   6.487  17.732  0.00  0.00    +0.000 A 
ATOM      9  C   UNL     1       4.744   6.066  16.524  0.00  0.00    +0.000 A 
ATOM     10  H   UNL     1       3.412   4.993  20.401  0.00  0.00    +0.000 HD
ENDROOT
BRANCH   1  11
ATOM     11  C   UNL     1       5.783   3.900  15.463  0.00  0.00    +0.000 C 
BRANCH  11  16
ATOM     12  N   UNL     1       6.741   4.125  13.095  0.00  0.00    +0.000 N 
ATOM     13  N   UNL     1       7.639   4.880  12.444  0.00  0.00    +0.000 NA
ATOM     14  N   UNL     1       8.152   5.682  13.367  0.00  0.00    +0.000 NA
ATOM     15  N   UNL     1       7.574   5.463  14.586  0.00  0.00    +0.000 NA
ATOM     16  C   UNL     1       6.686   4.501  14.421  0.00  0.00    +0.000 A 
BRANCH  12  18
ATOM     17  C   UNL     1       4.651   3.556  11.925  0.00  0.00    +0.000 C 
ATOM     18  C   UNL     1       6.013   3.085  12.414  0.00  0.00    +0.000 C 
ENDBRANCH  12  18
ENDBRANCH  11  16
ENDBRANCH   1  11
BRANCH   7  19
ATOM     19  C   UNL     1       2.360   8.627  17.849  0.00  0.00    +0.000 C 
BRANCH  19  20
ATOM     20  C   UNL     1       1.229   8.945  18.917  0.00  0.00    +0.000 C 
BRANCH  20  21
ATOM     21  N   UNL     1       0.874  10.359  19.206  0.00  0.00    +0.000 NA
ATOM     22  C   UNL     1       0.973  10.660  20.638  0.00  0.00    +0.000 C 
ATOM     23  C   UNL     1       1.805  11.261  18.493  0.00  0.00    +0.000 C 
ENDBRANCH  20  21
ENDBRANCH  19  20
ENDBRANCH   7  19
TORSDOF 6
ENDMDL
MODEL 4
REMARK VINA RESULT:      -7.4      1.589      2.353
REMARK  Name = 
REMARK  9 active torsions:
REMARK  status: ('A' for Active; 'I' for Inactive)
REMARK    1  A    between atoms: C_1  and  C_2
REMARK    2  A    between atoms: C_2  and  N_3
REMARK    3  A    between atoms: C_7  and  C_8
REMARK    4  A    between atoms: C_8  and  C_9
REMARK    5  A    between atoms: C_15  and  C_16
REMARK    6  A    between atoms: C_16  and  C_17
REMARK    7  A    between atoms: C_17  and  N_18
REMARK    8  A    between atoms: N_18  and  C_19
REMARK    9  A    between atoms: N_18  and  C_20
REMARK                            x       y       z     vdW  Elec       q    Type
REMARK                         _______ _______ _______ _____ _____    ______ ____
ROOT
ATOM      1  C   UNL     1       4.176   6.403  17.446  0.00  0.00    +0.000 A 
ATOM      2  C   UNL     1       3.673   7.711  17.435  0.00  0.00    +0.000 A 
ATOM      3  C   UNL     1       2.386   7.968  17.866  0.00  0.00    +0.000 A 
ATOM      4  C   UNL     1       2.171   7.164  18.991  0.00  0.00    +0.000 A 
ATOM      5  N   UNL     1       2.071   7.550  20.302  0.00  0.00    +0.000 N 
ATOM      6  C   UNL     1       1.804   6.445  21.047  0.00  0.00    +0.000 A 
ATOM      7  C   UNL     1       1.713   5.352  20.196  0.00  0.00    +0.000 A 
ATOM      8  C   UNL     1       2.465   5.804  19.045  0.00  0.00    +0.000 A 
ATOM      9  C   UNL     1       3.407   5.353  18.077  0.00  0.00    +0.000 A 
ATOM     10  H   UNL     1       2.158   8.500  20.625  0.00  0.00    +0.000 HD
ENDROOT
BRANCH   1  11
ATOM     11  C   UNL     1       5.550   6.209  16.824  0.00  0.00    +0.000 C 
BRANCH  11  16
ATOM     12  N   UNL     1       7.602   7.023  18.130  0.00  0.00    +0.000 N 
ATOM     13  N   UNL     1       8.424   6.572  19.090  0.00  0.00    +0.000 NA
ATOM     14  N   UNL     1       8.006   5.341  19.353  0.00  0.00    +0.000 NA
ATOM     15  N   UNL     1       6.919   5.016  18.592  0.00  0.00    +0.000 NA
ATOM     16  C   UNL     1       6.656   6.064  17.834  0.00  0.00    +0.000 A 
BRANCH  12  18
ATOM     17  C   UNL     1       8.566   9.264  18.457  0.00  0.00    +0.000 C 
ATOM     18  C   UNL     1       7.789   8.326  17.544  0.00  0.00    +0.000 C 
ENDBRANCH  12  18
ENDBRANCH  11  16
ENDBRANCH   1  11
BRANCH   7  19
ATOM     19  C   UNL     1       1.034   4.078  20.673  0.00  0.00    +0.000 C 
BRANCH  19  20
ATOM     20  C   UNL     1       2.064   2.873  20.568  0.00  0.00    +0.000 C 
BRANCH  20  21
ATOM     21  N   UNL     1       1.899   1.864  19.489  0.00  0.00    +0.000 NA
ATOM     22  C   UNL     1       0.835   2.243  18.552  0.00  0.00    +0.000 C 
ATOM     23  C   UNL     1       3.156   1.749  18.718  0.00  0.00    +0.000 C 
ENDBRANCH  20  21
ENDBRANCH  19  20
ENDBRANCH   7  19
TORSDOF 6
ENDMDL
MODEL 5
REMARK VINA RESULT:      -7.2      1.926      2.929
REMARK  Name = 
REMARK  9 active torsions:
REMARK  status: ('A' for Active; 'I' for Inactive)
REMARK    1  A    between atoms: C_1  and  C_2
REMARK    2  A    between atoms: C_2  and  N_3
REMARK    3  A    between atoms: C_7  and  C_8
REMARK    4  A    between atoms: C_8  and  C_9
REMARK    5  A    between atoms: C_15  and  C_16
REMARK    6  A    between atoms: C_16  and  C_17
REMARK    7  A    between atoms: C_17  and  N_18
REMARK    8  A    between atoms: N_18  and  C_19
REMARK    9  A    between atoms: N_18  and  C_20
REMARK                            x       y       z     vdW  Elec       q    Type
REMARK                         _______ _______ _______ _____ _____    ______ ____
ROOT
ATOM      1  C   UNL     1       5.317   4.739  16.153  0.00  0.00    +0.000 A 
ATOM      2  C   UNL     1       5.437   6.133  16.218  0.00  0.00    +0.000 A 
ATOM      3  C   UNL     1       4.354   6.912  16.577  0.00  0.00    +0.000 A 
ATOM      4  C   UNL     1       3.698   6.235  17.611  0.00  0.00    +0.000 A 
ATOM      5  N   UNL     1       3.644   6.565  18.940  0.00  0.00    +0.000 N 
ATOM      6  C   UNL     1       2.848   5.659  19.567  0.00  0.00    +0.000 A 
ATOM      7  C   UNL     1       2.377   4.758  18.620  0.00  0.00    +0.000 A 
ATOM      8  C   UNL     1       3.363   4.885  17.569  0.00  0.00    +0.000 A 
ATOM      9  C   UNL     1       4.107   4.108  16.635  0.00  0.00    +0.000 A 
ATOM     10  H   UNL     1       4.102   7.364  19.348  0.00  0.00    +0.000 HD
ENDROOT
BRANCH   1  11
ATOM     11  C   UNL     1       6.524   3.987  15.616  0.00  0.00    +0.000 C 
BRANCH  11  16
ATOM     12  N   UNL     1       6.733   4.129  13.063  0.00  0.00    +0.000 N 
ATOM     13  N   UNL     1       7.386   4.864  12.150  0.00  0.00    +0.000 NA
ATOM     14  N   UNL     1       8.136   5.702  12.852  0.00  0.00    +0.000 NA
ATOM     15  N   UNL     1       7.949   5.526  14.194  0.00  0.00    +0.000 NA
ATOM     16  C   UNL     1       7.068   4.554  14.332  0.00  0.00    +0.000 A 
BRANCH  12  18
ATOM     17  C   UNL     1       4.723   3.545  11.767  0.00  0.00    +0.000 C 
ATOM     18  C   UNL     1       5.852   3.060  12.665  0.00  0.00    +0.000 C 
ENDBRANCH  12  18
ENDBRANCH  11  16
ENDBRANCH   1  11
BRANCH   7  19
ATOM     19  C   UNL     1       1.167   3.894  18.938  0.00  0.00    +0.000 C 
BRANCH  19  20
ATOM     20  C   UNL     1       1.650   2.404  19.198  0.00  0.00    +0.000 C 
BRANCH  20  21
ATOM     21  N   UNL     1       2.230   2.044  20.519  0.00  0.00    +0.000 NA
ATOM     22  C   UNL     1       3.661   2.358  20.584  0.00  0.00    +0.000 C 
ATOM     23  C   UNL     1       1.553   2.813  21.585  0.00  0.00    +0.000 C 
ENDBRANCH  20  21
ENDBRANCH  19  20
ENDBRANCH   7  19
TORSDOF 6
ENDMDL
MODEL 6
REMARK VINA RESULT:      -7.1      3.108      6.770
REMARK  Name = 
REMARK  9 active torsions:
REMARK  status: ('A' for Active; 'I' for Inactive)
REMARK    1  A    between atoms: C_1  and  C_2
REMARK    2  A    between atoms: C_2  and  N_3
REMARK    3  A    between atoms: C_7  and  C_8
REMARK    4  A    between atoms: C_8  and  C_9
REMARK    5  A    between atoms: C_15  and  C_16
REMARK    6  A    between atoms: C_16  and  C_17
REMARK    7  A    between atoms: C_17  and  N_18
REMARK    8  A    between atoms: N_18  and  C_19
REMARK    9  A    between atoms: N_18  and  C_20
REMARK                            x       y       z     vdW  Elec       q    Type
REMARK                         _______ _______ _______ _____ _____    ______ ____
ROOT
ATOM      1  C   UNL     1       4.280   5.437  17.277  0.00  0.00    +0.000 A 
ATOM      2  C   UNL     1       5.028   4.263  17.118  0.00  0.00    +0.000 A 
ATOM      3  C   UNL     1       6.342   4.323  16.696  0.00  0.00    +0.000 A 
ATOM      4  C   UNL     1       6.922   5.418  17.345  0.00  0.00    +0.000 A 
ATOM      5  N   UNL     1       7.850   5.412  18.353  0.00  0.00    +0.000 N 
ATOM      6  C   UNL     1       8.173   6.701  18.637  0.00  0.00    +0.000 A 
ATOM      7  C   UNL     1       7.456   7.532  17.785  0.00  0.00    +0.000 A 
ATOM      8  C   UNL     1       6.347   6.684  17.403  0.00  0.00    +0.000 A 
ATOM      9  C   UNL     1       4.943   6.719  17.171  0.00  0.00    +0.000 A 
ATOM     10  H   UNL     1       8.230   4.579  18.774  0.00  0.00    +0.000 HD
ENDROOT
BRANCH   1  11
ATOM     11  C   UNL     1       2.809   5.254  17.612  0.00  0.00    +0.000 C 
BRANCH  11  16
ATOM     12  N   UNL     1       2.284   3.494  19.402  0.00  0.00    +0.000 N 
ATOM     13  N   UNL     1       2.140   3.431  20.735  0.00  0.00    +0.000 NA
ATOM     14  N   UNL     1       2.294   4.677  21.159  0.00  0.00    +0.000 NA
ATOM     15  N   UNL     1       2.557   5.523  20.118  0.00  0.00    +0.000 NA
ATOM     16  C   UNL     1       2.562   4.790  19.022  0.00  0.00    +0.000 A 
BRANCH  12  18
ATOM     17  C   UNL     1       3.407   1.509  18.477  0.00  0.00    +0.000 C 
ATOM     18  C   UNL     1       2.124   2.320  18.582  0.00  0.00    +0.000 C 
ENDBRANCH  12  18
ENDBRANCH  11  16
ENDBRANCH   1  11
BRANCH   7  19
ATOM     19  C   UNL     1       7.899   8.973  17.587  0.00  0.00    +0.000 C 
BRANCH  19  20
ATOM     20  C   UNL     1       8.797   9.411  18.822  0.00  0.00    +0.000 C 
BRANCH  20  21
ATOM     21  N   UNL     1       9.102  10.852  19.027  0.00  0.00    +0.000 NA
ATOM     22  C   UNL     1       9.643  11.105  20.367  0.00  0.00    +0.000 C 
ATOM     23  C   UNL     1      10.115  11.292  18.044  0.00  0.00    +0.000 C 
ENDBRANCH  20  21
ENDBRANCH  19  20
ENDBRANCH   7  19
TORSDOF 6
ENDMDL
MODEL 7
REMARK VINA RESULT:      -7.0      3.218      7.050
REMARK  Name = 
REMARK  9 active torsions:
REMARK  status: ('A' for Active; 'I' for Inactive)
REMARK    1  A    between atoms: C_1  and  C_2
REMARK    2  A    between atoms: C_2  and  N_3
REMARK    3  A    between atoms: C_7  and  C_8
REMARK    4  A    between atoms: C_8  and  C_9
REMARK    5  A    between atoms: C_15  and  C_16
REMARK    6  A    between atoms: C_16  and  C_17
REMARK    7  A    between atoms: C_17  and  N_18
REMARK    8  A    between atoms: N_18  and  C_19
REMARK    9  A    between atoms: N_18  and  C_20
REMARK                            x       y       z     vdW  Elec       q    Type
REMARK                         _______ _______ _______ _____ _____    ______ ____
ROOT
ATOM      1  C   UNL     1       4.256   5.622  17.495  0.00  0.00    +0.000 A 
ATOM      2  C   UNL     1       4.939   4.402  17.406  0.00  0.00    +0.000 A 
ATOM      3  C   UNL     1       6.249   4.365  16.968  0.00  0.00    +0.000 A 
ATOM      4  C   UNL     1       6.894   5.468  17.539  0.00  0.00    +0.000 A 
ATOM      5  N   UNL     1       7.833   5.478  18.537  0.00  0.00    +0.000 N 
ATOM      6  C   UNL     1       8.226   6.763  18.734  0.00  0.00    +0.000 A 
ATOM      7  C   UNL     1       7.543   7.574  17.836  0.00  0.00    +0.000 A 
ATOM      8  C   UNL     1       6.386   6.764  17.520  0.00  0.00    +0.000 A 
ATOM      9  C   UNL     1       4.982   6.857  17.300  0.00  0.00    +0.000 A 
ATOM     10  H   UNL     1       8.175   4.654  19.006  0.00  0.00    +0.000 HD
ENDROOT
BRANCH   1  11
ATOM     11  C   UNL     1       2.781   5.538  17.855  0.00  0.00    +0.000 C 
BRANCH  11  16
ATOM     12  N   UNL     1       2.230   3.520  19.340  0.00  0.00    +0.000 N 
ATOM     13  N   UNL     1       1.736   2.280  19.204  0.00  0.00    +0.000 NA
ATOM     14  N   UNL     1       1.538   2.127  17.903  0.00  0.00    +0.000 NA
ATOM     15  N   UNL     1       1.876   3.259  17.216  0.00  0.00    +0.000 NA
ATOM     16  C   UNL     1       2.299   4.135  18.107  0.00  0.00    +0.000 A 
BRANCH  12  18
ATOM     17  C   UNL     1       1.995   3.243  21.775  0.00  0.00    +0.000 C 
ATOM     18  C   UNL     1       2.624   4.025  20.631  0.00  0.00    +0.000 C 
ENDBRANCH  12  18
ENDBRANCH  11  16
ENDBRANCH   1  11
BRANCH   7  19
ATOM     19  C   UNL     1       8.057   8.974  17.541  0.00  0.00    +0.000 C 
BRANCH  19  20
ATOM     20  C   UNL     1       8.782   9.541  18.835  0.00  0.00    +0.000 C 
BRANCH  20  21
ATOM     21  N   UNL     1       9.631  10.757  18.722  0.00  0.00    +0.000 NA
ATOM     22  C   UNL     1       8.937  11.837  18.013  0.00  0.00    +0.000 C 
ATOM     23  C   UNL     1       9.972  11.253  20.073  0.00  0.00    +0.000 C 
ENDBRANCH  20  21
ENDBRANCH  19  20
ENDBRANCH   7  19
TORSDOF 6
ENDMDL
MODEL 8
REMARK VINA RESULT:      -7.0      0.992      1.749
REMARK  Name = 
REMARK  9 active torsions:
REMARK  status: ('A' for Active; 'I' for Inactive)
REMARK    1  A    between atoms: C_1  and  C_2
REMARK    2  A    between atoms: C_2  and  N_3
REMARK    3  A    between atoms: C_7  and  C_8
REMARK    4  A    between atoms: C_8  and  C_9
REMARK    5  A    between atoms: C_15  and  C_16
REMARK    6  A    between atoms: C_16  and  C_17
REMARK    7  A    between atoms: C_17  and  N_18
REMARK    8  A    between atoms: N_18  and  C_19
REMARK    9  A    between atoms: N_18  and  C_20
REMARK                            x       y       z     vdW  Elec       q    Type
REMARK                         _______ _______ _______ _____ _____    ______ ____
ROOT
ATOM      1  C   UNL     1       3.668   6.881  17.278  0.00  0.00    +0.000 A 
ATOM      2  C   UNL     1       3.267   8.055  17.930  0.00  0.00    +0.000 A 
ATOM      3  C   UNL     1       2.107   8.076  18.680  0.00  0.00    +0.000 A 
ATOM      4  C   UNL     1       2.052   6.860  19.370  0.00  0.00    +0.000 A 
ATOM      5  N   UNL     1       2.231   6.636  20.710  0.00  0.00    +0.000 N 
ATOM      6  C   UNL     1       2.031   5.313  20.947  0.00  0.00    +0.000 A 
ATOM      7  C   UNL     1       1.702   4.697  19.747  0.00  0.00    +0.000 A 
ATOM      8  C   UNL     1       2.252   5.617  18.776  0.00  0.00    +0.000 A 
ATOM      9  C   UNL     1       2.958   5.647  17.539  0.00  0.00    +0.000 A 
ATOM     10  H   UNL     1       2.445   7.354  21.384  0.00  0.00    +0.000 HD
ENDROOT
BRANCH   1  11
ATOM     11  C   UNL     1       4.881   7.001  16.370  0.00  0.00    +0.000 C 
BRANCH  11  16
ATOM     12  N   UNL     1       6.523   5.092  16.858  0.00  0.00    +0.000 N 
ATOM     13  N   UNL     1       6.885   3.918  16.318  0.00  0.00    +0.000 NA
ATOM     14  N   UNL     1       6.171   3.813  15.207  0.00  0.00    +0.000 NA
ATOM     15  N   UNL     1       5.344   4.889  15.048  0.00  0.00    +0.000 NA
ATOM     16  C   UNL     1       5.552   5.685  16.080  0.00  0.00    +0.000 A 
BRANCH  12  18
ATOM     17  C   UNL     1       6.295   5.304  19.300  0.00  0.00    +0.000 C 
ATOM     18  C   UNL     1       7.143   5.576  18.066  0.00  0.00    +0.000 C 
ENDBRANCH  12  18
ENDBRANCH  11  16
ENDBRANCH   1  11
BRANCH   7  19
ATOM     19  C   UNL     1       1.036   3.330  19.759  0.00  0.00    +0.000 C 
BRANCH  19  20
ATOM     20  C   UNL     1       2.155   2.211  19.886  0.00  0.00    +0.000 C 
BRANCH  20  21
ATOM     21  N   UNL     1       3.500   2.453  19.300  0.00  0.00    +0.000 NA
ATOM     22  C   UNL     1       4.571   2.048  20.217  0.00  0.00    +0.000 C 
ATOM     23  C   UNL     1       3.651   1.665  18.058  0.00  0.00    +0.000 C 
ENDBRANCH  20  21
ENDBRANCH  19  20
ENDBRANCH   7  19
TORSDOF 6
ENDMDL
MODEL 9
REMARK VINA RESULT:      -6.9      2.306      3.839
REMARK  Name = 
REMARK  9 active torsions:
REMARK  status: ('A' for Active; 'I' for Inactive)
REMARK    1  A    between atoms: C_1  and  C_2
REMARK    2  A    between atoms: C_2  and  N_3
REMARK    3  A    between atoms: C_7  and  C_8
REMARK    4  A    between atoms: C_8  and  C_9
REMARK    5  A    between atoms: C_15  and  C_16
REMARK    6  A    between atoms: C_16  and  C_17
REMARK    7  A    between atoms: C_17  and  N_18
REMARK    8  A    between atoms: N_18  and  C_19
REMARK    9  A    between atoms: N_18  and  C_20
REMARK                            x       y       z     vdW  Elec       q    Type
REMARK                         _______ _______ _______ _____ _____    ______ ____
ROOT
ATOM      1  C   UNL     1       6.000   4.387  16.085  0.00  0.00    +0.000 A 
ATOM      2  C   UNL     1       7.136   4.687  16.849  0.00  0.00    +0.000 A 
ATOM      3  C   UNL     1       7.044   5.533  17.936  0.00  0.00    +0.000 A 
ATOM      4  C   UNL     1       5.846   5.218  18.589  0.00  0.00    +0.000 A 
ATOM      5  N   UNL     1       5.679   4.588  19.795  0.00  0.00    +0.000 N 
ATOM      6  C   UNL     1       4.348   4.543  20.065  0.00  0.00    +0.000 A 
ATOM      7  C   UNL     1       3.667   5.172  19.030  0.00  0.00    +0.000 A 
ATOM      8  C   UNL     1       4.620   5.079  17.945  0.00  0.00    +0.000 A 
ATOM      9  C   UNL     1       4.700   4.823  16.547  0.00  0.00    +0.000 A 
ATOM     10  H   UNL     1       6.433   4.250  20.371  0.00  0.00    +0.000 HD
ENDROOT
BRANCH   1  11
ATOM     11  C   UNL     1       6.236   3.559  14.833  0.00  0.00    +0.000 C 
BRANCH  11  16
ATOM     12  N   UNL     1       6.786   4.034  12.373  0.00  0.00    +0.000 N 
ATOM     13  N   UNL     1       7.485   4.928  11.656  0.00  0.00    +0.000 NA
ATOM     14  N   UNL     1       8.043   5.730  12.552  0.00  0.00    +0.000 NA
ATOM     15  N   UNL     1       7.688   5.373  13.823  0.00  0.00    +0.000 NA
ATOM     16  C   UNL     1       6.896   4.323  13.717  0.00  0.00    +0.000 A 
BRANCH  12  18
ATOM     17  C   UNL     1       4.596   3.247  11.572  0.00  0.00    +0.000 C 
ATOM     18  C   UNL     1       6.081   2.955  11.729  0.00  0.00    +0.000 C 
ENDBRANCH  12  18
ENDBRANCH  11  16
ENDBRANCH   1  11
BRANCH   7  19
ATOM     19  C   UNL     1       2.234   5.633  19.240  0.00  0.00    +0.000 C 
BRANCH  19  20
ATOM     20  C   UNL     1       1.677   4.994  20.583  0.00  0.00    +0.000 C 
BRANCH  20  21
ATOM     21  N   UNL     1       0.873   3.744  20.518  0.00  0.00    +0.000 NA
ATOM     22  C   UNL     1       0.928   3.135  19.185  0.00  0.00    +0.000 C 
ATOM     23  C   UNL     1       1.407   2.759  21.483  0.00  0.00    +0.000 C 
ENDBRANCH  20  21
ENDBRANCH  19  20
ENDBRANCH   7  19
TORSDOF 6
ENDMDL
