MODEL 1
REMARK VINA RESULT:      -6.0      0.000      0.000
REMARK  Name = 
REMARK  18 active torsions:
REMARK  status: ('A' for Active; 'I' for Inactive)
REMARK    1  A    between atoms: O_1  and  C_2
REMARK    2  A    between atoms: C_2  and  C_3
REMARK    3  A    between atoms: C_3  and  O_4
REMARK    4  A    between atoms: C_3  and  C_5
REMARK    5  A    between atoms: C_5  and  O_6
REMARK    6  A    between atoms: C_5  and  C_7
REMARK    7  A    between atoms: C_7  and  O_8
REMARK    8  A    between atoms: C_7  and  C_9
REMARK    9  A    between atoms: C_9  and  O_10
REMARK   10  A    between atoms: C_9  and  C_11
REMARK   11  A    between atoms: C_11  and  O_12
REMARK   12  A    between atoms: C_11  and  C_13
REMARK   13  A    between atoms: C_13  and  N_14
REMARK   14  A    between atoms: C_16  and  O_17
REMARK   15  A    between atoms: C_18  and  O_19
REMARK   16  A    between atoms: C_20  and  O_21
REMARK   17  A    between atoms: C_22  and  C_23
REMARK   18  A    between atoms: C_23  and  O_24
REMARK                            x       y       z     vdW  Elec       q    Type
REMARK                         _______ _______ _______ _____ _____    ______ ____
ROOT
ATOM      1  C   UNL     1       6.415   5.563  18.269  0.00  0.00    +0.000 C 
ENDROOT
BRANCH   1   2
ATOM      2  O   UNL     1       7.630   5.807  19.003  0.00  0.00    +0.000 OA
ATOM      3  H   UNL     1       8.385   5.624  18.415  0.00  0.00    +0.000 HD
ENDBRANCH   1   2
BRANCH   1   4
ATOM      4  C   UNL     1       6.803   5.546  16.771  0.00  0.00    +0.000 C 
BRANCH   4   5
ATOM      5  O   UNL     1       7.542   6.767  16.492  0.00  0.00    +0.000 OA
ATOM      6  H   UNL     1       6.914   7.352  16.014  0.00  0.00    +0.000 HD
ENDBRANCH   4   5
BRANCH   4   7
ATOM      7  C   UNL     1       5.608   5.487  15.801  0.00  0.00    +0.000 C 
BRANCH   7   8
ATOM      8  O   UNL     1       5.476   6.776  15.190  0.00  0.00    +0.000 OA
ATOM      9  H   UNL     1       4.557   6.822  14.870  0.00  0.00    +0.000 HD
ENDBRANCH   7   8
BRANCH   7  10
ATOM     10  C   UNL     1       5.800   4.394  14.716  0.00  0.00    +0.000 C 
BRANCH  10  11
ATOM     11  O   UNL     1       6.498   3.269  15.294  0.00  0.00    +0.000 OA
ATOM     12  H   UNL     1       7.413   3.587  15.466  0.00  0.00    +0.000 HD
ENDBRANCH  10  11
BRANCH  10  13
ATOM     13  C   UNL     1       6.625   4.902  13.512  0.00  0.00    +0.000 C 
BRANCH  13  14
ATOM     14  O   UNL     1       7.896   5.392  13.953  0.00  0.00    +0.000 OA
ATOM     15  H   UNL     1       8.103   6.134  13.350  0.00  0.00    +0.000 HD
ENDBRANCH  13  14
BRANCH  13  16
ATOM     16  C   UNL     1       6.878   3.803  12.471  0.00  0.00    +0.000 C 
BRANCH  16  17
ATOM     17  O   UNL     1       5.900   2.771  12.570  0.00  0.00    +0.000 OA
ATOM     18  H   UNL     1       6.311   2.052  13.083  0.00  0.00    +0.000 HD
ENDBRANCH  16  17
ENDBRANCH  13  16
ENDBRANCH  10  13
ENDBRANCH   7  10
ENDBRANCH   4   7
ENDBRANCH   1   4
BRANCH   1  19
ATOM     19  C   UNL     1       5.692   4.288  18.784  0.00  0.00    +0.000 C 
BRANCH  19  20
ATOM     20  N   UNL     1       4.214   4.338  18.943  0.00  0.00    +0.000 NA
ATOM     21  C   UNL     1       3.835   5.543  19.704  0.00  0.00    +0.000 C 
ATOM     22  C   UNL     1       2.322   5.763  19.796  0.00  0.00    +0.000 C 
ATOM     23  C   UNL     1       1.684   4.535  20.448  0.00  0.00    +0.000 C 
ATOM     24  C   UNL     1       2.030   3.276  19.640  0.00  0.00    +0.000 C 
ATOM     25  C   UNL     1       3.573   3.106  19.469  0.00  0.00    +0.000 C 
BRANCH  24  26
ATOM     26  O   UNL     1       1.484   2.104  20.276  0.00  0.00    +0.000 OA
ATOM     27  H   UNL     1       2.006   1.334  19.981  0.00  0.00    +0.000 HD
ENDBRANCH  24  26
BRANCH  23  28
ATOM     28  O   UNL     1       0.262   4.675  20.560  0.00  0.00    +0.000 OA
ATOM     29  H   UNL     1      -0.074   3.936  21.098  0.00  0.00    +0.000 HD
ENDBRANCH  23  28
BRANCH  22  30
ATOM     30  O   UNL     1       2.047   6.944  20.552  0.00  0.00    +0.000 OA
ATOM     31  H   UNL     1       2.636   6.961  21.326  0.00  0.00    +0.000 HD
ENDBRANCH  22  30
BRANCH  25  32
ATOM     32  C   UNL     1       3.806   1.858  18.567  0.00  0.00    +0.000 C 
BRANCH  32  33
ATOM     33  O   UNL     1       2.654   1.542  17.786  0.00  0.00    +0.000 OA
ATOM     34  H   UNL     1       2.169   0.839  18.275  0.00  0.00    +0.000 HD
ENDBRANCH  32  33
ENDBRANCH  25  32
ENDBRANCH  19  20
ENDBRANCH   1  19
TORSDOF 18
ENDMDL
MODEL 2
REMARK VINA RESULT:      -6.0      1.520      2.968
REMARK  Name = 
REMARK  18 active torsions:
REMARK  status: ('A' for Active; 'I' for Inactive)
REMARK    1  A    between atoms: O_1  and  C_2
REMARK    2  A    between atoms: C_2  and  C_3
REMARK    3  A    between atoms: C_3  and  O_4
REMARK    4  A    between atoms: C_3  and  C_5
REMARK    5  A    between atoms: C_5  and  O_6
REMARK    6  A    between atoms: C_5  and  C_7
REMARK    7  A    between atoms: C_7  and  O_8
REMARK    8  A    between atoms: C_7  and  C_9
REMARK    9  A    between atoms: C_9  and  O_10
REMARK   10  A    between atoms: C_9  and  C_11
REMARK   11  A    between atoms: C_11  and  O_12
REMARK   12  A    between atoms: C_11  and  C_13
REMARK   13  A    between atoms: C_13  and  N_14
REMARK   14  A    between atoms: C_16  and  O_17
REMARK   15  A    between atoms: C_18  and  O_19
REMARK   16  A    between atoms: C_20  and  O_21
REMARK   17  A    between atoms: C_22  and  C_23
REMARK   18  A    between atoms: C_23  and  O_24
REMARK                            x       y       z     vdW  Elec       q    Type
REMARK                         _______ _______ _______ _____ _____    ______ ____
ROOT
ATOM      1  C   UNL     1       6.171   5.693  17.746  0.00  0.00    +0.000 C 
ENDROOT
BRANCH   1   2
ATOM      2  O   UNL     1       7.365   6.480  17.918  0.00  0.00    +0.000 OA
ATOM      3  H   UNL     1       7.843   6.147  18.698  0.00  0.00    +0.000 HD
ENDBRANCH   1   2
BRANCH   1   4
ATOM      4  C   UNL     1       6.515   4.592  16.716  0.00  0.00    +0.000 C 
BRANCH   4   5
ATOM      5  O   UNL     1       7.963   4.461  16.674  0.00  0.00    +0.000 OA
ATOM      6  H   UNL     1       8.206   3.960  17.482  0.00  0.00    +0.000 HD
ENDBRANCH   4   5
BRANCH   4   7
ATOM      7  C   UNL     1       6.028   4.880  15.283  0.00  0.00    +0.000 C 
BRANCH   7   8
ATOM      8  O   UNL     1       5.740   6.281  15.193  0.00  0.00    +0.000 OA
ATOM      9  H   UNL     1       4.789   6.340  14.985  0.00  0.00    +0.000 HD
ENDBRANCH   7   8
BRANCH   7  10
ATOM     10  C   UNL     1       7.086   4.479  14.221  0.00  0.00    +0.000 C 
BRANCH  10  11
ATOM     11  O   UNL     1       7.978   5.592  13.996  0.00  0.00    +0.000 OA
ATOM     12  H   UNL     1       8.826   5.342  14.428  0.00  0.00    +0.000 HD
ENDBRANCH  10  11
BRANCH  10  13
ATOM     13  C   UNL     1       6.443   4.099  12.868  0.00  0.00    +0.000 C 
BRANCH  13  14
ATOM     14  O   UNL     1       7.146   3.002  12.274  0.00  0.00    +0.000 OA
ATOM     15  H   UNL     1       6.451   2.446  11.869  0.00  0.00    +0.000 HD
ENDBRANCH  13  14
BRANCH  13  16
ATOM     16  C   UNL     1       4.971   3.691  13.015  0.00  0.00    +0.000 C 
BRANCH  16  17
ATOM     17  O   UNL     1       4.418   3.314  11.757  0.00  0.00    +0.000 OA
ATOM     18  H   UNL     1       3.450   3.319  11.870  0.00  0.00    +0.000 HD
ENDBRANCH  16  17
ENDBRANCH  13  16
ENDBRANCH  10  13
ENDBRANCH   7  10
ENDBRANCH   4   7
ENDBRANCH   1   4
BRANCH   1  19
ATOM     19  C   UNL     1       5.631   5.184  19.111  0.00  0.00    +0.000 C 
BRANCH  19  20
ATOM     20  N   UNL     1       4.391   4.361  19.110  0.00  0.00    +0.000 NA
ATOM     21  C   UNL     1       4.720   2.965  18.766  0.00  0.00    +0.000 C 
ATOM     22  C   UNL     1       3.531   2.007  18.881  0.00  0.00    +0.000 C 
ATOM     23  C   UNL     1       2.410   2.499  17.963  0.00  0.00    +0.000 C 
ATOM     24  C   UNL     1       2.023   3.936  18.339  0.00  0.00    +0.000 C 
ATOM     25  C   UNL     1       3.257   4.893  18.311  0.00  0.00    +0.000 C 
BRANCH  24  26
ATOM     26  O   UNL     1       1.008   4.434  17.445  0.00  0.00    +0.000 OA
ATOM     27  H   UNL     1       1.042   5.409  17.469  0.00  0.00    +0.000 HD
ENDBRANCH  24  26
BRANCH  23  28
ATOM     28  O   UNL     1       1.261   1.645  18.027  0.00  0.00    +0.000 OA
ATOM     29  H   UNL     1       0.571   2.022  17.453  0.00  0.00    +0.000 HD
ENDBRANCH  23  28
BRANCH  22  30
ATOM     30  O   UNL     1       3.937   0.683  18.526  0.00  0.00    +0.000 OA
ATOM     31  H   UNL     1       3.416   0.395  17.755  0.00  0.00    +0.000 HD
ENDBRANCH  22  30
BRANCH  25  32
ATOM     32  C   UNL     1       2.771   6.293  18.789  0.00  0.00    +0.000 C 
BRANCH  32  33
ATOM     33  O   UNL     1       2.605   7.200  17.700  0.00  0.00    +0.000 OA
ATOM     34  H   UNL     1       1.881   7.816  17.956  0.00  0.00    +0.000 HD
ENDBRANCH  32  33
ENDBRANCH  25  32
ENDBRANCH  19  20
ENDBRANCH   1  19
TORSDOF 18
ENDMDL
MODEL 3
REMARK VINA RESULT:      -6.0      2.078      6.600
REMARK  Name = 
REMARK  18 active torsions:
REMARK  status: ('A' for Active; 'I' for Inactive)
REMARK    1  A    between atoms: O_1  and  C_2
REMARK    2  A    between atoms: C_2  and  C_3
REMARK    3  A    between atoms: C_3  and  O_4
REMARK    4  A    between atoms: C_3  and  C_5
REMARK    5  A    between atoms: C_5  and  O_6
REMARK    6  A    between atoms: C_5  and  C_7
REMARK    7  A    between atoms: C_7  and  O_8
REMARK    8  A    between atoms: C_7  and  C_9
REMARK    9  A    between atoms: C_9  and  O_10
REMARK   10  A    between atoms: C_9  and  C_11
REMARK   11  A    between atoms: C_11  and  O_12
REMARK   12  A    between atoms: C_11  and  C_13
REMARK   13  A    between atoms: C_13  and  N_14
REMARK   14  A    between atoms: C_16  and  O_17
REMARK   15  A    between atoms: C_18  and  O_19
REMARK   16  A    between atoms: C_20  and  O_21
REMARK   17  A    between atoms: C_22  and  C_23
REMARK   18  A    between atoms: C_23  and  O_24
REMARK                            x       y       z     vdW  Elec       q    Type
REMARK                         _______ _______ _______ _____ _____    ______ ____
ROOT
ATOM      1  C   UNL     1       4.826   2.341  19.571  0.00  0.00    +0.000 C 
ENDROOT
BRANCH   1   2
ATOM      2  O   UNL     1       4.975   1.998  20.962  0.00  0.00    +0.000 OA
ATOM      3  H   UNL     1       5.584   2.639  21.372  0.00  0.00    +0.000 HD
ENDBRANCH   1   2
BRANCH   1   4
ATOM      4  C   UNL     1       3.660   1.481  19.029  0.00  0.00    +0.000 C 
BRANCH   4   5
ATOM      5  O   UNL     1       4.198   0.597  18.009  0.00  0.00    +0.000 OA
ATOM      6  H   UNL     1       3.432   0.334  17.455  0.00  0.00    +0.000 HD
ENDBRANCH   4   5
BRANCH   4   7
ATOM      7  C   UNL     1       2.510   2.286  18.395  0.00  0.00    +0.000 C 
BRANCH   7   8
ATOM      8  O   UNL     1       2.240   1.721  17.106  0.00  0.00    +0.000 OA
ATOM      9  H   UNL     1       1.883   2.452  16.569  0.00  0.00    +0.000 HD
ENDBRANCH   7   8
BRANCH   7  10
ATOM     10  C   UNL     1       1.232   2.259  19.274  0.00  0.00    +0.000 C 
BRANCH  10  11
ATOM     11  O   UNL     1       0.080   2.531  18.444  0.00  0.00    +0.000 OA
ATOM     12  H   UNL     1      -0.654   2.729  19.069  0.00  0.00    +0.000 HD
ENDBRANCH  10  11
BRANCH  10  13
ATOM     13  C   UNL     1       1.272   3.318  20.399  0.00  0.00    +0.000 C 
BRANCH  13  14
ATOM     14  O   UNL     1       0.108   4.150  20.339  0.00  0.00    +0.000 OA
ATOM     15  H   UNL     1      -0.507   3.681  19.740  0.00  0.00    +0.000 HD
ENDBRANCH  13  14
BRANCH  13  16
ATOM     16  C   UNL     1       1.328   2.685  21.795  0.00  0.00    +0.000 C 
BRANCH  16  17
ATOM     17  O   UNL     1       2.629   2.814  22.362  0.00  0.00    +0.000 OA
ATOM     18  H   UNL     1       2.503   2.870  23.327  0.00  0.00    +0.000 HD
ENDBRANCH  16  17
ENDBRANCH  13  16
ENDBRANCH  10  13
ENDBRANCH   7  10
ENDBRANCH   4   7
ENDBRANCH   1   4
BRANCH   1  19
ATOM     19  C   UNL     1       4.666   3.874  19.382  0.00  0.00    +0.000 C 
BRANCH  19  20
ATOM     20  N   UNL     1       5.649   4.579  18.515  0.00  0.00    +0.000 NA
ATOM     21  C   UNL     1       6.532   5.420  19.343  0.00  0.00    +0.000 C 
ATOM     22  C   UNL     1       7.672   6.074  18.558  0.00  0.00    +0.000 C 
ATOM     23  C   UNL     1       7.075   6.927  17.437  0.00  0.00    +0.000 C 
ATOM     24  C   UNL     1       6.189   6.055  16.536  0.00  0.00    +0.000 C 
ATOM     25  C   UNL     1       5.083   5.315  17.355  0.00  0.00    +0.000 C 
BRANCH  24  26
ATOM     26  O   UNL     1       5.572   6.856  15.510  0.00  0.00    +0.000 OA
ATOM     27  H   UNL     1       5.750   6.428  14.650  0.00  0.00    +0.000 HD
ENDBRANCH  24  26
BRANCH  23  28
ATOM     28  O   UNL     1       8.094   7.566  16.659  0.00  0.00    +0.000 OA
ATOM     29  H   UNL     1       7.826   8.491  16.511  0.00  0.00    +0.000 HD
ENDBRANCH  23  28
BRANCH  22  30
ATOM     30  O   UNL     1       8.472   6.872  19.435  0.00  0.00    +0.000 OA
ATOM     31  H   UNL     1       8.988   6.279  20.009  0.00  0.00    +0.000 HD
ENDBRANCH  22  30
BRANCH  25  32
ATOM     32  C   UNL     1       4.305   4.399  16.365  0.00  0.00    +0.000 C 
BRANCH  32  33
ATOM     33  O   UNL     1       5.116   3.997  15.261  0.00  0.00    +0.000 OA
ATOM     34  H   UNL     1       5.243   3.024  15.348  0.00  0.00    +0.000 HD
ENDBRANCH  32  33
ENDBRANCH  25  32
ENDBRANCH  19  20
ENDBRANCH   1  19
TORSDOF 18
ENDMDL
MODEL 4
REMARK VINA RESULT:      -5.9      1.268      2.172
REMARK  Name = 
REMARK  18 active torsions:
REMARK  status: ('A' for Active; 'I' for Inactive)
REMARK    1  A    between atoms: O_1  and  C_2
REMARK    2  A    between atoms: C_2  and  C_3
REMARK    3  A    between atoms: C_3  and  O_4
REMARK    4  A    between atoms: C_3  and  C_5
REMARK    5  A    between atoms: C_5  and  O_6
REMARK    6  A    between atoms: C_5  and  C_7
REMARK    7  A    between atoms: C_7  and  O_8
REMARK    8  A    between atoms: C_7  and  C_9
REMARK    9  A    between atoms: C_9  and  O_10
REMARK   10  A    between atoms: C_9  and  C_11
REMARK   11  A    between atoms: C_11  and  O_12
REMARK   12  A    between atoms: C_11  and  C_13
REMARK   13  A    between atoms: C_13  and  N_14
REMARK   14  A    between atoms: C_16  and  O_17
REMARK   15  A    between atoms: C_18  and  O_19
REMARK   16  A    between atoms: C_20  and  O_21
REMARK   17  A    between atoms: C_22  and  C_23
REMARK   18  A    between atoms: C_23  and  O_24
REMARK                            x       y       z     vdW  Elec       q    Type
REMARK                         _______ _______ _______ _____ _____    ______ ____
ROOT
ATOM      1  C   UNL     1       5.383   5.018  15.926  0.00  0.00    +0.000 C 
ENDROOT
BRANCH   1   2
ATOM      2  O   UNL     1       5.574   6.427  15.697  0.00  0.00    +0.000 OA
ATOM      3  H   UNL     1       6.335   6.724  16.229  0.00  0.00    +0.000 HD
ENDBRANCH   1   2
BRANCH   1   4
ATOM      4  C   UNL     1       6.515   4.292  15.162  0.00  0.00    +0.000 C 
BRANCH   4   5
ATOM      5  O   UNL     1       7.718   4.365  15.976  0.00  0.00    +0.000 OA
ATOM      6  H   UNL     1       8.468   4.288  15.347  0.00  0.00    +0.000 HD
ENDBRANCH   4   5
BRANCH   4   7
ATOM      7  C   UNL     1       6.845   4.893  13.782  0.00  0.00    +0.000 C 
BRANCH   7   8
ATOM      8  O   UNL     1       8.060   5.641  13.910  0.00  0.00    +0.000 OA
ATOM      9  H   UNL     1       7.907   6.265  14.643  0.00  0.00    +0.000 HD
ENDBRANCH   7   8
BRANCH   7  10
ATOM     10  C   UNL     1       7.000   3.795  12.696  0.00  0.00    +0.000 C 
BRANCH  10  11
ATOM     11  O   UNL     1       7.385   4.413  11.449  0.00  0.00    +0.000 OA
ATOM     12  H   UNL     1       7.590   3.669  10.838  0.00  0.00    +0.000 HD
ENDBRANCH  10  11
BRANCH  10  13
ATOM     13  C   UNL     1       5.685   3.017  12.458  0.00  0.00    +0.000 C 
BRANCH  13  14
ATOM     14  O   UNL     1       4.700   3.875  11.873  0.00  0.00    +0.000 OA
ATOM     15  H   UNL     1       4.420   4.469  12.598  0.00  0.00    +0.000 HD
ENDBRANCH  13  14
BRANCH  13  16
ATOM     16  C   UNL     1       5.879   1.815  11.524  0.00  0.00    +0.000 C 
BRANCH  16  17
ATOM     17  O   UNL     1       7.262   1.574  11.282  0.00  0.00    +0.000 OA
ATOM     18  H   UNL     1       7.310   1.061  10.454  0.00  0.00    +0.000 HD
ENDBRANCH  16  17
ENDBRANCH  13  16
ENDBRANCH  10  13
ENDBRANCH   7  10
ENDBRANCH   4   7
ENDBRANCH   1   4
BRANCH   1  19
ATOM     19  C   UNL     1       5.294   4.701  17.444  0.00  0.00    +0.000 C 
BRANCH  19  20
ATOM     20  N   UNL     1       3.943   4.570  18.053  0.00  0.00    +0.000 NA
ATOM     21  C   UNL     1       3.705   5.691  18.983  0.00  0.00    +0.000 C 
ATOM     22  C   UNL     1       2.284   5.727  19.552  0.00  0.00    +0.000 C 
ATOM     23  C   UNL     1       2.008   4.407  20.275  0.00  0.00    +0.000 C 
ATOM     24  C   UNL     1       2.205   3.232  19.307  0.00  0.00    +0.000 C 
ATOM     25  C   UNL     1       3.625   3.251  18.657  0.00  0.00    +0.000 C 
BRANCH  24  26
ATOM     26  O   UNL     1       2.005   1.979  19.990  0.00  0.00    +0.000 OA
ATOM     27  H   UNL     1       1.095   1.973  20.344  0.00  0.00    +0.000 HD
ENDBRANCH  24  26
BRANCH  23  28
ATOM     28  O   UNL     1       0.687   4.375  20.830  0.00  0.00    +0.000 OA
ATOM     29  H   UNL     1       0.767   4.292  21.797  0.00  0.00    +0.000 HD
ENDBRANCH  23  28
BRANCH  22  30
ATOM     30  O   UNL     1       2.145   6.836  20.443  0.00  0.00    +0.000 OA
ATOM     31  H   UNL     1       1.874   7.616  19.927  0.00  0.00    +0.000 HD
ENDBRANCH  22  30
BRANCH  25  32
ATOM     32  C   UNL     1       3.686   2.077  17.637  0.00  0.00    +0.000 C 
BRANCH  32  33
ATOM     33  O   UNL     1       4.091   0.855  18.254  0.00  0.00    +0.000 OA
ATOM     34  H   UNL     1       4.495   1.098  19.118  0.00  0.00    +0.000 HD
ENDBRANCH  32  33
ENDBRANCH  25  32
ENDBRANCH  19  20
ENDBRANCH   1  19
TORSDOF 18
ENDMDL
MODEL 5
REMARK VINA RESULT:      -5.8      1.115      1.375
REMARK  Name = 
REMARK  18 active torsions:
REMARK  status: ('A' for Active; 'I' for Inactive)
REMARK    1  A    between atoms: O_1  and  C_2
REMARK    2  A    between atoms: C_2  and  C_3
REMARK    3  A    between atoms: C_3  and  O_4
REMARK    4  A    between atoms: C_3  and  C_5
REMARK    5  A    between atoms: C_5  and  O_6
REMARK    6  A    between atoms: C_5  and  C_7
REMARK    7  A    between atoms: C_7  and  O_8
REMARK    8  A    between atoms: C_7  and  C_9
REMARK    9  A    between atoms: C_9  and  O_10
REMARK   10  A    between atoms: C_9  and  C_11
REMARK   11  A    between atoms: C_11  and  O_12
REMARK   12  A    between atoms: C_11  and  C_13
REMARK   13  A    between atoms: C_13  and  N_14
REMARK   14  A    between atoms: C_16  and  O_17
REMARK   15  A    between atoms: C_18  and  O_19
REMARK   16  A    between atoms: C_20  and  O_21
REMARK   17  A    between atoms: C_22  and  C_23
REMARK   18  A    between atoms: C_23  and  O_24
REMARK                            x       y       z     vdW  Elec       q    Type
REMARK                         _______ _______ _______ _____ _____    ______ ____
ROOT
ATOM      1  C   UNL     1       6.115   5.352  17.540  0.00  0.00    +0.000 C 
ENDROOT
BRANCH   1   2
ATOM      2  O   UNL     1       7.265   6.162  17.851  0.00  0.00    +0.000 OA
ATOM      3  H   UNL     1       7.577   6.580  17.029  0.00  0.00    +0.000 HD
ENDBRANCH   1   2
BRANCH   1   4
ATOM      4  C   UNL     1       6.550   4.388  16.411  0.00  0.00    +0.000 C 
BRANCH   4   5
ATOM      5  O   UNL     1       8.004   4.379  16.372  0.00  0.00    +0.000 OA
ATOM      6  H   UNL     1       8.293   4.437  17.308  0.00  0.00    +0.000 HD
ENDBRANCH   4   5
BRANCH   4   7
ATOM      7  C   UNL     1       6.045   4.776  15.008  0.00  0.00    +0.000 C 
BRANCH   7   8
ATOM      8  O   UNL     1       5.677   6.160  15.043  0.00  0.00    +0.000 OA
ATOM      9  H   UNL     1       5.177   6.319  14.221  0.00  0.00    +0.000 HD
ENDBRANCH   7   8
BRANCH   7  10
ATOM     10  C   UNL     1       7.123   4.533  13.918  0.00  0.00    +0.000 C 
BRANCH  10  11
ATOM     11  O   UNL     1       8.036   5.652  13.896  0.00  0.00    +0.000 OA
ATOM     12  H   UNL     1       7.827   6.179  14.701  0.00  0.00    +0.000 HD
ENDBRANCH  10  11
BRANCH  10  13
ATOM     13  C   UNL     1       6.508   4.388  12.508  0.00  0.00    +0.000 C 
BRANCH  13  14
ATOM     14  O   UNL     1       7.539   4.390  11.514  0.00  0.00    +0.000 OA
ATOM     15  H   UNL     1       8.315   3.988  11.954  0.00  0.00    +0.000 HD
ENDBRANCH  13  14
BRANCH  13  16
ATOM     16  C   UNL     1       5.704   3.091  12.351  0.00  0.00    +0.000 C 
BRANCH  16  17
ATOM     17  O   UNL     1       4.434   3.346  11.756  0.00  0.00    +0.000 OA
ATOM     18  H   UNL     1       4.596   3.459  10.801  0.00  0.00    +0.000 HD
ENDBRANCH  16  17
ENDBRANCH  13  16
ENDBRANCH  10  13
ENDBRANCH   7  10
ENDBRANCH   4   7
ENDBRANCH   1   4
BRANCH   1  19
ATOM     19  C   UNL     1       5.544   4.671  18.813  0.00  0.00    +0.000 C 
BRANCH  19  20
ATOM     20  N   UNL     1       4.071   4.475  18.901  0.00  0.00    +0.000 NA
ATOM     21  C   UNL     1       3.507   5.385  19.915  0.00  0.00    +0.000 C 
ATOM     22  C   UNL     1       1.977   5.363  19.977  0.00  0.00    +0.000 C 
ATOM     23  C   UNL     1       1.515   3.934  20.273  0.00  0.00    +0.000 C 
ATOM     24  C   UNL     1       2.056   2.980  19.198  0.00  0.00    +0.000 C 
ATOM     25  C   UNL     1       3.610   3.073  19.072  0.00  0.00    +0.000 C 
BRANCH  24  26
ATOM     26  O   UNL     1       1.677   1.622  19.495  0.00  0.00    +0.000 OA
ATOM     27  H   UNL     1       2.089   1.044  18.825  0.00  0.00    +0.000 HD
ENDBRANCH  24  26
BRANCH  23  28
ATOM     28  O   UNL     1       0.087   3.844  20.340  0.00  0.00    +0.000 OA
ATOM     29  H   UNL     1      -0.247   4.644  20.786  0.00  0.00    +0.000 HD
ENDBRANCH  23  28
BRANCH  22  30
ATOM     30  O   UNL     1       1.518   6.266  20.986  0.00  0.00    +0.000 OA
ATOM     31  H   UNL     1       2.018   6.097  21.804  0.00  0.00    +0.000 HD
ENDBRANCH  22  30
BRANCH  25  32
ATOM     32  C   UNL     1       4.039   2.137  17.905  0.00  0.00    +0.000 C 
BRANCH  32  33
ATOM     33  O   UNL     1       4.238   0.793  18.344  0.00  0.00    +0.000 OA
ATOM     34  H   UNL     1       4.268   0.823  19.328  0.00  0.00    +0.000 HD
ENDBRANCH  32  33
ENDBRANCH  25  32
ENDBRANCH  19  20
ENDBRANCH   1  19
TORSDOF 18
ENDMDL
MODEL 6
REMARK VINA RESULT:      -5.8      4.313      7.788
REMARK  Name = 
REMARK  18 active torsions:
REMARK  status: ('A' for Active; 'I' for Inactive)
REMARK    1  A    between atoms: O_1  and  C_2
REMARK    2  A    between atoms: C_2  and  C_3
REMARK    3  A    between atoms: C_3  and  O_4
REMARK    4  A    between atoms: C_3  and  C_5
REMARK    5  A    between atoms: C_5  and  O_6
REMARK    6  A    between atoms: C_5  and  C_7
REMARK    7  A    between atoms: C_7  and  O_8
REMARK    8  A    between atoms: C_7  and  C_9
REMARK    9  A    between atoms: C_9  and  O_10
REMARK   10  A    between atoms: C_9  and  C_11
REMARK   11  A    between atoms: C_11  and  O_12
REMARK   12  A    between atoms: C_11  and  C_13
REMARK   13  A    between atoms: C_13  and  N_14
REMARK   14  A    between atoms: C_16  and  O_17
REMARK   15  A    between atoms: C_18  and  O_19
REMARK   16  A    between atoms: C_20  and  O_21
REMARK   17  A    between atoms: C_22  and  C_23
REMARK   18  A    between atoms: C_23  and  O_24
REMARK                            x       y       z     vdW  Elec       q    Type
REMARK                         _______ _______ _______ _____ _____    ______ ____
ROOT
ATOM      1  C   UNL     1       1.863   8.031  18.496  0.00  0.00    +0.000 C 
ENDROOT
BRANCH   1   2
ATOM      2  O   UNL     1       1.984   8.259  19.913  0.00  0.00    +0.000 OA
ATOM      3  H   UNL     1       1.739   7.438  20.377  0.00  0.00    +0.000 HD
ENDBRANCH   1   2
BRANCH   1   4
ATOM      4  C   UNL     1       1.080   9.235  17.923  0.00  0.00    +0.000 C 
BRANCH   4   5
ATOM      5  O   UNL     1       2.042  10.144  17.322  0.00  0.00    +0.000 OA
ATOM      6  H   UNL     1       1.707  10.324  16.417  0.00  0.00    +0.000 HD
ENDBRANCH   4   5
BRANCH   4   7
ATOM      7  C   UNL     1       0.271  10.029  18.967  0.00  0.00    +0.000 C 
BRANCH   7   8
ATOM      8  O   UNL     1       1.000  11.225  19.267  0.00  0.00    +0.000 OA
ATOM      9  H   UNL     1       1.602  11.362  18.513  0.00  0.00    +0.000 HD
ENDBRANCH   7   8
BRANCH   7  10
ATOM     10  C   UNL     1      -1.150  10.379  18.452  0.00  0.00    +0.000 C 
BRANCH  10  11
ATOM     11  O   UNL     1      -1.209  10.146  17.027  0.00  0.00    +0.000 OA
ATOM     12  H   UNL     1      -0.757   9.284  16.883  0.00  0.00    +0.000 HD
ENDBRANCH  10  11
BRANCH  10  13
ATOM     13  C   UNL     1      -1.518  11.858  18.710  0.00  0.00    +0.000 C 
BRANCH  13  14
ATOM     14  O   UNL     1      -1.236  12.650  17.551  0.00  0.00    +0.000 OA
ATOM     15  H   UNL     1      -1.510  12.095  16.793  0.00  0.00    +0.000 HD
ENDBRANCH  13  14
BRANCH  13  16
ATOM     16  C   UNL     1      -3.003  12.039  19.055  0.00  0.00    +0.000 C 
BRANCH  16  17
ATOM     17  O   UNL     1      -3.202  13.202  19.854  0.00  0.00    +0.000 OA
ATOM     18  H   UNL     1      -2.834  12.998  20.733  0.00  0.00    +0.000 HD
ENDBRANCH  16  17
ENDBRANCH  13  16
ENDBRANCH  10  13
ENDBRANCH   7  10
ENDBRANCH   4   7
ENDBRANCH   1   4
BRANCH   1  19
ATOM     19  C   UNL     1       3.250   7.768  17.847  0.00  0.00    +0.000 C 
BRANCH  19  20
ATOM     20  N   UNL     1       3.615   6.363  17.520  0.00  0.00    +0.000 NA
ATOM     21  C   UNL     1       2.517   5.459  17.911  0.00  0.00    +0.000 C 
ATOM     22  C   UNL     1       2.734   4.006  17.482  0.00  0.00    +0.000 C 
ATOM     23  C   UNL     1       4.042   3.501  18.094  0.00  0.00    +0.000 C 
ATOM     24  C   UNL     1       5.204   4.404  17.658  0.00  0.00    +0.000 C 
ATOM     25  C   UNL     1       4.937   5.901  18.014  0.00  0.00    +0.000 C 
BRANCH  24  26
ATOM     26  O   UNL     1       6.434   3.975  18.273  0.00  0.00    +0.000 OA
ATOM     27  H   UNL     1       6.403   4.233  19.214  0.00  0.00    +0.000 HD
ENDBRANCH  24  26
BRANCH  23  28
ATOM     28  O   UNL     1       4.308   2.142  17.727  0.00  0.00    +0.000 OA
ATOM     29  H   UNL     1       5.234   1.942  17.952  0.00  0.00    +0.000 HD
ENDBRANCH  23  28
BRANCH  22  30
ATOM     30  O   UNL     1       1.630   3.203  17.906  0.00  0.00    +0.000 OA
ATOM     31  H   UNL     1       1.098   2.970  17.124  0.00  0.00    +0.000 HD
ENDBRANCH  22  30
BRANCH  25  32
ATOM     32  C   UNL     1       6.128   6.733  17.453  0.00  0.00    +0.000 C 
BRANCH  32  33
ATOM     33  O   UNL     1       6.733   6.103  16.323  0.00  0.00    +0.000 OA
ATOM     34  H   UNL     1       6.010   5.936  15.676  0.00  0.00    +0.000 HD
ENDBRANCH  32  33
ENDBRANCH  25  32
ENDBRANCH  19  20
ENDBRANCH   1  19
TORSDOF 18
ENDMDL
MODEL 7
REMARK VINA RESULT:      -5.8      1.240      2.892
REMARK  Name = 
REMARK  18 active torsions:
REMARK  status: ('A' for Active; 'I' for Inactive)
REMARK    1  A    between atoms: O_1  and  C_2
REMARK    2  A    between atoms: C_2  and  C_3
REMARK    3  A    between atoms: C_3  and  O_4
REMARK    4  A    between atoms: C_3  and  C_5
REMARK    5  A    between atoms: C_5  and  O_6
REMARK    6  A    between atoms: C_5  and  C_7
REMARK    7  A    between atoms: C_7  and  O_8
REMARK    8  A    between atoms: C_7  and  C_9
REMARK    9  A    between atoms: C_9  and  O_10
REMARK   10  A    between atoms: C_9  and  C_11
REMARK   11  A    between atoms: C_11  and  O_12
REMARK   12  A    between atoms: C_11  and  C_13
REMARK   13  A    between atoms: C_13  and  N_14
REMARK   14  A    between atoms: C_16  and  O_17
REMARK   15  A    between atoms: C_18  and  O_19
REMARK   16  A    between atoms: C_20  and  O_21
REMARK   17  A    between atoms: C_22  and  C_23
REMARK   18  A    between atoms: C_23  and  O_24
REMARK                            x       y       z     vdW  Elec       q    Type
REMARK                         _______ _______ _______ _____ _____    ______ ____
ROOT
ATOM      1  C   UNL     1       6.254   5.496  18.553  0.00  0.00    +0.000 C 
ENDROOT
BRANCH   1   2
ATOM      2  O   UNL     1       6.805   4.846  19.714  0.00  0.00    +0.000 OA
ATOM      3  H   UNL     1       7.700   4.531  19.493  0.00  0.00    +0.000 HD
ENDBRANCH   1   2
BRANCH   1   4
ATOM      4  C   UNL     1       6.757   4.702  17.324  0.00  0.00    +0.000 C 
BRANCH   4   5
ATOM      5  O   UNL     1       8.093   4.215  17.628  0.00  0.00    +0.000 OA
ATOM      6  H   UNL     1       7.965   3.328  18.030  0.00  0.00    +0.000 HD
ENDBRANCH   4   5
BRANCH   4   7
ATOM      7  C   UNL     1       6.841   5.521  16.022  0.00  0.00    +0.000 C 
BRANCH   7   8
ATOM      8  O   UNL     1       7.724   6.625  16.256  0.00  0.00    +0.000 OA
ATOM      9  H   UNL     1       7.650   6.822  17.208  0.00  0.00    +0.000 HD
ENDBRANCH   7   8
BRANCH   7  10
ATOM     10  C   UNL     1       7.353   4.665  14.833  0.00  0.00    +0.000 C 
BRANCH  10  11
ATOM     11  O   UNL     1       7.912   5.538  13.827  0.00  0.00    +0.000 OA
ATOM     12  H   UNL     1       7.534   6.428  14.011  0.00  0.00    +0.000 HD
ENDBRANCH  10  11
BRANCH  10  13
ATOM     13  C   UNL     1       6.224   3.839  14.177  0.00  0.00    +0.000 C 
BRANCH  13  14
ATOM     14  O   UNL     1       4.961   4.489  14.364  0.00  0.00    +0.000 OA
ATOM     15  H   UNL     1       4.340   4.004  13.785  0.00  0.00    +0.000 HD
ENDBRANCH  13  14
BRANCH  13  16
ATOM     16  C   UNL     1       6.438   3.651  12.669  0.00  0.00    +0.000 C 
BRANCH  16  17
ATOM     17  O   UNL     1       5.228   3.260  12.027  0.00  0.00    +0.000 OA
ATOM     18  H   UNL     1       4.777   4.084  11.767  0.00  0.00    +0.000 HD
ENDBRANCH  16  17
ENDBRANCH  13  16
ENDBRANCH  10  13
ENDBRANCH   7  10
ENDBRANCH   4   7
ENDBRANCH   1   4
BRANCH   1  19
ATOM     19  C   UNL     1       4.712   5.642  18.666  0.00  0.00    +0.000 C 
BRANCH  19  20
ATOM     20  N   UNL     1       3.931   4.466  19.138  0.00  0.00    +0.000 NA
ATOM     21  C   UNL     1       4.242   3.293  18.299  0.00  0.00    +0.000 C 
ATOM     22  C   UNL     1       3.598   1.995  18.794  0.00  0.00    +0.000 C 
ATOM     23  C   UNL     1       2.081   2.186  18.849  0.00  0.00    +0.000 C 
ATOM     24  C   UNL     1       1.738   3.375  19.757  0.00  0.00    +0.000 C 
ATOM     25  C   UNL     1       2.471   4.678  19.304  0.00  0.00    +0.000 C 
BRANCH  24  26
ATOM     26  O   UNL     1       0.316   3.603  19.772  0.00  0.00    +0.000 OA
ATOM     27  H   UNL     1       0.161   4.503  20.118  0.00  0.00    +0.000 HD
ENDBRANCH  24  26
BRANCH  23  28
ATOM     28  O   UNL     1       1.416   1.004  19.310  0.00  0.00    +0.000 OA
ATOM     29  H   UNL     1       1.261   1.097  20.267  0.00  0.00    +0.000 HD
ENDBRANCH  23  28
BRANCH  22  30
ATOM     30  O   UNL     1       3.945   0.916  17.923  0.00  0.00    +0.000 OA
ATOM     31  H   UNL     1       4.538   0.310  18.401  0.00  0.00    +0.000 HD
ENDBRANCH  22  30
BRANCH  25  32
ATOM     32  C   UNL     1       2.124   5.790  20.337  0.00  0.00    +0.000 C 
BRANCH  32  33
ATOM     33  O   UNL     1       2.305   5.345  21.681  0.00  0.00    +0.000 OA
ATOM     34  H   UNL     1       1.904   6.033  22.260  0.00  0.00    +0.000 HD
ENDBRANCH  32  33
ENDBRANCH  25  32
ENDBRANCH  19  20
ENDBRANCH   1  19
TORSDOF 18
ENDMDL
MODEL 8
REMARK VINA RESULT:      -5.8      1.727      1.811
REMARK  Name = 
REMARK  18 active torsions:
REMARK  status: ('A' for Active; 'I' for Inactive)
REMARK    1  A    between atoms: O_1  and  C_2
REMARK    2  A    between atoms: C_2  and  C_3
REMARK    3  A    between atoms: C_3  and  O_4
REMARK    4  A    between atoms: C_3  and  C_5
REMARK    5  A    between atoms: C_5  and  O_6
REMARK    6  A    between atoms: C_5  and  C_7
REMARK    7  A    between atoms: C_7  and  O_8
REMARK    8  A    between atoms: C_7  and  C_9
REMARK    9  A    between atoms: C_9  and  O_10
REMARK   10  A    between atoms: C_9  and  C_11
REMARK   11  A    between atoms: C_11  and  O_12
REMARK   12  A    between atoms: C_11  and  C_13
REMARK   13  A    between atoms: C_13  and  N_14
REMARK   14  A    between atoms: C_16  and  O_17
REMARK   15  A    between atoms: C_18  and  O_19
REMARK   16  A    between atoms: C_20  and  O_21
REMARK   17  A    between atoms: C_22  and  C_23
REMARK   18  A    between atoms: C_23  and  O_24
REMARK                            x       y       z     vdW  Elec       q    Type
REMARK                         _______ _______ _______ _____ _____    ______ ____
ROOT
ATOM      1  C   UNL     1       5.712   5.206  18.641  0.00  0.00    +0.000 C 
ENDROOT
BRANCH   1   2
ATOM      2  O   UNL     1       6.650   5.447  19.707  0.00  0.00    +0.000 OA
ATOM      3  H   UNL     1       6.683   4.654  20.272  0.00  0.00    +0.000 HD
ENDBRANCH   1   2
BRANCH   1   4
ATOM      4  C   UNL     1       6.252   5.958  17.401  0.00  0.00    +0.000 C 
BRANCH   4   5
ATOM      5  O   UNL     1       5.957   7.370  17.576  0.00  0.00    +0.000 OA
ATOM      6  H   UNL     1       5.047   7.406  17.943  0.00  0.00    +0.000 HD
ENDBRANCH   4   5
BRANCH   4   7
ATOM      7  C   UNL     1       5.636   5.511  16.062  0.00  0.00    +0.000 C 
BRANCH   7   8
ATOM      8  O   UNL     1       5.404   6.685  15.274  0.00  0.00    +0.000 OA
ATOM      9  H   UNL     1       5.501   7.436  15.888  0.00  0.00    +0.000 HD
ENDBRANCH   7   8
BRANCH   7  10
ATOM     10  C   UNL     1       6.563   4.526  15.300  0.00  0.00    +0.000 C 
BRANCH  10  11
ATOM     11  O   UNL     1       7.862   4.514  15.931  0.00  0.00    +0.000 OA
ATOM     12  H   UNL     1       7.725   4.901  16.825  0.00  0.00    +0.000 HD
ENDBRANCH  10  11
BRANCH  10  13
ATOM     13  C   UNL     1       6.752   4.927  13.820  0.00  0.00    +0.000 C 
BRANCH  13  14
ATOM     14  O   UNL     1       8.016   5.578  13.640  0.00  0.00    +0.000 OA
ATOM     15  H   UNL     1       8.683   4.888  13.825  0.00  0.00    +0.000 HD
ENDBRANCH  13  14
BRANCH  13  16
ATOM     16  C   UNL     1       6.706   3.718  12.876  0.00  0.00    +0.000 C 
BRANCH  16  17
ATOM     17  O   UNL     1       5.380   3.489  12.407  0.00  0.00    +0.000 OA
ATOM     18  H   UNL     1       5.353   3.817  11.489  0.00  0.00    +0.000 HD
ENDBRANCH  16  17
ENDBRANCH  13  16
ENDBRANCH  10  13
ENDBRANCH   7  10
ENDBRANCH   4   7
ENDBRANCH   1   4
BRANCH   1  19
ATOM     19  C   UNL     1       5.463   3.686  18.442  0.00  0.00    +0.000 C 
BRANCH  19  20
ATOM     20  N   UNL     1       4.096   3.160  18.708  0.00  0.00    +0.000 NA
ATOM     21  C   UNL     1       3.103   3.954  17.962  0.00  0.00    +0.000 C 
ATOM     22  C   UNL     1       1.678   3.400  18.054  0.00  0.00    +0.000 C 
ATOM     23  C   UNL     1       1.267   3.338  19.526  0.00  0.00    +0.000 C 
ATOM     24  C   UNL     1       2.266   2.475  20.310  0.00  0.00    +0.000 C 
ATOM     25  C   UNL     1       3.731   2.988  20.137  0.00  0.00    +0.000 C 
BRANCH  24  26
ATOM     26  O   UNL     1       1.925   2.455  21.710  0.00  0.00    +0.000 OA
ATOM     27  H   UNL     1       2.736   2.248  22.212  0.00  0.00    +0.000 HD
ENDBRANCH  24  26
BRANCH  23  28
ATOM     28  O   UNL     1      -0.060   2.822  19.683  0.00  0.00    +0.000 OA
ATOM     29  H   UNL     1      -0.202   2.631  20.628  0.00  0.00    +0.000 HD
ENDBRANCH  23  28
BRANCH  22  30
ATOM     30  O   UNL     1       0.784   4.231  17.310  0.00  0.00    +0.000 OA
ATOM     31  H   UNL     1       0.717   3.880  16.404  0.00  0.00    +0.000 HD
ENDBRANCH  22  30
BRANCH  25  32
ATOM     32  C   UNL     1       4.663   1.997  20.896  0.00  0.00    +0.000 C 
BRANCH  32  33
ATOM     33  O   UNL     1       5.204   1.002  20.026  0.00  0.00    +0.000 OA
ATOM     34  H   UNL     1       4.893   0.133  20.369  0.00  0.00    +0.000 HD
ENDBRANCH  32  33
ENDBRANCH  25  32
ENDBRANCH  19  20
ENDBRANCH   1  19
TORSDOF 18
ENDMDL
MODEL 9
REMARK VINA RESULT:      -5.8      1.027      1.280
REMARK  Name = 
REMARK  18 active torsions:
REMARK  status: ('A' for Active; 'I' for Inactive)
REMARK    1  A    between atoms: O_1  and  C_2
REMARK    2  A    between atoms: C_2  and  C_3
REMARK    3  A    between atoms: C_3  and  O_4
REMARK    4  A    between atoms: C_3  and  C_5
REMARK    5  A    between atoms: C_5  and  O_6
REMARK    6  A    between atoms: C_5  and  C_7
REMARK    7  A    between atoms: C_7  and  O_8
REMARK    8  A    between atoms: C_7  and  C_9
REMARK    9  A    between atoms: C_9  and  O_10
REMARK   10  A    between atoms: C_9  and  C_11
REMARK   11  A    between atoms: C_11  and  O_12
REMARK   12  A    between atoms: C_11  and  C_13
REMARK   13  A    between atoms: C_13  and  N_14
REMARK   14  A    between atoms: C_16  and  O_17
REMARK   15  A    between atoms: C_18  and  O_19
REMARK   16  A    between atoms: C_20  and  O_21
REMARK   17  A    between atoms: C_22  and  C_23
REMARK   18  A    between atoms: C_23  and  O_24
REMARK                            x       y       z     vdW  Elec       q    Type
REMARK                         _______ _______ _______ _____ _____    ______ ____
ROOT
ATOM      1  C   UNL     1       6.480   5.502  19.014  0.00  0.00    +0.000 C 
ENDROOT
BRANCH   1   2
ATOM      2  O   UNL     1       7.798   5.283  19.554  0.00  0.00    +0.000 OA
ATOM      3  H   UNL     1       8.192   4.516  19.101  0.00  0.00    +0.000 HD
ENDBRANCH   1   2
BRANCH   1   4
ATOM      4  C   UNL     1       6.666   6.346  17.731  0.00  0.00    +0.000 C 
BRANCH   4   5
ATOM      5  O   UNL     1       5.367   6.883  17.362  0.00  0.00    +0.000 OA
ATOM      6  H   UNL     1       5.553   7.726  16.895  0.00  0.00    +0.000 HD
ENDBRANCH   4   5
BRANCH   4   7
ATOM      7  C   UNL     1       7.211   5.562  16.522  0.00  0.00    +0.000 C 
BRANCH   7   8
ATOM      8  O   UNL     1       7.894   4.406  17.022  0.00  0.00    +0.000 OA
ATOM      9  H   UNL     1       8.693   4.314  16.471  0.00  0.00    +0.000 HD
ENDBRANCH   7   8
BRANCH   7  10
ATOM     10  C   UNL     1       6.078   5.140  15.549  0.00  0.00    +0.000 C 
BRANCH  10  11
ATOM     11  O   UNL     1       5.628   3.811  15.893  0.00  0.00    +0.000 OA
ATOM     12  H   UNL     1       5.301   3.418  15.052  0.00  0.00    +0.000 HD
ENDBRANCH  10  11
BRANCH  10  13
ATOM     13  C   UNL     1       6.548   5.120  14.076  0.00  0.00    +0.000 C 
BRANCH  13  14
ATOM     14  O   UNL     1       7.946   5.424  13.997  0.00  0.00    +0.000 OA
ATOM     15  H   UNL     1       8.377   4.574  13.777  0.00  0.00    +0.000 HD
ENDBRANCH  13  14
BRANCH  13  16
ATOM     16  C   UNL     1       6.324   3.757  13.409  0.00  0.00    +0.000 C 
BRANCH  16  17
ATOM     17  O   UNL     1       6.771   3.771  12.057  0.00  0.00    +0.000 OA
ATOM     18  H   UNL     1       6.177   4.378  11.578  0.00  0.00    +0.000 HD
ENDBRANCH  16  17
ENDBRANCH  13  16
ENDBRANCH  10  13
ENDBRANCH   7  10
ENDBRANCH   4   7
ENDBRANCH   1   4
BRANCH   1  19
ATOM     19  C   UNL     1       5.719   4.161  18.825  0.00  0.00    +0.000 C 
BRANCH  19  20
ATOM     20  N   UNL     1       4.234   4.181  18.915  0.00  0.00    +0.000 NA
ATOM     21  C   UNL     1       3.807   5.215  19.875  0.00  0.00    +0.000 C 
ATOM     22  C   UNL     1       2.289   5.414  19.930  0.00  0.00    +0.000 C 
ATOM     23  C   UNL     1       1.630   4.084  20.298  0.00  0.00    +0.000 C 
ATOM     24  C   UNL     1       2.027   3.006  19.279  0.00  0.00    +0.000 C 
ATOM     25  C   UNL     1       3.578   2.871  19.157  0.00  0.00    +0.000 C 
BRANCH  24  26
ATOM     26  O   UNL     1       1.460   1.734  19.645  0.00  0.00    +0.000 OA
ATOM     27  H   UNL     1       0.645   1.608  19.122  0.00  0.00    +0.000 HD
ENDBRANCH  24  26
BRANCH  23  28
ATOM     28  O   UNL     1       0.203   4.201  20.362  0.00  0.00    +0.000 OA
ATOM     29  H   UNL     1      -0.045   5.075  20.010  0.00  0.00    +0.000 HD
ENDBRANCH  23  28
BRANCH  22  30
ATOM     30  O   UNL     1       1.965   6.426  20.887  0.00  0.00    +0.000 OA
ATOM     31  H   UNL     1       1.409   6.030  21.581  0.00  0.00    +0.000 HD
ENDBRANCH  22  30
BRANCH  25  32
ATOM     32  C   UNL     1       3.868   1.822  18.044  0.00  0.00    +0.000 C 
BRANCH  32  33
ATOM     33  O   UNL     1       4.373   0.600  18.581  0.00  0.00    +0.000 OA
ATOM     34  H   UNL     1       5.351   0.703  18.638  0.00  0.00    +0.000 HD
ENDBRANCH  32  33
ENDBRANCH  25  32
ENDBRANCH  19  20
ENDBRANCH   1  19
TORSDOF 18
ENDMDL
