MODEL 1
REMARK VINA RESULT:      -8.6      0.000      0.000
REMARK  Name = 
REMARK  9 active torsions:
REMARK  status: ('A' for Active; 'I' for Inactive)
REMARK    1  A    between atoms: C_1  and  N_2
REMARK    2  A    between atoms: N_2  and  C_3
REMARK    3  A    between atoms: N_2  and  C_4
REMARK    4  A    between atoms: C_7  and  C_8
REMARK    5  A    between atoms: C_8  and  C_9
REMARK    6  A    between atoms: C_8  and  N_21
REMARK    7  A    between atoms: C_9  and  N_10
REMARK    8  A    between atoms: N_10  and  S_11
REMARK    9  A    between atoms: S_11  and  C_14
REMARK                            x       y       z     vdW  Elec       q    Type
REMARK                         _______ _______ _______ _____ _____    ______ ____
ROOT
ATOM      1  C   UNL     1       2.699   6.595  17.921  0.00  0.00    +0.000 C 
ENDROOT
BRANCH   1   2
ATOM      2  N   UNL     1       1.979   5.436  18.566  0.00  0.00    +0.000 N 
ATOM      3  C   UNL     1       1.613   4.398  17.531  0.00  0.00    +0.000 C 
ATOM      4  C   UNL     1       2.677   3.304  17.573  0.00  0.00    +0.000 C 
ATOM      5  C   UNL     1       2.650   3.203  19.051  0.00  0.00    +0.000 A 
ATOM      6  C   UNL     1       2.357   2.047  19.770  0.00  0.00    +0.000 A 
ATOM      7  C   UNL     1       1.982   2.186  21.096  0.00  0.00    +0.000 A 
ATOM      8  C   UNL     1       2.047   3.456  21.696  0.00  0.00    +0.000 A 
ATOM      9  C   UNL     1       2.335   4.622  20.944  0.00  0.00    +0.000 A 
ATOM     10  C   UNL     1       2.515   4.516  19.567  0.00  0.00    +0.000 A 
ENDBRANCH   1   2
BRANCH   1  14
ATOM     11  C   UNL     1       0.917  10.365  19.654  0.00  0.00    +0.000 A 
ATOM     12  C   UNL     1       1.155   9.204  20.415  0.00  0.00    +0.000 A 
ATOM     13  C   UNL     1       1.785   8.039  19.894  0.00  0.00    +0.000 A 
ATOM     14  C   UNL     1       2.240   7.974  18.569  0.00  0.00    +0.000 A 
ATOM     15  C   UNL     1       2.097   9.161  17.824  0.00  0.00    +0.000 A 
ATOM     16  C   UNL     1       1.436  10.309  18.349  0.00  0.00    +0.000 A 
BRANCH  11  18
ATOM     17  C   UNL     1       0.129  12.725  19.389  0.00  0.00    +0.000 C 
ATOM     18  N   UNL     1       0.225  11.475  20.154  0.00  0.00    +0.000 N 
ATOM     19  C   UNL     1      -0.298  11.504  21.520  0.00  0.00    +0.000 C 
ENDBRANCH  11  18
ENDBRANCH   1  14
BRANCH   1  20
ATOM     20  C   UNL     1       4.241   6.681  18.029  0.00  0.00    +0.000 C 
BRANCH  20  21
ATOM     21  N   UNL     1       5.033   6.813  16.790  0.00  0.00    +0.000 NA
ATOM     22  H   UNL     1       5.184   7.753  16.435  0.00  0.00    +0.000 HD
BRANCH  21  23
ATOM     23  S   UNL     1       6.504   5.951  16.824  0.00  0.00    +0.000 S 
ATOM     24  O   UNL     1       7.571   6.924  16.764  0.00  0.00    +0.000 OA
ATOM     25  O   UNL     1       6.419   4.996  17.906  0.00  0.00    +0.000 OA
BRANCH  23  26
ATOM     26  C   UNL     1       6.461   5.065  15.280  0.00  0.00    +0.000 A 
ATOM     27  C   UNL     1       7.504   5.246  14.365  0.00  0.00    +0.000 A 
ATOM     28  C   UNL     1       7.440   4.621  13.118  0.00  0.00    +0.000 A 
ATOM     29  C   UNL     1       6.345   3.819  12.801  0.00  0.00    +0.000 A 
ATOM     30  F   UNL     1       6.286   3.225  11.602  0.00  0.00    +0.000 F 
ATOM     31  C   UNL     1       5.307   3.630  13.709  0.00  0.00    +0.000 A 
ATOM     32  C   UNL     1       5.361   4.255  14.958  0.00  0.00    +0.000 A 
ENDBRANCH  23  26
ENDBRANCH  21  23
ENDBRANCH  20  21
ENDBRANCH   1  20
TORSDOF 7
ENDMDL
MODEL 2
REMARK VINA RESULT:      -8.5      0.293      1.116
REMARK  Name = 
REMARK  9 active torsions:
REMARK  status: ('A' for Active; 'I' for Inactive)
REMARK    1  A    between atoms: C_1  and  N_2
REMARK    2  A    between atoms: N_2  and  C_3
REMARK    3  A    between atoms: N_2  and  C_4
REMARK    4  A    between atoms: C_7  and  C_8
REMARK    5  A    between atoms: C_8  and  C_9
REMARK    6  A    between atoms: C_8  and  N_21
REMARK    7  A    between atoms: C_9  and  N_10
REMARK    8  A    between atoms: N_10  and  S_11
REMARK    9  A    between atoms: S_11  and  C_14
REMARK                            x       y       z     vdW  Elec       q    Type
REMARK                         _______ _______ _______ _____ _____    ______ ____
ROOT
ATOM      1  C   UNL     1       2.808   6.481  17.785  0.00  0.00    +0.000 C 
ENDROOT
BRANCH   1   2
ATOM      2  N   UNL     1       2.132   5.304  18.445  0.00  0.00    +0.000 N 
ATOM      3  C   UNL     1       1.938   4.181  17.453  0.00  0.00    +0.000 C 
ATOM      4  C   UNL     1       3.080   3.186  17.649  0.00  0.00    +0.000 C 
ATOM      5  C   UNL     1       2.937   3.168  19.123  0.00  0.00    +0.000 A 
ATOM      6  C   UNL     1       2.680   2.034  19.890  0.00  0.00    +0.000 A 
ATOM      7  C   UNL     1       2.185   2.216  21.171  0.00  0.00    +0.000 A 
ATOM      8  C   UNL     1       2.097   3.520  21.691  0.00  0.00    +0.000 A 
ATOM      9  C   UNL     1       2.352   4.661  20.890  0.00  0.00    +0.000 A 
ATOM     10  C   UNL     1       2.655   4.492  19.542  0.00  0.00    +0.000 A 
ENDBRANCH   1   2
BRANCH   1  14
ATOM     11  C   UNL     1       0.872  10.205  19.450  0.00  0.00    +0.000 A 
ATOM     12  C   UNL     1       1.134   9.060  20.226  0.00  0.00    +0.000 A 
ATOM     13  C   UNL     1       1.811   7.912  19.728  0.00  0.00    +0.000 A 
ATOM     14  C   UNL     1       2.292   7.850  18.412  0.00  0.00    +0.000 A 
ATOM     15  C   UNL     1       2.123   9.025  17.654  0.00  0.00    +0.000 A 
ATOM     16  C   UNL     1       1.416  10.155  18.155  0.00  0.00    +0.000 A 
BRANCH  11  18
ATOM     17  C   UNL     1      -0.422  11.308  21.287  0.00  0.00    +0.000 C 
ATOM     18  N   UNL     1       0.135  11.296  19.928  0.00  0.00    +0.000 N 
ATOM     19  C   UNL     1      -0.254  12.403  19.055  0.00  0.00    +0.000 C 
ENDBRANCH  11  18
ENDBRANCH   1  14
BRANCH   1  20
ATOM     20  C   UNL     1       4.344   6.630  17.896  0.00  0.00    +0.000 C 
BRANCH  20  21
ATOM     21  N   UNL     1       5.141   6.714  16.656  0.00  0.00    +0.000 NA
ATOM     22  H   UNL     1       5.379   7.643  16.321  0.00  0.00    +0.000 HD
BRANCH  21  23
ATOM     23  S   UNL     1       6.524   5.716  16.663  0.00  0.00    +0.000 S 
ATOM     24  O   UNL     1       7.676   6.584  16.761  0.00  0.00    +0.000 OA
ATOM     25  O   UNL     1       6.292   4.664  17.627  0.00  0.00    +0.000 OA
BRANCH  23  26
ATOM     26  C   UNL     1       6.489   5.007  15.030  0.00  0.00    +0.000 A 
ATOM     27  C   UNL     1       5.426   4.166  14.679  0.00  0.00    +0.000 A 
ATOM     28  C   UNL     1       5.430   3.539  13.432  0.00  0.00    +0.000 A 
ATOM     29  C   UNL     1       6.485   3.761  12.548  0.00  0.00    +0.000 A 
ATOM     30  F   UNL     1       6.486   3.154  11.355  0.00  0.00    +0.000 F 
ATOM     31  C   UNL     1       7.542   4.600  12.889  0.00  0.00    +0.000 A 
ATOM     32  C   UNL     1       7.548   5.230  14.138  0.00  0.00    +0.000 A 
ENDBRANCH  23  26
ENDBRANCH  21  23
ENDBRANCH  20  21
ENDBRANCH   1  20
TORSDOF 7
ENDMDL
MODEL 3
REMARK VINA RESULT:      -8.2      1.231      1.644
REMARK  Name = 
REMARK  9 active torsions:
REMARK  status: ('A' for Active; 'I' for Inactive)
REMARK    1  A    between atoms: C_1  and  N_2
REMARK    2  A    between atoms: N_2  and  C_3
REMARK    3  A    between atoms: N_2  and  C_4
REMARK    4  A    between atoms: C_7  and  C_8
REMARK    5  A    between atoms: C_8  and  C_9
REMARK    6  A    between atoms: C_8  and  N_21
REMARK    7  A    between atoms: C_9  and  N_10
REMARK    8  A    between atoms: N_10  and  S_11
REMARK    9  A    between atoms: S_11  and  C_14
REMARK                            x       y       z     vdW  Elec       q    Type
REMARK                         _______ _______ _______ _____ _____    ______ ____
ROOT
ATOM      1  C   UNL     1       2.592   6.388  17.885  0.00  0.00    +0.000 C 
ENDROOT
BRANCH   1   2
ATOM      2  N   UNL     1       1.827   5.294  18.589  0.00  0.00    +0.000 N 
ATOM      3  C   UNL     1       1.348   4.261  17.596  0.00  0.00    +0.000 C 
ATOM      4  C   UNL     1       2.339   3.100  17.619  0.00  0.00    +0.000 C 
ATOM      5  C   UNL     1       2.371   3.033  19.099  0.00  0.00    +0.000 A 
ATOM      6  C   UNL     1       2.035   1.914  19.858  0.00  0.00    +0.000 A 
ATOM      7  C   UNL     1       1.728   2.105  21.195  0.00  0.00    +0.000 A 
ATOM      8  C   UNL     1       1.904   3.381  21.760  0.00  0.00    +0.000 A 
ATOM      9  C   UNL     1       2.233   4.509  20.968  0.00  0.00    +0.000 A 
ATOM     10  C   UNL     1       2.345   4.362  19.588  0.00  0.00    +0.000 A 
ENDBRANCH   1   2
BRANCH   1  14
ATOM     11  C   UNL     1       1.082  10.313  19.531  0.00  0.00    +0.000 A 
ATOM     12  C   UNL     1       1.247   9.159  20.320  0.00  0.00    +0.000 A 
ATOM     13  C   UNL     1       1.792   7.941  19.826  0.00  0.00    +0.000 A 
ATOM     14  C   UNL     1       2.232   7.812  18.501  0.00  0.00    +0.000 A 
ATOM     15  C   UNL     1       2.164   8.986  17.727  0.00  0.00    +0.000 A 
ATOM     16  C   UNL     1       1.586  10.189  18.225  0.00  0.00    +0.000 A 
BRANCH  11  18
ATOM     17  C   UNL     1      -0.986  11.663  19.940  0.00  0.00    +0.000 C 
ATOM     18  N   UNL     1       0.470  11.480  20.007  0.00  0.00    +0.000 N 
ATOM     19  C   UNL     1       1.253  12.635  20.445  0.00  0.00    +0.000 C 
ENDBRANCH  11  18
ENDBRANCH   1  14
BRANCH   1  20
ATOM     20  C   UNL     1       4.138   6.388  17.947  0.00  0.00    +0.000 C 
BRANCH  20  21
ATOM     21  N   UNL     1       4.798   6.011  19.212  0.00  0.00    +0.000 NA
ATOM     22  H   UNL     1       4.198   5.727  19.982  0.00  0.00    +0.000 HD
BRANCH  21  23
ATOM     23  S   UNL     1       6.070   4.892  19.013  0.00  0.00    +0.000 S 
ATOM     24  O   UNL     1       7.268   5.509  19.537  0.00  0.00    +0.000 OA
ATOM     25  O   UNL     1       5.604   3.616  19.507  0.00  0.00    +0.000 OA
BRANCH  23  26
ATOM     26  C   UNL     1       6.215   4.795  17.240  0.00  0.00    +0.000 A 
ATOM     27  C   UNL     1       5.459   3.841  16.550  0.00  0.00    +0.000 A 
ATOM     28  C   UNL     1       5.625   3.699  15.171  0.00  0.00    +0.000 A 
ATOM     29  C   UNL     1       6.534   4.512  14.496  0.00  0.00    +0.000 A 
ATOM     30  F   UNL     1       6.693   4.370  13.174  0.00  0.00    +0.000 F 
ATOM     31  C   UNL     1       7.285   5.467  15.176  0.00  0.00    +0.000 A 
ATOM     32  C   UNL     1       7.128   5.613  16.558  0.00  0.00    +0.000 A 
ENDBRANCH  23  26
ENDBRANCH  21  23
ENDBRANCH  20  21
ENDBRANCH   1  20
TORSDOF 7
ENDMDL
MODEL 4
REMARK VINA RESULT:      -8.1      0.479      1.159
REMARK  Name = 
REMARK  9 active torsions:
REMARK  status: ('A' for Active; 'I' for Inactive)
REMARK    1  A    between atoms: C_1  and  N_2
REMARK    2  A    between atoms: N_2  and  C_3
REMARK    3  A    between atoms: N_2  and  C_4
REMARK    4  A    between atoms: C_7  and  C_8
REMARK    5  A    between atoms: C_8  and  C_9
REMARK    6  A    between atoms: C_8  and  N_21
REMARK    7  A    between atoms: C_9  and  N_10
REMARK    8  A    between atoms: N_10  and  S_11
REMARK    9  A    between atoms: S_11  and  C_14
REMARK                            x       y       z     vdW  Elec       q    Type
REMARK                         _______ _______ _______ _____ _____    ______ ____
ROOT
ATOM      1  C   UNL     1       2.871   6.352  17.883  0.00  0.00    +0.000 C 
ENDROOT
BRANCH   1   2
ATOM      2  N   UNL     1       2.307   5.110  18.531  0.00  0.00    +0.000 N 
ATOM      3  C   UNL     1       2.434   3.926  17.602  0.00  0.00    +0.000 C 
ATOM      4  C   UNL     1       3.682   3.146  18.012  0.00  0.00    +0.000 C 
ATOM      5  C   UNL     1       3.340   3.174  19.453  0.00  0.00    +0.000 A 
ATOM      6  C   UNL     1       3.163   2.051  20.257  0.00  0.00    +0.000 A 
ATOM      7  C   UNL     1       2.472   2.207  21.448  0.00  0.00    +0.000 A 
ATOM      8  C   UNL     1       2.107   3.501  21.860  0.00  0.00    +0.000 A 
ATOM      9  C   UNL     1       2.284   4.630  21.022  0.00  0.00    +0.000 A 
ATOM     10  C   UNL     1       2.795   4.450  19.740  0.00  0.00    +0.000 A 
ENDBRANCH   1   2
BRANCH   1  14
ATOM     11  C   UNL     1       1.260  10.223  19.559  0.00  0.00    +0.000 A 
ATOM     12  C   UNL     1       1.602  10.053  18.204  0.00  0.00    +0.000 A 
ATOM     13  C   UNL     1       2.039   8.816  17.653  0.00  0.00    +0.000 A 
ATOM     14  C   UNL     1       2.139   7.655  18.433  0.00  0.00    +0.000 A 
ATOM     15  C   UNL     1       1.707   7.786  19.767  0.00  0.00    +0.000 A 
ATOM     16  C   UNL     1       1.303   9.038  20.312  0.00  0.00    +0.000 A 
BRANCH  11  18
ATOM     17  C   UNL     1       0.037  11.563  21.283  0.00  0.00    +0.000 C 
ATOM     18  N   UNL     1       0.909  11.465  20.106  0.00  0.00    +0.000 N 
ATOM     19  C   UNL     1       1.258  12.722  19.446  0.00  0.00    +0.000 C 
ENDBRANCH  11  18
ENDBRANCH   1  14
BRANCH   1  20
ATOM     20  C   UNL     1       4.363   6.702  18.095  0.00  0.00    +0.000 C 
BRANCH  20  21
ATOM     21  N   UNL     1       5.206   6.967  16.912  0.00  0.00    +0.000 NA
ATOM     22  H   UNL     1       5.390   7.939  16.682  0.00  0.00    +0.000 HD
BRANCH  21  23
ATOM     23  S   UNL     1       6.657   6.070  16.892  0.00  0.00    +0.000 S 
ATOM     24  O   UNL     1       7.740   7.015  16.741  0.00  0.00    +0.000 OA
ATOM     25  O   UNL     1       6.612   5.151  18.007  0.00  0.00    +0.000 OA
BRANCH  23  26
ATOM     26  C   UNL     1       6.506   5.138  15.382  0.00  0.00    +0.000 A 
ATOM     27  C   UNL     1       7.501   5.263  14.406  0.00  0.00    +0.000 A 
ATOM     28  C   UNL     1       7.352   4.602  13.186  0.00  0.00    +0.000 A 
ATOM     29  C   UNL     1       6.222   3.820  12.954  0.00  0.00    +0.000 A 
ATOM     30  F   UNL     1       6.082   3.191  11.780  0.00  0.00    +0.000 F 
ATOM     31  C   UNL     1       5.231   3.688  13.923  0.00  0.00    +0.000 A 
ATOM     32  C   UNL     1       5.370   4.349  15.147  0.00  0.00    +0.000 A 
ENDBRANCH  23  26
ENDBRANCH  21  23
ENDBRANCH  20  21
ENDBRANCH   1  20
TORSDOF 7
ENDMDL
MODEL 5
REMARK VINA RESULT:      -7.7      2.760      3.368
REMARK  Name = 
REMARK  9 active torsions:
REMARK  status: ('A' for Active; 'I' for Inactive)
REMARK    1  A    between atoms: C_1  and  N_2
REMARK    2  A    between atoms: N_2  and  C_3
REMARK    3  A    between atoms: N_2  and  C_4
REMARK    4  A    between atoms: C_7  and  C_8
REMARK    5  A    between atoms: C_8  and  C_9
REMARK    6  A    between atoms: C_8  and  N_21
REMARK    7  A    between atoms: C_9  and  N_10
REMARK    8  A    between atoms: N_10  and  S_11
REMARK    9  A    between atoms: S_11  and  C_14
REMARK                            x       y       z     vdW  Elec       q    Type
REMARK                         _______ _______ _______ _____ _____    ______ ____
ROOT
ATOM      1  C   UNL     1       2.566   6.464  17.902  0.00  0.00    +0.000 C 
ENDROOT
BRANCH   1   2
ATOM      2  N   UNL     1       1.830   5.360  18.621  0.00  0.00    +0.000 N 
ATOM      3  C   UNL     1       1.319   4.336  17.635  0.00  0.00    +0.000 C 
ATOM      4  C   UNL     1       2.313   3.177  17.610  0.00  0.00    +0.000 C 
ATOM      5  C   UNL     1       2.397   3.095  19.087  0.00  0.00    +0.000 A 
ATOM      6  C   UNL     1       2.092   1.968  19.846  0.00  0.00    +0.000 A 
ATOM      7  C   UNL     1       1.833   2.144  21.195  0.00  0.00    +0.000 A 
ATOM      8  C   UNL     1       2.025   3.415  21.767  0.00  0.00    +0.000 A 
ATOM      9  C   UNL     1       2.323   4.552  20.975  0.00  0.00    +0.000 A 
ATOM     10  C   UNL     1       2.386   4.419  19.591  0.00  0.00    +0.000 A 
ENDBRANCH   1   2
BRANCH   1  14
ATOM     11  C   UNL     1       0.974  10.365  19.528  0.00  0.00    +0.000 A 
ATOM     12  C   UNL     1       1.202   9.231  20.330  0.00  0.00    +0.000 A 
ATOM     13  C   UNL     1       1.774   8.023  19.840  0.00  0.00    +0.000 A 
ATOM     14  C   UNL     1       2.177   7.885  18.504  0.00  0.00    +0.000 A 
ATOM     15  C   UNL     1       2.045   9.043  17.713  0.00  0.00    +0.000 A 
ATOM     16  C   UNL     1       1.442  10.234  18.209  0.00  0.00    +0.000 A 
BRANCH  11  18
ATOM     17  C   UNL     1      -0.822  11.438  20.901  0.00  0.00    +0.000 C 
ATOM     18  N   UNL     1       0.338  11.519  20.002  0.00  0.00    +0.000 N 
ATOM     19  C   UNL     1       0.688  12.849  19.508  0.00  0.00    +0.000 C 
ENDBRANCH  11  18
ENDBRANCH   1  14
BRANCH   1  20
ATOM     20  C   UNL     1       4.112   6.500  17.955  0.00  0.00    +0.000 C 
BRANCH  20  21
ATOM     21  N   UNL     1       4.864   5.281  17.596  0.00  0.00    +0.000 NA
ATOM     22  H   UNL     1       4.321   4.467  17.318  0.00  0.00    +0.000 HD
BRANCH  21  23
ATOM     23  S   UNL     1       6.124   5.559  16.481  0.00  0.00    +0.000 S 
ATOM     24  O   UNL     1       6.859   4.321  16.349  0.00  0.00    +0.000 OA
ATOM     25  O   UNL     1       5.545   6.214  15.329  0.00  0.00    +0.000 OA
BRANCH  23  26
ATOM     26  C   UNL     1       7.145   6.732  17.347  0.00  0.00    +0.000 A 
ATOM     27  C   UNL     1       7.815   6.322  18.507  0.00  0.00    +0.000 A 
ATOM     28  C   UNL     1       8.551   7.254  19.240  0.00  0.00    +0.000 A 
ATOM     29  C   UNL     1       8.619   8.578  18.808  0.00  0.00    +0.000 A 
ATOM     30  F   UNL     1       9.324   9.468  19.518  0.00  0.00    +0.000 F 
ATOM     31  C   UNL     1       7.961   8.990  17.653  0.00  0.00    +0.000 A 
ATOM     32  C   UNL     1       7.217   8.064  16.915  0.00  0.00    +0.000 A 
ENDBRANCH  23  26
ENDBRANCH  21  23
ENDBRANCH  20  21
ENDBRANCH   1  20
TORSDOF 7
ENDMDL
MODEL 6
REMARK VINA RESULT:      -7.7      1.023      1.436
REMARK  Name = 
REMARK  9 active torsions:
REMARK  status: ('A' for Active; 'I' for Inactive)
REMARK    1  A    between atoms: C_1  and  N_2
REMARK    2  A    between atoms: N_2  and  C_3
REMARK    3  A    between atoms: N_2  and  C_4
REMARK    4  A    between atoms: C_7  and  C_8
REMARK    5  A    between atoms: C_8  and  C_9
REMARK    6  A    between atoms: C_8  and  N_21
REMARK    7  A    between atoms: C_9  and  N_10
REMARK    8  A    between atoms: N_10  and  S_11
REMARK    9  A    between atoms: S_11  and  C_14
REMARK                            x       y       z     vdW  Elec       q    Type
REMARK                         _______ _______ _______ _____ _____    ______ ____
ROOT
ATOM      1  C   UNL     1       3.297   6.083  17.684  0.00  0.00    +0.000 C 
ENDROOT
BRANCH   1   2
ATOM      2  N   UNL     1       2.824   4.751  18.214  0.00  0.00    +0.000 N 
ATOM      3  C   UNL     1       3.887   3.696  18.017  0.00  0.00    +0.000 C 
ATOM      4  C   UNL     1       4.648   3.552  19.333  0.00  0.00    +0.000 C 
ATOM      5  C   UNL     1       3.414   3.497  20.150  0.00  0.00    +0.000 A 
ATOM      6  C   UNL     1       3.055   2.446  20.990  0.00  0.00    +0.000 A 
ATOM      7  C   UNL     1       1.727   2.343  21.371  0.00  0.00    +0.000 A 
ATOM      8  C   UNL     1       0.834   3.370  21.016  0.00  0.00    +0.000 A 
ATOM      9  C   UNL     1       1.215   4.424  20.150  0.00  0.00    +0.000 A 
ATOM     10  C   UNL     1       2.494   4.423  19.600  0.00  0.00    +0.000 A 
ENDBRANCH   1   2
BRANCH   1  14
ATOM     11  C   UNL     1       0.908   9.215  19.891  0.00  0.00    +0.000 A 
ATOM     12  C   UNL     1       1.564   8.149  20.537  0.00  0.00    +0.000 A 
ATOM     13  C   UNL     1       2.380   7.202  19.857  0.00  0.00    +0.000 A 
ATOM     14  C   UNL     1       2.608   7.280  18.476  0.00  0.00    +0.000 A 
ATOM     15  C   UNL     1       2.039   8.396  17.833  0.00  0.00    +0.000 A 
ATOM     16  C   UNL     1       1.199   9.318  18.520  0.00  0.00    +0.000 A 
BRANCH  11  18
ATOM     17  C   UNL     1      -0.451  11.317  19.913  0.00  0.00    +0.000 C 
ATOM     18  N   UNL     1       0.043  10.093  20.558  0.00  0.00    +0.000 N 
ATOM     19  C   UNL     1      -0.283   9.924  21.973  0.00  0.00    +0.000 C 
ENDBRANCH  11  18
ENDBRANCH   1  14
BRANCH   1  20
ATOM     20  C   UNL     1       4.798   6.445  17.785  0.00  0.00    +0.000 C 
BRANCH  20  21
ATOM     21  N   UNL     1       5.530   6.789  16.550  0.00  0.00    +0.000 NA
ATOM     22  H   UNL     1       5.716   7.774  16.380  0.00  0.00    +0.000 HD
BRANCH  21  23
ATOM     23  S   UNL     1       6.949   5.873  16.319  0.00  0.00    +0.000 S 
ATOM     24  O   UNL     1       8.028   6.806  16.087  0.00  0.00    +0.000 OA
ATOM     25  O   UNL     1       7.014   4.900  17.387  0.00  0.00    +0.000 OA
BRANCH  23  26
ATOM     26  C   UNL     1       6.605   5.018  14.794  0.00  0.00    +0.000 A 
ATOM     27  C   UNL     1       5.424   4.275  14.685  0.00  0.00    +0.000 A 
ATOM     28  C   UNL     1       5.183   3.535  13.527  0.00  0.00    +0.000 A 
ATOM     29  C   UNL     1       6.114   3.549  12.490  0.00  0.00    +0.000 A 
ATOM     30  F   UNL     1       5.880   2.833  11.382  0.00  0.00    +0.000 F 
ATOM     31  C   UNL     1       7.288   4.290  12.590  0.00  0.00    +0.000 A 
ATOM     32  C   UNL     1       7.540   5.032  13.748  0.00  0.00    +0.000 A 
ENDBRANCH  23  26
ENDBRANCH  21  23
ENDBRANCH  20  21
ENDBRANCH   1  20
TORSDOF 7
ENDMDL
MODEL 7
REMARK VINA RESULT:      -7.7      5.494     10.124
REMARK  Name = 
REMARK  9 active torsions:
REMARK  status: ('A' for Active; 'I' for Inactive)
REMARK    1  A    between atoms: C_1  and  N_2
REMARK    2  A    between atoms: N_2  and  C_3
REMARK    3  A    between atoms: N_2  and  C_4
REMARK    4  A    between atoms: C_7  and  C_8
REMARK    5  A    between atoms: C_8  and  C_9
REMARK    6  A    between atoms: C_8  and  N_21
REMARK    7  A    between atoms: C_9  and  N_10
REMARK    8  A    between atoms: N_10  and  S_11
REMARK    9  A    between atoms: S_11  and  C_14
REMARK                            x       y       z     vdW  Elec       q    Type
REMARK                         _______ _______ _______ _____ _____    ______ ____
ROOT
ATOM      1  C   UNL     1       0.854  10.571  18.819  0.00  0.00    +0.000 C 
ENDROOT
BRANCH   1   2
ATOM      2  N   UNL     1       0.799  11.393  20.084  0.00  0.00    +0.000 N 
ATOM      3  C   UNL     1       1.275  12.802  19.820  0.00  0.00    +0.000 C 
ATOM      4  C   UNL     1       0.041  13.679  19.615  0.00  0.00    +0.000 C 
ATOM      5  C   UNL     1      -0.658  13.133  20.802  0.00  0.00    +0.000 A 
ATOM      6  C   UNL     1      -1.101  13.885  21.887  0.00  0.00    +0.000 A 
ATOM      7  C   UNL     1      -1.368  13.220  23.072  0.00  0.00    +0.000 A 
ATOM      8  C   UNL     1      -1.320  11.814  23.092  0.00  0.00    +0.000 A 
ATOM      9  C   UNL     1      -0.855  11.068  21.981  0.00  0.00    +0.000 A 
ATOM     10  C   UNL     1      -0.392  11.743  20.855  0.00  0.00    +0.000 A 
ENDBRANCH   1   2
BRANCH   1  14
ATOM     11  C   UNL     1       2.350   6.356  19.440  0.00  0.00    +0.000 A 
ATOM     12  C   UNL     1       2.523   7.066  18.236  0.00  0.00    +0.000 A 
ATOM     13  C   UNL     1       2.121   8.419  18.058  0.00  0.00    +0.000 A 
ATOM     14  C   UNL     1       1.536   9.159  19.095  0.00  0.00    +0.000 A 
ATOM     15  C   UNL     1       1.445   8.493  20.333  0.00  0.00    +0.000 A 
ATOM     16  C   UNL     1       1.822   7.129  20.488  0.00  0.00    +0.000 A 
BRANCH  11  18
ATOM     17  C   UNL     1       1.810   4.077  20.323  0.00  0.00    +0.000 C 
ATOM     18  N   UNL     1       2.676   5.000  19.578  0.00  0.00    +0.000 N 
ATOM     19  C   UNL     1       3.962   4.469  19.129  0.00  0.00    +0.000 C 
ENDBRANCH  11  18
ENDBRANCH   1  14
BRANCH   1  20
ATOM     20  C   UNL     1      -0.469  10.165  18.126  0.00  0.00    +0.000 C 
BRANCH  20  21
ATOM     21  N   UNL     1      -1.272  11.210  17.461  0.00  0.00    +0.000 NA
ATOM     22  H   UNL     1      -0.798  11.797  16.780  0.00  0.00    +0.000 HD
BRANCH  21  23
ATOM     23  S   UNL     1      -2.746  10.637  16.822  0.00  0.00    +0.000 S 
ATOM     24  O   UNL     1      -2.786  11.022  15.429  0.00  0.00    +0.000 OA
ATOM     25  O   UNL     1      -2.881   9.254  17.223  0.00  0.00    +0.000 OA
BRANCH  23  26
ATOM     26  C   UNL     1      -3.947  11.605  17.710  0.00  0.00    +0.000 A 
ATOM     27  C   UNL     1      -3.676  11.976  19.032  0.00  0.00    +0.000 A 
ATOM     28  C   UNL     1      -4.645  12.664  19.765  0.00  0.00    +0.000 A 
ATOM     29  C   UNL     1      -5.866  12.980  19.173  0.00  0.00    +0.000 A 
ATOM     30  F   UNL     1      -6.794  13.637  19.882  0.00  0.00    +0.000 F 
ATOM     31  C   UNL     1      -6.140  12.619  17.857  0.00  0.00    +0.000 A 
ATOM     32  C   UNL     1      -5.177  11.927  17.116  0.00  0.00    +0.000 A 
ENDBRANCH  23  26
ENDBRANCH  21  23
ENDBRANCH  20  21
ENDBRANCH   1  20
TORSDOF 7
ENDMDL
MODEL 8
REMARK VINA RESULT:      -7.7      5.468     10.028
REMARK  Name = 
REMARK  9 active torsions:
REMARK  status: ('A' for Active; 'I' for Inactive)
REMARK    1  A    between atoms: C_1  and  N_2
REMARK    2  A    between atoms: N_2  and  C_3
REMARK    3  A    between atoms: N_2  and  C_4
REMARK    4  A    between atoms: C_7  and  C_8
REMARK    5  A    between atoms: C_8  and  C_9
REMARK    6  A    between atoms: C_8  and  N_21
REMARK    7  A    between atoms: C_9  and  N_10
REMARK    8  A    between atoms: N_10  and  S_11
REMARK    9  A    between atoms: S_11  and  C_14
REMARK                            x       y       z     vdW  Elec       q    Type
REMARK                         _______ _______ _______ _____ _____    ______ ____
ROOT
ATOM      1  C   UNL     1       0.822  10.388  18.660  0.00  0.00    +0.000 C 
ENDROOT
BRANCH   1   2
ATOM      2  N   UNL     1       0.850  11.097  19.992  0.00  0.00    +0.000 N 
ATOM      3  C   UNL     1       1.518  12.446  19.859  0.00  0.00    +0.000 C 
ATOM      4  C   UNL     1       0.418  13.497  19.720  0.00  0.00    +0.000 C 
ATOM      5  C   UNL     1      -0.375  12.951  20.846  0.00  0.00    +0.000 A 
ATOM      6  C   UNL     1      -0.737  13.660  21.989  0.00  0.00    +0.000 A 
ATOM      7  C   UNL     1      -1.119  12.936  23.107  0.00  0.00    +0.000 A 
ATOM      8  C   UNL     1      -1.261  11.541  23.002  0.00  0.00    +0.000 A 
ATOM      9  C   UNL     1      -0.875  10.838  21.834  0.00  0.00    +0.000 A 
ATOM     10  C   UNL     1      -0.300  11.538  20.778  0.00  0.00    +0.000 A 
ENDBRANCH   1   2
BRANCH   1  14
ATOM     11  C   UNL     1       3.035   6.489  19.195  0.00  0.00    +0.000 A 
ATOM     12  C   UNL     1       2.214   7.052  20.191  0.00  0.00    +0.000 A 
ATOM     13  C   UNL     1       1.455   8.241  20.003  0.00  0.00    +0.000 A 
ATOM     14  C   UNL     1       1.455   8.933  18.783  0.00  0.00    +0.000 A 
ATOM     15  C   UNL     1       2.194   8.328  17.748  0.00  0.00    +0.000 A 
ATOM     16  C   UNL     1       2.974   7.156  17.960  0.00  0.00    +0.000 A 
BRANCH  11  18
ATOM     17  C   UNL     1       3.285   4.125  19.981  0.00  0.00    +0.000 C 
ATOM     18  N   UNL     1       3.839   5.364  19.418  0.00  0.00    +0.000 N 
ATOM     19  C   UNL     1       5.292   5.412  19.255  0.00  0.00    +0.000 C 
ENDBRANCH  11  18
ENDBRANCH   1  14
BRANCH   1  20
ATOM     20  C   UNL     1      -0.542  10.095  17.989  0.00  0.00    +0.000 C 
BRANCH  20  21
ATOM     21  N   UNL     1      -1.328  11.226  17.456  0.00  0.00    +0.000 NA
ATOM     22  H   UNL     1      -0.859  11.851  16.807  0.00  0.00    +0.000 HD
BRANCH  21  23
ATOM     23  S   UNL     1      -2.851  10.768  16.838  0.00  0.00    +0.000 S 
ATOM     24  O   UNL     1      -3.033  11.469  15.588  0.00  0.00    +0.000 OA
ATOM     25  O   UNL     1      -2.929   9.326  16.910  0.00  0.00    +0.000 OA
BRANCH  23  26
ATOM     26  C   UNL     1      -3.970  11.456  18.040  0.00  0.00    +0.000 A 
ATOM     27  C   UNL     1      -3.446  12.156  19.133  0.00  0.00    +0.000 A 
ATOM     28  C   UNL     1      -4.308  12.628  20.123  0.00  0.00    +0.000 A 
ATOM     29  C   UNL     1      -5.680  12.407  20.011  0.00  0.00    +0.000 A 
ATOM     30  F   UNL     1      -6.502  12.859  20.967  0.00  0.00    +0.000 F 
ATOM     31  C   UNL     1      -6.208  11.717  18.924  0.00  0.00    +0.000 A 
ATOM     32  C   UNL     1      -5.352  11.237  17.929  0.00  0.00    +0.000 A 
ENDBRANCH  23  26
ENDBRANCH  21  23
ENDBRANCH  20  21
ENDBRANCH   1  20
TORSDOF 7
ENDMDL
MODEL 9
REMARK VINA RESULT:      -7.6      5.789     10.600
REMARK  Name = 
REMARK  9 active torsions:
REMARK  status: ('A' for Active; 'I' for Inactive)
REMARK    1  A    between atoms: C_1  and  N_2
REMARK    2  A    between atoms: N_2  and  C_3
REMARK    3  A    between atoms: N_2  and  C_4
REMARK    4  A    between atoms: C_7  and  C_8
REMARK    5  A    between atoms: C_8  and  C_9
REMARK    6  A    between atoms: C_8  and  N_21
REMARK    7  A    between atoms: C_9  and  N_10
REMARK    8  A    between atoms: N_10  and  S_11
REMARK    9  A    between atoms: S_11  and  C_14
REMARK                            x       y       z     vdW  Elec       q    Type
REMARK                         _______ _______ _______ _____ _____    ______ ____
ROOT
ATOM      1  C   UNL     1       0.149  11.265  18.854  0.00  0.00    +0.000 C 
ENDROOT
BRANCH   1   2
ATOM      2  N   UNL     1       0.134  12.052  20.141  0.00  0.00    +0.000 N 
ATOM      3  C   UNL     1       0.491  13.496  19.882  0.00  0.00    +0.000 C 
ATOM      4  C   UNL     1      -0.811  14.289  19.793  0.00  0.00    +0.000 C 
ATOM      5  C   UNL     1      -1.381  13.669  21.012  0.00  0.00    +0.000 A 
ATOM      6  C   UNL     1      -1.792  14.364  22.147  0.00  0.00    +0.000 A 
ATOM      7  C   UNL     1      -1.924  13.655  23.329  0.00  0.00    +0.000 A 
ATOM      8  C   UNL     1      -1.779  12.256  23.306  0.00  0.00    +0.000 A 
ATOM      9  C   UNL     1      -1.348  11.569  22.144  0.00  0.00    +0.000 A 
ATOM     10  C   UNL     1      -1.018  12.300  21.006  0.00  0.00    +0.000 A 
ENDBRANCH   1   2
BRANCH   1  14
ATOM     11  C   UNL     1       2.358   7.332  19.074  0.00  0.00    +0.000 A 
ATOM     12  C   UNL     1       2.389   8.171  17.944  0.00  0.00    +0.000 A 
ATOM     13  C   UNL     1       1.758   9.446  17.895  0.00  0.00    +0.000 A 
ATOM     14  C   UNL     1       1.068   9.972  18.996  0.00  0.00    +0.000 A 
ATOM     15  C   UNL     1       1.111   9.187  20.165  0.00  0.00    +0.000 A 
ATOM     16  C   UNL     1       1.719   7.900  20.190  0.00  0.00    +0.000 A 
BRANCH  11  18
ATOM     17  C   UNL     1       3.682   5.536  17.940  0.00  0.00    +0.000 C 
ATOM     18  N   UNL     1       2.914   6.047  19.084  0.00  0.00    +0.000 N 
ATOM     19  C   UNL     1       2.629   5.093  20.155  0.00  0.00    +0.000 C 
ENDBRANCH  11  18
ENDBRANCH   1  14
BRANCH   1  20
ATOM     20  C   UNL     1      -1.174  10.667  18.318  0.00  0.00    +0.000 C 
BRANCH  20  21
ATOM     21  N   UNL     1      -2.186  11.579  17.749  0.00  0.00    +0.000 NA
ATOM     22  H   UNL     1      -1.876  12.221  17.025  0.00  0.00    +0.000 HD
BRANCH  21  23
ATOM     23  S   UNL     1      -3.620  10.792  17.266  0.00  0.00    +0.000 S 
ATOM     24  O   UNL     1      -3.993  11.336  15.979  0.00  0.00    +0.000 OA
ATOM     25  O   UNL     1      -3.418   9.373  17.452  0.00  0.00    +0.000 OA
BRANCH  23  26
ATOM     26  C   UNL     1      -4.793  11.362  18.480  0.00  0.00    +0.000 A 
ATOM     27  C   UNL     1      -4.367  12.262  19.464  0.00  0.00    +0.000 A 
ATOM     28  C   UNL     1      -5.254  12.650  20.468  0.00  0.00    +0.000 A 
ATOM     29  C   UNL     1      -6.554  12.146  20.479  0.00  0.00    +0.000 A 
ATOM     30  F   UNL     1      -7.400  12.519  21.447  0.00  0.00    +0.000 F 
ATOM     31  C   UNL     1      -6.985  11.255  19.500  0.00  0.00    +0.000 A 
ATOM     32  C   UNL     1      -6.102  10.858  18.491  0.00  0.00    +0.000 A 
ENDBRANCH  23  26
ENDBRANCH  21  23
ENDBRANCH  20  21
ENDBRANCH   1  20
TORSDOF 7
ENDMDL
