MODEL 1
REMARK VINA RESULT:      -7.1      0.000      0.000
REMARK  Name = 
REMARK  4 active torsions:
REMARK  status: ('A' for Active; 'I' for Inactive)
REMARK    1  A    between atoms: C_1  and  C_2
REMARK    2  A    between atoms: C_6  and  C_7
REMARK    3  A    between atoms: N_17  and  C_18
REMARK    4  A    between atoms: N_19  and  C_20
REMARK                            x       y       z     vdW  Elec       q    Type
REMARK                         _______ _______ _______ _____ _____    ______ ____
ROOT
ATOM      1  C   UNL     1       6.439   3.986  15.452  0.00  0.00    +0.000 C 
ATOM      2  O   UNL     1       5.869   2.899  15.559  0.00  0.00    +0.000 OA
ATOM      3  N   UNL     1       6.574   4.849  16.566  0.00  0.00    +0.000 N 
ATOM      4  C   UNL     1       7.148   6.196  16.478  0.00  0.00    +0.000 C 
ATOM      5  C   UNL     1       6.614   7.242  17.452  0.00  0.00    +0.000 C 
ATOM      6  C   UNL     1       5.090   7.364  17.388  0.00  0.00    +0.000 C 
ATOM      7  C   UNL     1       4.389   6.233  18.081  0.00  0.00    +0.000 A 
ATOM      8  C   UNL     1       4.899   5.008  18.311  0.00  0.00    +0.000 A 
ATOM      9  C   UNL     1       3.903   4.322  19.177  0.00  0.00    +0.000 A 
ATOM     10  O   UNL     1       4.026   3.193  19.626  0.00  0.00    +0.000 OA
ATOM     11  N   UNL     1       2.875   5.226  19.382  0.00  0.00    +0.000 N 
ATOM     12  C   UNL     1       1.651   4.975  20.092  0.00  0.00    +0.000 C 
ATOM     13  N   UNL     1       3.135   6.381  18.649  0.00  0.00    +0.000 N 
ATOM     14  C   UNL     1       2.322   7.574  18.728  0.00  0.00    +0.000 C 
ATOM     15  C   UNL     1       6.155   4.353  17.882  0.00  0.00    +0.000 C 
ENDROOT
BRANCH   1  21
ATOM     16  C   UNL     1       5.497   3.200  12.407  0.00  0.00    +0.000 C 
ATOM     17  C   UNL     1       6.556   4.141  12.853  0.00  0.00    +0.000 A 
ATOM     18  C   UNL     1       7.354   4.962  12.004  0.00  0.00    +0.000 A 
ATOM     19  C   UNL     1       8.211   5.655  12.819  0.00  0.00    +0.000 A 
ATOM     20  O   UNL     1       8.015   5.301  14.109  0.00  0.00    +0.000 OA
ATOM     21  C   UNL     1       6.948   4.439  14.155  0.00  0.00    +0.000 A 
ENDBRANCH   1  21
TORSDOF 1
ENDMDL
MODEL 2
REMARK VINA RESULT:      -6.6      2.908      4.751
REMARK  Name = 
REMARK  4 active torsions:
REMARK  status: ('A' for Active; 'I' for Inactive)
REMARK    1  A    between atoms: C_1  and  C_2
REMARK    2  A    between atoms: C_6  and  C_7
REMARK    3  A    between atoms: N_17  and  C_18
REMARK    4  A    between atoms: N_19  and  C_20
REMARK                            x       y       z     vdW  Elec       q    Type
REMARK                         _______ _______ _______ _____ _____    ______ ____
ROOT
ATOM      1  C   UNL     1       5.191   6.828  17.400  0.00  0.00    +0.000 C 
ATOM      2  O   UNL     1       5.443   7.948  16.954  0.00  0.00    +0.000 OA
ATOM      3  N   UNL     1       3.859   6.440  17.681  0.00  0.00    +0.000 N 
ATOM      4  C   UNL     1       3.506   5.163  18.310  0.00  0.00    +0.000 C 
ATOM      5  C   UNL     1       2.259   5.144  19.188  0.00  0.00    +0.000 C 
ATOM      6  C   UNL     1       2.304   6.218  20.276  0.00  0.00    +0.000 C 
ATOM      7  C   UNL     1       2.017   7.592  19.747  0.00  0.00    +0.000 A 
ATOM      8  C   UNL     1       2.179   7.999  18.473  0.00  0.00    +0.000 A 
ATOM      9  C   UNL     1       1.592   9.364  18.416  0.00  0.00    +0.000 A 
ATOM     10  O   UNL     1       1.521  10.055  17.412  0.00  0.00    +0.000 OA
ATOM     11  N   UNL     1       1.126   9.642  19.690  0.00  0.00    +0.000 N 
ATOM     12  C   UNL     1       0.551  10.882  20.133  0.00  0.00    +0.000 C 
ATOM     13  N   UNL     1       1.450   8.581  20.532  0.00  0.00    +0.000 N 
ATOM     14  C   UNL     1       1.009   8.492  21.906  0.00  0.00    +0.000 C 
ATOM     15  C   UNL     1       2.775   7.346  17.285  0.00  0.00    +0.000 C 
ENDROOT
BRANCH   1  21
ATOM     16  C   UNL     1       6.404   4.349  15.622  0.00  0.00    +0.000 C 
ATOM     17  C   UNL     1       6.817   4.838  16.962  0.00  0.00    +0.000 A 
ATOM     18  C   UNL     1       7.908   4.341  17.732  0.00  0.00    +0.000 A 
ATOM     19  C   UNL     1       7.922   5.056  18.902  0.00  0.00    +0.000 A 
ATOM     20  O   UNL     1       6.903   5.943  18.917  0.00  0.00    +0.000 OA
ATOM     21  C   UNL     1       6.269   5.883  17.702  0.00  0.00    +0.000 A 
ENDBRANCH   1  21
TORSDOF 1
ENDMDL
MODEL 3
REMARK VINA RESULT:      -6.5      8.800     13.033
REMARK  Name = 
REMARK  4 active torsions:
REMARK  status: ('A' for Active; 'I' for Inactive)
REMARK    1  A    between atoms: C_1  and  C_2
REMARK    2  A    between atoms: C_6  and  C_7
REMARK    3  A    between atoms: N_17  and  C_18
REMARK    4  A    between atoms: N_19  and  C_20
REMARK                            x       y       z     vdW  Elec       q    Type
REMARK                         _______ _______ _______ _____ _____    ______ ____
ROOT
ATOM      1  C   UNL     1      -4.463  12.474  19.974  0.00  0.00    +0.000 C 
ATOM      2  O   UNL     1      -4.391  11.834  18.924  0.00  0.00    +0.000 OA
ATOM      3  N   UNL     1      -3.294  12.913  20.640  0.00  0.00    +0.000 N 
ATOM      4  C   UNL     1      -3.312  13.585  21.944  0.00  0.00    +0.000 C 
ATOM      5  C   UNL     1      -2.110  13.362  22.856  0.00  0.00    +0.000 C 
ATOM      6  C   UNL     1      -1.830  11.876  23.087  0.00  0.00    +0.000 C 
ATOM      7  C   UNL     1      -1.170  11.221  21.910  0.00  0.00    +0.000 A 
ATOM      8  C   UNL     1      -1.227  11.645  20.633  0.00  0.00    +0.000 A 
ATOM      9  C   UNL     1      -0.275  10.781  19.886  0.00  0.00    +0.000 A 
ATOM     10  O   UNL     1      -0.024  10.881  18.695  0.00  0.00    +0.000 OA
ATOM     11  N   UNL     1       0.270   9.908  20.812  0.00  0.00    +0.000 N 
ATOM     12  C   UNL     1       1.182   8.833  20.534  0.00  0.00    +0.000 C 
ATOM     13  N   UNL     1      -0.332  10.127  22.049  0.00  0.00    +0.000 N 
ATOM     14  C   UNL     1       0.085   9.466  23.265  0.00  0.00    +0.000 C 
ATOM     15  C   UNL     1      -2.002  12.720  19.972  0.00  0.00    +0.000 C 
ENDROOT
BRANCH   1  21
ATOM     16  C   UNL     1      -6.482  15.036  19.606  0.00  0.00    +0.000 C 
ATOM     17  C   UNL     1      -6.647  13.818  20.439  0.00  0.00    +0.000 A 
ATOM     18  C   UNL     1      -7.793  13.491  21.221  0.00  0.00    +0.000 A 
ATOM     19  C   UNL     1      -7.520  12.299  21.840  0.00  0.00    +0.000 A 
ATOM     20  O   UNL     1      -6.277  11.880  21.515  0.00  0.00    +0.000 OA
ATOM     21  C   UNL     1      -5.762  12.754  20.591  0.00  0.00    +0.000 A 
ENDBRANCH   1  21
TORSDOF 1
ENDMDL
MODEL 4
REMARK VINA RESULT:      -6.4      4.529      8.776
REMARK  Name = 
REMARK  4 active torsions:
REMARK  status: ('A' for Active; 'I' for Inactive)
REMARK    1  A    between atoms: C_1  and  C_2
REMARK    2  A    between atoms: C_6  and  C_7
REMARK    3  A    between atoms: N_17  and  C_18
REMARK    4  A    between atoms: N_19  and  C_20
REMARK                            x       y       z     vdW  Elec       q    Type
REMARK                         _______ _______ _______ _____ _____    ______ ____
ROOT
ATOM      1  C   UNL     1       0.943  10.100  21.539  0.00  0.00    +0.000 C 
ATOM      2  O   UNL     1       1.384   9.546  22.547  0.00  0.00    +0.000 OA
ATOM      3  N   UNL     1       0.613   9.351  20.384  0.00  0.00    +0.000 N 
ATOM      4  C   UNL     1       0.185   9.963  19.121  0.00  0.00    +0.000 C 
ATOM      5  C   UNL     1       0.549   9.225  17.836  0.00  0.00    +0.000 C 
ATOM      6  C   UNL     1       2.048   8.933  17.744  0.00  0.00    +0.000 C 
ATOM      7  C   UNL     1       2.471   7.792  18.622  0.00  0.00    +0.000 A 
ATOM      8  C   UNL     1       1.825   7.359  19.721  0.00  0.00    +0.000 A 
ATOM      9  C   UNL     1       2.526   6.111  20.125  0.00  0.00    +0.000 A 
ATOM     10  O   UNL     1       2.210   5.404  21.069  0.00  0.00    +0.000 OA
ATOM     11  N   UNL     1       3.542   5.918  19.204  0.00  0.00    +0.000 N 
ATOM     12  C   UNL     1       4.535   4.880  19.239  0.00  0.00    +0.000 C 
ATOM     13  N   UNL     1       3.558   6.992  18.317  0.00  0.00    +0.000 N 
ATOM     14  C   UNL     1       4.419   7.053  17.157  0.00  0.00    +0.000 C 
ATOM     15  C   UNL     1       0.662   7.887  20.469  0.00  0.00    +0.000 C 
ENDROOT
BRANCH   1  21
ATOM     16  C   UNL     1      -1.556  12.021  22.453  0.00  0.00    +0.000 C 
ATOM     17  C   UNL     1      -0.237  12.398  21.886  0.00  0.00    +0.000 A 
ATOM     18  C   UNL     1       0.235  13.727  21.683  0.00  0.00    +0.000 A 
ATOM     19  C   UNL     1       1.484  13.620  21.127  0.00  0.00    +0.000 A 
ATOM     20  O   UNL     1       1.805  12.320  20.949  0.00  0.00    +0.000 OA
ATOM     21  C   UNL     1       0.799  11.557  21.488  0.00  0.00    +0.000 A 
ENDBRANCH   1  21
TORSDOF 1
ENDMDL
MODEL 5
REMARK VINA RESULT:      -6.4      3.864      7.339
REMARK  Name = 
REMARK  4 active torsions:
REMARK  status: ('A' for Active; 'I' for Inactive)
REMARK    1  A    between atoms: C_1  and  C_2
REMARK    2  A    between atoms: C_6  and  C_7
REMARK    3  A    between atoms: N_17  and  C_18
REMARK    4  A    between atoms: N_19  and  C_20
REMARK                            x       y       z     vdW  Elec       q    Type
REMARK                         _______ _______ _______ _____ _____    ______ ____
ROOT
ATOM      1  C   UNL     1       1.644   8.975  18.356  0.00  0.00    +0.000 C 
ATOM      2  O   UNL     1       2.029   8.998  17.186  0.00  0.00    +0.000 OA
ATOM      3  N   UNL     1       2.146   8.014  19.267  0.00  0.00    +0.000 N 
ATOM      4  C   UNL     1       1.651   7.869  20.640  0.00  0.00    +0.000 C 
ATOM      5  C   UNL     1       1.691   6.470  21.246  0.00  0.00    +0.000 C 
ATOM      6  C   UNL     1       0.977   5.440  20.367  0.00  0.00    +0.000 C 
ATOM      7  C   UNL     1       1.786   5.040  19.170  0.00  0.00    +0.000 A 
ATOM      8  C   UNL     1       2.763   5.768  18.596  0.00  0.00    +0.000 A 
ATOM      9  C   UNL     1       3.375   4.874  17.577  0.00  0.00    +0.000 A 
ATOM     10  O   UNL     1       4.322   5.168  16.865  0.00  0.00    +0.000 OA
ATOM     11  N   UNL     1       2.688   3.674  17.647  0.00  0.00    +0.000 N 
ATOM     12  C   UNL     1       2.877   2.535  16.791  0.00  0.00    +0.000 C 
ATOM     13  N   UNL     1       1.659   3.795  18.578  0.00  0.00    +0.000 N 
ATOM     14  C   UNL     1       0.819   2.691  18.984  0.00  0.00    +0.000 C 
ATOM     15  C   UNL     1       3.246   7.149  18.826  0.00  0.00    +0.000 C 
ENDROOT
BRANCH   1  21
ATOM     16  C   UNL     1      -1.364   9.582  17.191  0.00  0.00    +0.000 C 
ATOM     17  C   UNL     1      -0.672  10.170  18.365  0.00  0.00    +0.000 A 
ATOM     18  C   UNL     1      -1.234  11.104  19.284  0.00  0.00    +0.000 A 
ATOM     19  C   UNL     1      -0.254  11.396  20.197  0.00  0.00    +0.000 A 
ATOM     20  O   UNL     1       0.881  10.728  19.892  0.00  0.00    +0.000 OA
ATOM     21  C   UNL     1       0.617   9.907  18.825  0.00  0.00    +0.000 A 
ENDBRANCH   1  21
TORSDOF 1
ENDMDL
MODEL 6
REMARK VINA RESULT:      -6.4      9.410     13.868
REMARK  Name = 
REMARK  4 active torsions:
REMARK  status: ('A' for Active; 'I' for Inactive)
REMARK    1  A    between atoms: C_1  and  C_2
REMARK    2  A    between atoms: C_6  and  C_7
REMARK    3  A    between atoms: N_17  and  C_18
REMARK    4  A    between atoms: N_19  and  C_20
REMARK                            x       y       z     vdW  Elec       q    Type
REMARK                         _______ _______ _______ _____ _____    ______ ____
ROOT
ATOM      1  C   UNL     1      -4.692  13.456  21.342  0.00  0.00    +0.000 C 
ATOM      2  O   UNL     1      -5.043  13.301  20.172  0.00  0.00    +0.000 OA
ATOM      3  N   UNL     1      -3.325  13.606  21.677  0.00  0.00    +0.000 N 
ATOM      4  C   UNL     1      -2.836  13.687  23.058  0.00  0.00    +0.000 C 
ATOM      5  C   UNL     1      -1.442  13.133  23.334  0.00  0.00    +0.000 C 
ATOM      6  C   UNL     1      -1.291  11.688  22.857  0.00  0.00    +0.000 C 
ATOM      7  C   UNL     1      -1.134  11.583  21.369  0.00  0.00    +0.000 A 
ATOM      8  C   UNL     1      -1.547  12.490  20.463  0.00  0.00    +0.000 A 
ATOM      9  C   UNL     1      -1.003  12.024  19.160  0.00  0.00    +0.000 A 
ATOM     10  O   UNL     1      -1.139  12.606  18.095  0.00  0.00    +0.000 OA
ATOM     11  N   UNL     1      -0.302  10.859  19.423  0.00  0.00    +0.000 N 
ATOM     12  C   UNL     1       0.329  10.008  18.453  0.00  0.00    +0.000 C 
ATOM     13  N   UNL     1      -0.441  10.543  20.773  0.00  0.00    +0.000 N 
ATOM     14  C   UNL     1       0.260   9.451  21.411  0.00  0.00    +0.000 C 
ATOM     15  C   UNL     1      -2.352  13.727  20.585  0.00  0.00    +0.000 C 
ENDROOT
BRANCH   1  21
ATOM     16  C   UNL     1      -6.105  15.928  22.974  0.00  0.00    +0.000 C 
ATOM     17  C   UNL     1      -6.306  14.464  23.122  0.00  0.00    +0.000 A 
ATOM     18  C   UNL     1      -7.239  13.834  23.996  0.00  0.00    +0.000 A 
ATOM     19  C   UNL     1      -7.083  12.483  23.830  0.00  0.00    +0.000 A 
ATOM     20  O   UNL     1      -6.102  12.234  22.933  0.00  0.00    +0.000 OA
ATOM     21  C   UNL     1      -5.675  13.436  22.427  0.00  0.00    +0.000 A 
ENDBRANCH   1  21
TORSDOF 1
ENDMDL
MODEL 7
REMARK VINA RESULT:      -6.3      8.120     12.104
REMARK  Name = 
REMARK  4 active torsions:
REMARK  status: ('A' for Active; 'I' for Inactive)
REMARK    1  A    between atoms: C_1  and  C_2
REMARK    2  A    between atoms: C_6  and  C_7
REMARK    3  A    between atoms: N_17  and  C_18
REMARK    4  A    between atoms: N_19  and  C_20
REMARK                            x       y       z     vdW  Elec       q    Type
REMARK                         _______ _______ _______ _____ _____    ______ ____
ROOT
ATOM      1  C   UNL     1      -4.112  11.632  18.723  0.00  0.00    +0.000 C 
ATOM      2  O   UNL     1      -3.930  10.748  17.885  0.00  0.00    +0.000 OA
ATOM      3  N   UNL     1      -3.018  12.245  19.382  0.00  0.00    +0.000 N 
ATOM      4  C   UNL     1      -3.174  13.225  20.462  0.00  0.00    +0.000 C 
ATOM      5  C   UNL     1      -2.084  13.260  21.528  0.00  0.00    +0.000 C 
ATOM      6  C   UNL     1      -1.849  11.886  22.158  0.00  0.00    +0.000 C 
ATOM      7  C   UNL     1      -1.069  10.965  21.266  0.00  0.00    +0.000 A 
ATOM      8  C   UNL     1      -0.979  11.051  19.926  0.00  0.00    +0.000 A 
ATOM      9  C   UNL     1       0.041  10.043  19.532  0.00  0.00    +0.000 A 
ATOM     10  O   UNL     1       0.424   9.842  18.391  0.00  0.00    +0.000 OA
ATOM     11  N   UNL     1       0.468   9.442  20.704  0.00  0.00    +0.000 N 
ATOM     12  C   UNL     1       1.392   8.347  20.811  0.00  0.00    +0.000 C 
ATOM     13  N   UNL     1      -0.266   9.957  21.770  0.00  0.00    +0.000 N 
ATOM     14  C   UNL     1       0.005   9.633  23.153  0.00  0.00    +0.000 C 
ATOM     15  C   UNL     1      -1.662  11.911  18.932  0.00  0.00    +0.000 C 
ENDROOT
BRANCH   1  21
ATOM     16  C   UNL     1      -6.375  13.309  17.039  0.00  0.00    +0.000 C 
ATOM     17  C   UNL     1      -6.454  12.728  18.403  0.00  0.00    +0.000 A 
ATOM     18  C   UNL     1      -7.602  12.737  19.249  0.00  0.00    +0.000 A 
ATOM     19  C   UNL     1      -7.235  12.117  20.415  0.00  0.00    +0.000 A 
ATOM     20  O   UNL     1      -5.936  11.747  20.358  0.00  0.00    +0.000 OA
ATOM     21  C   UNL     1      -5.467  12.037  19.102  0.00  0.00    +0.000 A 
ENDBRANCH   1  21
TORSDOF 1
ENDMDL
MODEL 8
REMARK VINA RESULT:      -6.3      4.527      6.674
REMARK  Name = 
REMARK  4 active torsions:
REMARK  status: ('A' for Active; 'I' for Inactive)
REMARK    1  A    between atoms: C_1  and  C_2
REMARK    2  A    between atoms: C_6  and  C_7
REMARK    3  A    between atoms: N_17  and  C_18
REMARK    4  A    between atoms: N_19  and  C_20
REMARK                            x       y       z     vdW  Elec       q    Type
REMARK                         _______ _______ _______ _____ _____    ______ ____
ROOT
ATOM      1  C   UNL     1       1.990   6.080  20.096  0.00  0.00    +0.000 C 
ATOM      2  O   UNL     1       1.527   5.863  21.216  0.00  0.00    +0.000 OA
ATOM      3  N   UNL     1       2.289   7.399  19.676  0.00  0.00    +0.000 N 
ATOM      4  C   UNL     1       2.742   7.731  18.321  0.00  0.00    +0.000 C 
ATOM      5  C   UNL     1       2.348   9.100  17.775  0.00  0.00    +0.000 C 
ATOM      6  C   UNL     1       0.838   9.336  17.847  0.00  0.00    +0.000 C 
ATOM      7  C   UNL     1       0.368   9.657  19.235  0.00  0.00    +0.000 A 
ATOM      8  C   UNL     1       0.994   9.324  20.380  0.00  0.00    +0.000 A 
ATOM      9  C   UNL     1       0.242  10.018  21.459  0.00  0.00    +0.000 A 
ATOM     10  O   UNL     1       0.527   9.984  22.645  0.00  0.00    +0.000 OA
ATOM     11  N   UNL     1      -0.782  10.713  20.836  0.00  0.00    +0.000 N 
ATOM     12  C   UNL     1      -1.817  11.466  21.488  0.00  0.00    +0.000 C 
ATOM     13  N   UNL     1      -0.752  10.436  19.472  0.00  0.00    +0.000 N 
ATOM     14  C   UNL     1      -1.610  11.089  18.508  0.00  0.00    +0.000 C 
ATOM     15  C   UNL     1       2.179   8.481  20.661  0.00  0.00    +0.000 C 
ENDROOT
BRANCH   1  21
ATOM     16  C   UNL     1       4.757   4.622  19.101  0.00  0.00    +0.000 C 
ATOM     17  C   UNL     1       3.351   4.334  18.721  0.00  0.00    +0.000 A 
ATOM     18  C   UNL     1       2.917   3.282  17.863  0.00  0.00    +0.000 A 
ATOM     19  C   UNL     1       1.554   3.389  17.767  0.00  0.00    +0.000 A 
ATOM     20  O   UNL     1       1.118   4.447  18.487  0.00  0.00    +0.000 OA
ATOM     21  C   UNL     1       2.195   4.985  19.145  0.00  0.00    +0.000 A 
ENDBRANCH   1  21
TORSDOF 1
ENDMDL
MODEL 9
REMARK VINA RESULT:      -6.2      8.472     10.034
REMARK  Name = 
REMARK  4 active torsions:
REMARK  status: ('A' for Active; 'I' for Inactive)
REMARK    1  A    between atoms: C_1  and  C_2
REMARK    2  A    between atoms: C_6  and  C_7
REMARK    3  A    between atoms: N_17  and  C_18
REMARK    4  A    between atoms: N_19  and  C_20
REMARK                            x       y       z     vdW  Elec       q    Type
REMARK                         _______ _______ _______ _____ _____    ______ ____
ROOT
ATOM      1  C   UNL     1       9.171  13.156  20.488  0.00  0.00    +0.000 C 
ATOM      2  O   UNL     1       8.693  12.548  21.445  0.00  0.00    +0.000 OA
ATOM      3  N   UNL     1       8.656  14.415  20.095  0.00  0.00    +0.000 N 
ATOM      4  C   UNL     1       9.112  15.138  18.902  0.00  0.00    +0.000 C 
ATOM      5  C   UNL     1       8.090  16.019  18.192  0.00  0.00    +0.000 C 
ATOM      6  C   UNL     1       6.818  15.249  17.829  0.00  0.00    +0.000 C 
ATOM      7  C   UNL     1       5.926  15.014  19.011  0.00  0.00    +0.000 A 
ATOM      8  C   UNL     1       6.310  14.993  20.301  0.00  0.00    +0.000 A 
ATOM      9  C   UNL     1       5.050  14.911  21.087  0.00  0.00    +0.000 A 
ATOM     10  O   UNL     1       4.985  14.902  22.307  0.00  0.00    +0.000 OA
ATOM     11  N   UNL     1       4.016  14.891  20.167  0.00  0.00    +0.000 N 
ATOM     12  C   UNL     1       2.618  14.736  20.463  0.00  0.00    +0.000 C 
ATOM     13  N   UNL     1       4.553  14.882  18.882  0.00  0.00    +0.000 N 
ATOM     14  C   UNL     1       3.751  14.980  17.684  0.00  0.00    +0.000 C 
ATOM     15  C   UNL     1       7.641  15.045  20.947  0.00  0.00    +0.000 C 
ENDROOT
BRANCH   1  21
ATOM     16  C   UNL     1       9.098  10.800  18.204  0.00  0.00    +0.000 C 
ATOM     17  C   UNL     1      10.251  11.589  18.707  0.00  0.00    +0.000 A 
ATOM     18  C   UNL     1      11.590  11.510  18.226  0.00  0.00    +0.000 A 
ATOM     19  C   UNL     1      12.330  12.387  18.975  0.00  0.00    +0.000 A 
ATOM     20  O   UNL     1      11.547  12.984  19.901  0.00  0.00    +0.000 OA
ATOM     21  C   UNL     1      10.255  12.571  19.695  0.00  0.00    +0.000 A 
ENDBRANCH   1  21
TORSDOF 1
ENDMDL
