MODEL 1
REMARK VINA RESULT:      -8.1      0.000      0.000
REMARK  Name = 
REMARK  8 active torsions:
REMARK  status: ('A' for Active; 'I' for Inactive)
REMARK    1  A    between atoms: C_1  and  N_2
REMARK    2  A    between atoms: C_3  and  C_5
REMARK    3  A    between atoms: C_5  and  C_9
REMARK    4  A    between atoms: N_6  and  O_7
REMARK    5  A    between atoms: O_7  and  C_8
REMARK    6  A    between atoms: C_14  and  C_15
REMARK    7  A    between atoms: C_15  and  O_16
REMARK    8  A    between atoms: O_16  and  C_17
REMARK                            x       y       z     vdW  Elec       q    Type
REMARK                         _______ _______ _______ _____ _____    ______ ____
ROOT
ATOM      1  C   UNL     1       5.230   6.320  17.390  0.00  0.00    +0.000 A 
ATOM      2  C   UNL     1       4.293   7.137  16.720  0.00  0.00    +0.000 A 
ATOM      3  C   UNL     1       3.069   7.468  17.296  0.00  0.00    +0.000 A 
ATOM      4  C   UNL     1       2.765   7.000  18.567  0.00  0.00    +0.000 A 
ATOM      5  C   UNL     1       3.676   6.188  19.254  0.00  0.00    +0.000 A 
ATOM      6  C   UNL     1       4.916   5.808  18.684  0.00  0.00    +0.000 A 
ENDROOT
BRANCH   1   7
ATOM      7  C   UNL     1       6.537   6.138  16.668  0.00  0.00    +0.000 C 
ATOM      8  N   UNL     1       7.542   6.964  16.685  0.00  0.00    +0.000 NA
BRANCH   7  11
ATOM      9  C   UNL     1       7.528   4.722  13.278  0.00  0.00    +0.000 C 
ATOM     10  N   UNL     1       7.316   5.490  14.477  0.00  0.00    +0.000 N 
ATOM     11  C   UNL     1       6.693   5.023  15.613  0.00  0.00    +0.000 C 
ATOM     12  O   UNL     1       6.240   3.898  15.772  0.00  0.00    +0.000 OA
ATOM     13  H   UNL     1       7.711   6.428  14.549  0.00  0.00    +0.000 HD
ENDBRANCH   7  11
BRANCH   8  14
ATOM     14  O   UNL     1       7.198   8.152  17.316  0.00  0.00    +0.000 OA
ATOM     15  C   UNL     1       8.321   8.631  18.029  0.00  0.00    +0.000 C 
ENDBRANCH   8  14
ENDBRANCH   1   7
BRANCH   6  16
ATOM     16  C   UNL     1       5.753   4.795  19.484  0.00  0.00    +0.000 C 
BRANCH  16  17
ATOM     17  O   UNL     1       5.480   3.408  19.189  0.00  0.00    +0.000 OA
BRANCH  17  18
ATOM     18  C   UNL     1       4.154   3.034  19.141  0.00  0.00    +0.000 A 
ATOM     19  C   UNL     1       3.628   2.754  17.863  0.00  0.00    +0.000 A 
ATOM     20  C   UNL     1       2.280   2.432  17.677  0.00  0.00    +0.000 A 
ATOM     21  C   UNL     1       1.461   2.296  18.785  0.00  0.00    +0.000 A 
ATOM     22  F   UNL     1       0.175   1.957  18.621  0.00  0.00    +0.000 F 
ATOM     23  C   UNL     1       1.984   2.488  20.057  0.00  0.00    +0.000 A 
ATOM     24  F   UNL     1       1.206   2.305  21.134  0.00  0.00    +0.000 F 
ATOM     25  C   UNL     1       3.318   2.879  20.243  0.00  0.00    +0.000 A 
ENDBRANCH  17  18
ENDBRANCH  16  17
ENDBRANCH   6  16
TORSDOF 6
ENDMDL
MODEL 2
REMARK VINA RESULT:      -8.0      2.274      3.956
REMARK  Name = 
REMARK  8 active torsions:
REMARK  status: ('A' for Active; 'I' for Inactive)
REMARK    1  A    between atoms: C_1  and  N_2
REMARK    2  A    between atoms: C_3  and  C_5
REMARK    3  A    between atoms: C_5  and  C_9
REMARK    4  A    between atoms: N_6  and  O_7
REMARK    5  A    between atoms: O_7  and  C_8
REMARK    6  A    between atoms: C_14  and  C_15
REMARK    7  A    between atoms: C_15  and  O_16
REMARK    8  A    between atoms: O_16  and  C_17
REMARK                            x       y       z     vdW  Elec       q    Type
REMARK                         _______ _______ _______ _____ _____    ______ ____
ROOT
ATOM      1  C   UNL     1       5.479   4.792  17.390  0.00  0.00    +0.000 A 
ATOM      2  C   UNL     1       6.227   3.958  16.531  0.00  0.00    +0.000 A 
ATOM      3  C   UNL     1       6.399   4.266  15.183  0.00  0.00    +0.000 A 
ATOM      4  C   UNL     1       5.839   5.428  14.672  0.00  0.00    +0.000 A 
ATOM      5  C   UNL     1       5.092   6.273  15.503  0.00  0.00    +0.000 A 
ATOM      6  C   UNL     1       4.872   5.974  16.870  0.00  0.00    +0.000 A 
ENDROOT
BRANCH   1   7
ATOM      7  C   UNL     1       5.470   4.364  18.833  0.00  0.00    +0.000 C 
ATOM      8  N   UNL     1       6.120   4.937  19.804  0.00  0.00    +0.000 NA
BRANCH   7  11
ATOM      9  C   UNL     1       3.487   1.172  18.239  0.00  0.00    +0.000 C 
ATOM     10  N   UNL     1       4.233   2.401  18.169  0.00  0.00    +0.000 N 
ATOM     11  C   UNL     1       4.854   3.009  19.237  0.00  0.00    +0.000 C 
ATOM     12  O   UNL     1       4.870   2.596  20.388  0.00  0.00    +0.000 OA
ATOM     13  H   UNL     1       4.395   2.838  17.261  0.00  0.00    +0.000 HD
ENDBRANCH   7  11
BRANCH   8  14
ATOM     14  O   UNL     1       6.988   5.905  19.319  0.00  0.00    +0.000 OA
ATOM     15  C   UNL     1       8.317   5.502  19.586  0.00  0.00    +0.000 C 
ENDBRANCH   8  14
ENDBRANCH   1   7
BRANCH   6  16
ATOM     16  C   UNL     1       3.913   6.907  17.628  0.00  0.00    +0.000 C 
BRANCH  16  17
ATOM     17  O   UNL     1       2.520   6.533  17.567  0.00  0.00    +0.000 OA
BRANCH  17  18
ATOM     18  C   UNL     1       2.093   5.585  18.472  0.00  0.00    +0.000 A 
ATOM     19  C   UNL     1       2.321   5.872  19.834  0.00  0.00    +0.000 A 
ATOM     20  C   UNL     1       1.996   4.958  20.842  0.00  0.00    +0.000 A 
ATOM     21  C   UNL     1       1.351   3.781  20.503  0.00  0.00    +0.000 A 
ATOM     22  F   UNL     1       1.006   2.913  21.463  0.00  0.00    +0.000 F 
ATOM     23  C   UNL     1       1.045   3.522  19.174  0.00  0.00    +0.000 A 
ATOM     24  F   UNL     1       0.373   2.408  18.848  0.00  0.00    +0.000 F 
ATOM     25  C   UNL     1       1.431   4.403  18.153  0.00  0.00    +0.000 A 
ENDBRANCH  17  18
ENDBRANCH  16  17
ENDBRANCH   6  16
TORSDOF 6
ENDMDL
MODEL 3
REMARK VINA RESULT:      -7.9      3.354      5.103
REMARK  Name = 
REMARK  8 active torsions:
REMARK  status: ('A' for Active; 'I' for Inactive)
REMARK    1  A    between atoms: C_1  and  N_2
REMARK    2  A    between atoms: C_3  and  C_5
REMARK    3  A    between atoms: C_5  and  C_9
REMARK    4  A    between atoms: N_6  and  O_7
REMARK    5  A    between atoms: O_7  and  C_8
REMARK    6  A    between atoms: C_14  and  C_15
REMARK    7  A    between atoms: C_15  and  O_16
REMARK    8  A    between atoms: O_16  and  C_17
REMARK                            x       y       z     vdW  Elec       q    Type
REMARK                         _______ _______ _______ _____ _____    ______ ____
ROOT
ATOM      1  C   UNL     1       4.212   4.042  17.414  0.00  0.00    +0.000 A 
ATOM      2  C   UNL     1       3.799   2.694  17.332  0.00  0.00    +0.000 A 
ATOM      3  C   UNL     1       2.535   2.291  17.756  0.00  0.00    +0.000 A 
ATOM      4  C   UNL     1       1.650   3.236  18.255  0.00  0.00    +0.000 A 
ATOM      5  C   UNL     1       2.034   4.579  18.349  0.00  0.00    +0.000 A 
ATOM      6  C   UNL     1       3.322   5.017  17.956  0.00  0.00    +0.000 A 
ENDROOT
BRANCH   1   7
ATOM      7  C   UNL     1       5.570   4.322  16.829  0.00  0.00    +0.000 C 
ATOM      8  N   UNL     1       6.681   4.436  17.496  0.00  0.00    +0.000 NA
BRANCH   7  11
ATOM      9  C   UNL     1       6.408   3.802  13.154  0.00  0.00    +0.000 C 
ATOM     10  N   UNL     1       6.105   3.704  14.558  0.00  0.00    +0.000 N 
ATOM     11  C   UNL     1       5.706   4.755  15.355  0.00  0.00    +0.000 C 
ATOM     12  O   UNL     1       5.545   5.911  14.990  0.00  0.00    +0.000 OA
ATOM     13  H   UNL     1       6.103   2.788  15.008  0.00  0.00    +0.000 HD
ENDBRANCH   7  11
BRANCH   8  14
ATOM     14  O   UNL     1       6.441   4.448  18.864  0.00  0.00    +0.000 OA
ATOM     15  C   UNL     1       7.137   5.536  19.439  0.00  0.00    +0.000 C 
ENDBRANCH   8  14
ENDBRANCH   1   7
BRANCH   6  16
ATOM     16  C   UNL     1       3.663   6.489  18.249  0.00  0.00    +0.000 C 
BRANCH  16  17
ATOM     17  O   UNL     1       2.832   7.455  17.572  0.00  0.00    +0.000 OA
BRANCH  17  18
ATOM     18  C   UNL     1       2.067   8.281  18.368  0.00  0.00    +0.000 A 
ATOM     19  C   UNL     1       1.979   7.931  19.732  0.00  0.00    +0.000 A 
ATOM     20  C   UNL     1       1.178   8.650  20.625  0.00  0.00    +0.000 A 
ATOM     21  C   UNL     1       0.527   9.788  20.180  0.00  0.00    +0.000 A 
ATOM     22  F   UNL     1      -0.217  10.502  21.035  0.00  0.00    +0.000 F 
ATOM     23  C   UNL     1       0.670  10.192  18.860  0.00  0.00    +0.000 A 
ATOM     24  F   UNL     1       0.084  11.323  18.441  0.00  0.00    +0.000 F 
ATOM     25  C   UNL     1       1.416   9.436  17.944  0.00  0.00    +0.000 A 
ENDBRANCH  17  18
ENDBRANCH  16  17
ENDBRANCH   6  16
TORSDOF 6
ENDMDL
MODEL 4
REMARK VINA RESULT:      -7.8      3.110      4.879
REMARK  Name = 
REMARK  8 active torsions:
REMARK  status: ('A' for Active; 'I' for Inactive)
REMARK    1  A    between atoms: C_1  and  N_2
REMARK    2  A    between atoms: C_3  and  C_5
REMARK    3  A    between atoms: C_5  and  C_9
REMARK    4  A    between atoms: N_6  and  O_7
REMARK    5  A    between atoms: O_7  and  C_8
REMARK    6  A    between atoms: C_14  and  C_15
REMARK    7  A    between atoms: C_15  and  O_16
REMARK    8  A    between atoms: O_16  and  C_17
REMARK                            x       y       z     vdW  Elec       q    Type
REMARK                         _______ _______ _______ _____ _____    ______ ____
ROOT
ATOM      1  C   UNL     1       4.276   4.164  17.311  0.00  0.00    +0.000 A 
ATOM      2  C   UNL     1       3.881   2.808  17.328  0.00  0.00    +0.000 A 
ATOM      3  C   UNL     1       2.610   2.423  17.750  0.00  0.00    +0.000 A 
ATOM      4  C   UNL     1       1.701   3.393  18.147  0.00  0.00    +0.000 A 
ATOM      5  C   UNL     1       2.067   4.745  18.140  0.00  0.00    +0.000 A 
ATOM      6  C   UNL     1       3.360   5.167  17.747  0.00  0.00    +0.000 A 
ENDROOT
BRANCH   1   7
ATOM      7  C   UNL     1       5.646   4.414  16.741  0.00  0.00    +0.000 C 
ATOM      8  N   UNL     1       6.746   4.539  17.424  0.00  0.00    +0.000 NA
BRANCH   7  11
ATOM      9  C   UNL     1       6.458   3.751  13.083  0.00  0.00    +0.000 C 
ATOM     10  N   UNL     1       6.146   3.707  14.488  0.00  0.00    +0.000 N 
ATOM     11  C   UNL     1       5.811   4.800  15.257  0.00  0.00    +0.000 C 
ATOM     12  O   UNL     1       5.722   5.954  14.863  0.00  0.00    +0.000 OA
ATOM     13  H   UNL     1       6.087   2.805  14.961  0.00  0.00    +0.000 HD
ENDBRANCH   7  11
BRANCH   8  14
ATOM     14  O   UNL     1       6.484   4.595  18.785  0.00  0.00    +0.000 OA
ATOM     15  C   UNL     1       7.322   5.571  19.372  0.00  0.00    +0.000 C 
ENDBRANCH   8  14
ENDBRANCH   1   7
BRANCH   6  16
ATOM     16  C   UNL     1       3.675   6.662  17.929  0.00  0.00    +0.000 C 
BRANCH  16  17
ATOM     17  O   UNL     1       2.633   7.563  17.498  0.00  0.00    +0.000 OA
BRANCH  17  18
ATOM     18  C   UNL     1       2.019   8.315  18.479  0.00  0.00    +0.000 A 
ATOM     19  C   UNL     1       1.456   9.541  18.067  0.00  0.00    +0.000 A 
ATOM     20  C   UNL     1       0.869  10.423  18.980  0.00  0.00    +0.000 A 
ATOM     21  C   UNL     1       0.755  10.043  20.306  0.00  0.00    +0.000 A 
ATOM     22  F   UNL     1       0.165  10.866  21.183  0.00  0.00    +0.000 F 
ATOM     23  C   UNL     1       1.231   8.803  20.711  0.00  0.00    +0.000 A 
ATOM     24  F   UNL     1       1.074   8.411  21.984  0.00  0.00    +0.000 F 
ATOM     25  C   UNL     1       1.883   7.945  19.813  0.00  0.00    +0.000 A 
ENDBRANCH  17  18
ENDBRANCH  16  17
ENDBRANCH   6  16
TORSDOF 6
ENDMDL
MODEL 5
REMARK VINA RESULT:      -7.8      3.215      5.327
REMARK  Name = 
REMARK  8 active torsions:
REMARK  status: ('A' for Active; 'I' for Inactive)
REMARK    1  A    between atoms: C_1  and  N_2
REMARK    2  A    between atoms: C_3  and  C_5
REMARK    3  A    between atoms: C_5  and  C_9
REMARK    4  A    between atoms: N_6  and  O_7
REMARK    5  A    between atoms: O_7  and  C_8
REMARK    6  A    between atoms: C_14  and  C_15
REMARK    7  A    between atoms: C_15  and  O_16
REMARK    8  A    between atoms: O_16  and  C_17
REMARK                            x       y       z     vdW  Elec       q    Type
REMARK                         _______ _______ _______ _____ _____    ______ ____
ROOT
ATOM      1  C   UNL     1       5.266   4.547  16.991  0.00  0.00    +0.000 A 
ATOM      2  C   UNL     1       5.814   3.584  16.115  0.00  0.00    +0.000 A 
ATOM      3  C   UNL     1       6.082   3.880  14.780  0.00  0.00    +0.000 A 
ATOM      4  C   UNL     1       5.822   5.154  14.299  0.00  0.00    +0.000 A 
ATOM      5  C   UNL     1       5.278   6.129  15.145  0.00  0.00    +0.000 A 
ATOM      6  C   UNL     1       4.966   5.853  16.499  0.00  0.00    +0.000 A 
ENDROOT
BRANCH   1   7
ATOM      7  C   UNL     1       5.127   4.094  18.418  0.00  0.00    +0.000 C 
ATOM      8  N   UNL     1       6.040   4.182  19.341  0.00  0.00    +0.000 NA
BRANCH   7  11
ATOM      9  C   UNL     1       1.471   3.038  18.394  0.00  0.00    +0.000 C 
ATOM     10  N   UNL     1       2.780   3.590  18.160  0.00  0.00    +0.000 N 
ATOM     11  C   UNL     1       3.921   3.232  18.846  0.00  0.00    +0.000 C 
ATOM     12  O   UNL     1       3.990   2.399  19.738  0.00  0.00    +0.000 OA
ATOM     13  H   UNL     1       2.921   4.239  17.386  0.00  0.00    +0.000 HD
ENDBRANCH   7  11
BRANCH   8  14
ATOM     14  O   UNL     1       7.253   4.588  18.803  0.00  0.00    +0.000 OA
ATOM     15  C   UNL     1       7.647   5.796  19.425  0.00  0.00    +0.000 C 
ENDBRANCH   8  14
ENDBRANCH   1   7
BRANCH   6  16
ATOM     16  C   UNL     1       4.238   6.965  17.273  0.00  0.00    +0.000 C 
BRANCH  16  17
ATOM     17  O   UNL     1       2.951   6.595  17.811  0.00  0.00    +0.000 OA
BRANCH  17  18
ATOM     18  C   UNL     1       2.299   7.544  18.569  0.00  0.00    +0.000 A 
ATOM     19  C   UNL     1       1.815   8.674  17.877  0.00  0.00    +0.000 A 
ATOM     20  C   UNL     1       1.199   9.737  18.545  0.00  0.00    +0.000 A 
ATOM     21  C   UNL     1       0.976   9.638  19.908  0.00  0.00    +0.000 A 
ATOM     22  F   UNL     1       0.358  10.636  20.553  0.00  0.00    +0.000 F 
ATOM     23  C   UNL     1       1.373   8.496  20.590  0.00  0.00    +0.000 A 
ATOM     24  F   UNL     1       1.111   8.374  21.900  0.00  0.00    +0.000 F 
ATOM     25  C   UNL     1       2.054   7.458  19.936  0.00  0.00    +0.000 A 
ENDBRANCH  17  18
ENDBRANCH  16  17
ENDBRANCH   6  16
TORSDOF 6
ENDMDL
MODEL 6
REMARK VINA RESULT:      -7.7      2.059      4.082
REMARK  Name = 
REMARK  8 active torsions:
REMARK  status: ('A' for Active; 'I' for Inactive)
REMARK    1  A    between atoms: C_1  and  N_2
REMARK    2  A    between atoms: C_3  and  C_5
REMARK    3  A    between atoms: C_5  and  C_9
REMARK    4  A    between atoms: N_6  and  O_7
REMARK    5  A    between atoms: O_7  and  C_8
REMARK    6  A    between atoms: C_14  and  C_15
REMARK    7  A    between atoms: C_15  and  O_16
REMARK    8  A    between atoms: O_16  and  C_17
REMARK                            x       y       z     vdW  Elec       q    Type
REMARK                         _______ _______ _______ _____ _____    ______ ____
ROOT
ATOM      1  C   UNL     1       5.963   4.868  17.075  0.00  0.00    +0.000 A 
ATOM      2  C   UNL     1       6.559   3.945  16.188  0.00  0.00    +0.000 A 
ATOM      3  C   UNL     1       6.370   4.030  14.810  0.00  0.00    +0.000 A 
ATOM      4  C   UNL     1       5.593   5.055  14.291  0.00  0.00    +0.000 A 
ATOM      5  C   UNL     1       4.990   5.984  15.148  0.00  0.00    +0.000 A 
ATOM      6  C   UNL     1       5.136   5.908  16.555  0.00  0.00    +0.000 A 
ENDROOT
BRANCH   1   7
ATOM      7  C   UNL     1       6.344   4.689  18.520  0.00  0.00    +0.000 C 
ATOM      8  N   UNL     1       5.801   3.852  19.355  0.00  0.00    +0.000 NA
BRANCH   7  11
ATOM      9  C   UNL     1       8.506   7.816  18.681  0.00  0.00    +0.000 C 
ATOM     10  N   UNL     1       7.585   6.754  18.370  0.00  0.00    +0.000 N 
ATOM     11  C   UNL     1       7.283   5.702  19.207  0.00  0.00    +0.000 C 
ATOM     12  O   UNL     1       7.740   5.521  20.327  0.00  0.00    +0.000 OA
ATOM     13  H   UNL     1       7.045   6.795  17.506  0.00  0.00    +0.000 HD
ENDBRANCH   7  11
BRANCH   8  14
ATOM     14  O   UNL     1       4.680   3.251  18.799  0.00  0.00    +0.000 OA
ATOM     15  C   UNL     1       4.367   2.091  19.545  0.00  0.00    +0.000 C 
ENDBRANCH   8  14
ENDBRANCH   1   7
BRANCH   6  16
ATOM     16  C   UNL     1       4.302   6.900  17.384  0.00  0.00    +0.000 C 
BRANCH  16  17
ATOM     17  O   UNL     1       2.879   6.658  17.375  0.00  0.00    +0.000 OA
BRANCH  17  18
ATOM     18  C   UNL     1       2.402   5.731  18.279  0.00  0.00    +0.000 A 
ATOM     19  C   UNL     1       1.722   4.621  17.737  0.00  0.00    +0.000 A 
ATOM     20  C   UNL     1       1.132   3.650  18.554  0.00  0.00    +0.000 A 
ATOM     21  C   UNL     1       1.300   3.732  19.926  0.00  0.00    +0.000 A 
ATOM     22  F   UNL     1       0.767   2.790  20.715  0.00  0.00    +0.000 F 
ATOM     23  C   UNL     1       2.038   4.774  20.469  0.00  0.00    +0.000 A 
ATOM     24  F   UNL     1       2.246   4.826  21.793  0.00  0.00    +0.000 F 
ATOM     25  C   UNL     1       2.571   5.788  19.659  0.00  0.00    +0.000 A 
ENDBRANCH  17  18
ENDBRANCH  16  17
ENDBRANCH   6  16
TORSDOF 6
ENDMDL
MODEL 7
REMARK VINA RESULT:      -7.7      1.765      2.313
REMARK  Name = 
REMARK  8 active torsions:
REMARK  status: ('A' for Active; 'I' for Inactive)
REMARK    1  A    between atoms: C_1  and  N_2
REMARK    2  A    between atoms: C_3  and  C_5
REMARK    3  A    between atoms: C_5  and  C_9
REMARK    4  A    between atoms: N_6  and  O_7
REMARK    5  A    between atoms: O_7  and  C_8
REMARK    6  A    between atoms: C_14  and  C_15
REMARK    7  A    between atoms: C_15  and  O_16
REMARK    8  A    between atoms: O_16  and  C_17
REMARK                            x       y       z     vdW  Elec       q    Type
REMARK                         _______ _______ _______ _____ _____    ______ ____
ROOT
ATOM      1  C   UNL     1       5.124   5.417  16.957  0.00  0.00    +0.000 A 
ATOM      2  C   UNL     1       5.111   6.813  17.166  0.00  0.00    +0.000 A 
ATOM      3  C   UNL     1       3.971   7.473  17.620  0.00  0.00    +0.000 A 
ATOM      4  C   UNL     1       2.823   6.743  17.890  0.00  0.00    +0.000 A 
ATOM      5  C   UNL     1       2.808   5.356  17.691  0.00  0.00    +0.000 A 
ATOM      6  C   UNL     1       3.940   4.659  17.202  0.00  0.00    +0.000 A 
ENDROOT
BRANCH   1   7
ATOM      7  C   UNL     1       6.460   4.852  16.556  0.00  0.00    +0.000 C 
ATOM      8  N   UNL     1       7.410   4.489  17.367  0.00  0.00    +0.000 NA
BRANCH   7  11
ATOM      9  C   UNL     1       6.393   3.772  12.908  0.00  0.00    +0.000 C 
ATOM     10  N   UNL     1       6.163   4.032  14.305  0.00  0.00    +0.000 N 
ATOM     11  C   UNL     1       6.909   4.892  15.081  0.00  0.00    +0.000 C 
ATOM     12  O   UNL     1       7.861   5.559  14.701  0.00  0.00    +0.000 OA
ATOM     13  H   UNL     1       5.349   3.623  14.764  0.00  0.00    +0.000 HD
ENDBRANCH   7  11
BRANCH   8  14
ATOM     14  O   UNL     1       7.118   4.857  18.673  0.00  0.00    +0.000 OA
ATOM     15  C   UNL     1       8.071   5.809  19.103  0.00  0.00    +0.000 C 
ENDBRANCH   8  14
ENDBRANCH   1   7
BRANCH   6  16
ATOM     16  C   UNL     1       3.741   3.166  16.890  0.00  0.00    +0.000 C 
BRANCH  16  17
ATOM     17  O   UNL     1       3.974   2.273  18.000  0.00  0.00    +0.000 OA
BRANCH  17  18
ATOM     18  C   UNL     1       3.120   2.385  19.076  0.00  0.00    +0.000 A 
ATOM     19  C   UNL     1       3.720   2.410  20.352  0.00  0.00    +0.000 A 
ATOM     20  C   UNL     1       2.956   2.451  21.523  0.00  0.00    +0.000 A 
ATOM     21  C   UNL     1       1.579   2.563  21.426  0.00  0.00    +0.000 A 
ATOM     22  F   UNL     1       0.840   2.635  22.541  0.00  0.00    +0.000 F 
ATOM     23  C   UNL     1       0.979   2.623  20.175  0.00  0.00    +0.000 A 
ATOM     24  F   UNL     1      -0.349   2.785  20.079  0.00  0.00    +0.000 F 
ATOM     25  C   UNL     1       1.736   2.512  18.999  0.00  0.00    +0.000 A 
ENDBRANCH  17  18
ENDBRANCH  16  17
ENDBRANCH   6  16
TORSDOF 6
ENDMDL
MODEL 8
REMARK VINA RESULT:      -7.6      1.941      2.412
REMARK  Name = 
REMARK  8 active torsions:
REMARK  status: ('A' for Active; 'I' for Inactive)
REMARK    1  A    between atoms: C_1  and  N_2
REMARK    2  A    between atoms: C_3  and  C_5
REMARK    3  A    between atoms: C_5  and  C_9
REMARK    4  A    between atoms: N_6  and  O_7
REMARK    5  A    between atoms: O_7  and  C_8
REMARK    6  A    between atoms: C_14  and  C_15
REMARK    7  A    between atoms: C_15  and  O_16
REMARK    8  A    between atoms: O_16  and  C_17
REMARK                            x       y       z     vdW  Elec       q    Type
REMARK                         _______ _______ _______ _____ _____    ______ ____
ROOT
ATOM      1  C   UNL     1       5.146   5.443  16.903  0.00  0.00    +0.000 A 
ATOM      2  C   UNL     1       5.173   6.841  17.098  0.00  0.00    +0.000 A 
ATOM      3  C   UNL     1       4.052   7.537  17.546  0.00  0.00    +0.000 A 
ATOM      4  C   UNL     1       2.884   6.842  17.824  0.00  0.00    +0.000 A 
ATOM      5  C   UNL     1       2.830   5.454  17.639  0.00  0.00    +0.000 A 
ATOM      6  C   UNL     1       3.942   4.721  17.156  0.00  0.00    +0.000 A 
ENDROOT
BRANCH   1   7
ATOM      7  C   UNL     1       6.465   4.836  16.506  0.00  0.00    +0.000 C 
ATOM      8  N   UNL     1       7.396   4.432  17.321  0.00  0.00    +0.000 NA
BRANCH   7  11
ATOM      9  C   UNL     1       6.434   3.755  12.858  0.00  0.00    +0.000 C 
ATOM     10  N   UNL     1       6.191   4.015  14.253  0.00  0.00    +0.000 N 
ATOM     11  C   UNL     1       6.928   4.877  15.035  0.00  0.00    +0.000 C 
ATOM     12  O   UNL     1       7.883   5.544  14.664  0.00  0.00    +0.000 OA
ATOM     13  H   UNL     1       5.373   3.605  14.705  0.00  0.00    +0.000 HD
ENDBRANCH   7  11
BRANCH   8  14
ATOM     14  O   UNL     1       7.105   4.796  18.628  0.00  0.00    +0.000 OA
ATOM     15  C   UNL     1       8.065   5.738  19.064  0.00  0.00    +0.000 C 
ENDBRANCH   8  14
ENDBRANCH   1   7
BRANCH   6  16
ATOM     16  C   UNL     1       3.700   3.231  16.858  0.00  0.00    +0.000 C 
BRANCH  16  17
ATOM     17  O   UNL     1       2.405   2.731  17.254  0.00  0.00    +0.000 OA
BRANCH  17  18
ATOM     18  C   UNL     1       2.148   2.679  18.608  0.00  0.00    +0.000 A 
ATOM     19  C   UNL     1       0.817   2.929  19.003  0.00  0.00    +0.000 A 
ATOM     20  C   UNL     1       0.446   2.973  20.351  0.00  0.00    +0.000 A 
ATOM     21  C   UNL     1       1.390   2.674  21.319  0.00  0.00    +0.000 A 
ATOM     22  F   UNL     1       1.038   2.683  22.612  0.00  0.00    +0.000 F 
ATOM     23  C   UNL     1       2.684   2.345  20.942  0.00  0.00    +0.000 A 
ATOM     24  F   UNL     1       3.585   2.004  21.875  0.00  0.00    +0.000 F 
ATOM     25  C   UNL     1       3.078   2.368  19.595  0.00  0.00    +0.000 A 
ENDBRANCH  17  18
ENDBRANCH  16  17
ENDBRANCH   6  16
TORSDOF 6
ENDMDL
MODEL 9
REMARK VINA RESULT:      -7.6      2.345      4.105
REMARK  Name = 
REMARK  8 active torsions:
REMARK  status: ('A' for Active; 'I' for Inactive)
REMARK    1  A    between atoms: C_1  and  N_2
REMARK    2  A    between atoms: C_3  and  C_5
REMARK    3  A    between atoms: C_5  and  C_9
REMARK    4  A    between atoms: N_6  and  O_7
REMARK    5  A    between atoms: O_7  and  C_8
REMARK    6  A    between atoms: C_14  and  C_15
REMARK    7  A    between atoms: C_15  and  O_16
REMARK    8  A    between atoms: O_16  and  C_17
REMARK                            x       y       z     vdW  Elec       q    Type
REMARK                         _______ _______ _______ _____ _____    ______ ____
ROOT
ATOM      1  C   UNL     1       5.589   4.574  16.887  0.00  0.00    +0.000 A 
ATOM      2  C   UNL     1       6.090   3.702  15.896  0.00  0.00    +0.000 A 
ATOM      3  C   UNL     1       6.114   4.063  14.550  0.00  0.00    +0.000 A 
ATOM      4  C   UNL     1       5.652   5.315  14.172  0.00  0.00    +0.000 A 
ATOM      5  C   UNL     1       5.150   6.200  15.135  0.00  0.00    +0.000 A 
ATOM      6  C   UNL     1       5.083   5.853  16.506  0.00  0.00    +0.000 A 
ENDROOT
BRANCH   1   7
ATOM      7  C   UNL     1       5.722   4.068  18.297  0.00  0.00    +0.000 C 
ATOM      8  N   UNL     1       6.704   4.323  19.112  0.00  0.00    +0.000 NA
BRANCH   7  11
ATOM      9  C   UNL     1       4.387   1.624  20.891  0.00  0.00    +0.000 C 
ATOM     10  N   UNL     1       5.033   2.670  20.140  0.00  0.00    +0.000 N 
ATOM     11  C   UNL     1       4.780   2.963  18.818  0.00  0.00    +0.000 C 
ATOM     12  O   UNL     1       3.974   2.391  18.097  0.00  0.00    +0.000 OA
ATOM     13  H   UNL     1       5.673   3.306  20.615  0.00  0.00    +0.000 HD
ENDBRANCH   7  11
BRANCH   8  14
ATOM     14  O   UNL     1       7.733   4.987  18.458  0.00  0.00    +0.000 OA
ATOM     15  C   UNL     1       7.897   6.263  19.044  0.00  0.00    +0.000 C 
ENDBRANCH   8  14
ENDBRANCH   1   7
BRANCH   6  16
ATOM     16  C   UNL     1       4.374   6.857  17.431  0.00  0.00    +0.000 C 
BRANCH  16  17
ATOM     17  O   UNL     1       2.935   6.746  17.466  0.00  0.00    +0.000 OA
BRANCH  17  18
ATOM     18  C   UNL     1       2.407   5.796  18.314  0.00  0.00    +0.000 A 
ATOM     19  C   UNL     1       2.630   5.994  19.693  0.00  0.00    +0.000 A 
ATOM     20  C   UNL     1       2.204   5.064  20.647  0.00  0.00    +0.000 A 
ATOM     21  C   UNL     1       1.466   3.967  20.237  0.00  0.00    +0.000 A 
ATOM     22  F   UNL     1       1.027   3.087  21.146  0.00  0.00    +0.000 F 
ATOM     23  C   UNL     1       1.168   3.801  18.892  0.00  0.00    +0.000 A 
ATOM     24  F   UNL     1       0.409   2.768  18.498  0.00  0.00    +0.000 F 
ATOM     25  C   UNL     1       1.652   4.694  17.924  0.00  0.00    +0.000 A 
ENDBRANCH  17  18
ENDBRANCH  16  17
ENDBRANCH   6  16
TORSDOF 6
ENDMDL
