MODEL 1
REMARK VINA RESULT:      -7.5      0.000      0.000
REMARK  Name = 
REMARK  4 active torsions:
REMARK  status: ('A' for Active; 'I' for Inactive)
REMARK    1  A    between atoms: C_1  and  C_2
REMARK    2  A    between atoms: C_2  and  C_3
REMARK    3  A    between atoms: C_3  and  C_4
REMARK    4  A    between atoms: N_13  and  C_14
REMARK                            x       y       z     vdW  Elec       q    Type
REMARK                         _______ _______ _______ _____ _____    ______ ____
ROOT
ATOM      1  C   UNL     1       5.464   4.593  16.320  0.00  0.00    +0.000 C 
ATOM      2  N   UNL     1       6.564   3.972  17.030  0.00  0.00    +0.000 N 
ATOM      3  C   UNL     1       7.341   4.894  17.696  0.00  0.00    +0.000 C 
ATOM      4  O   UNL     1       8.208   4.590  18.497  0.00  0.00    +0.000 OA
ATOM      5  N   UNL     1       6.982   6.136  17.285  0.00  0.00    +0.000 N 
ATOM      6  C   UNL     1       7.621   7.361  17.698  0.00  0.00    +0.000 C 
ATOM      7  C   UNL     1       5.985   6.057  16.352  0.00  0.00    +0.000 C 
ATOM      8  O   UNL     1       5.541   6.994  15.700  0.00  0.00    +0.000 OA
ATOM      9  H   UNL     1       6.628   2.997  17.283  0.00  0.00    +0.000 HD
ENDROOT
BRANCH   1  10
ATOM     10  C   UNL     1       4.142   4.443  17.089  0.00  0.00    +0.000 A 
ATOM     11  C   UNL     1       3.462   3.212  17.142  0.00  0.00    +0.000 A 
ATOM     12  C   UNL     1       2.204   3.111  17.738  0.00  0.00    +0.000 A 
ATOM     13  C   UNL     1       1.599   4.236  18.289  0.00  0.00    +0.000 A 
ATOM     14  C   UNL     1       2.255   5.462  18.256  0.00  0.00    +0.000 A 
ATOM     15  C   UNL     1       3.513   5.566  17.658  0.00  0.00    +0.000 A 
ENDBRANCH   1  10
BRANCH   1  17
ATOM     16  C   UNL     1       6.463   4.072  13.980  0.00  0.00    +0.000 C 
ATOM     17  C   UNL     1       5.253   4.034  14.902  0.00  0.00    +0.000 C 
ENDBRANCH   1  17
TORSDOF 2
ENDMDL
MODEL 2
REMARK VINA RESULT:      -7.4      0.172      1.213
REMARK  Name = 
REMARK  4 active torsions:
REMARK  status: ('A' for Active; 'I' for Inactive)
REMARK    1  A    between atoms: C_1  and  C_2
REMARK    2  A    between atoms: C_2  and  C_3
REMARK    3  A    between atoms: C_3  and  C_4
REMARK    4  A    between atoms: N_13  and  C_14
REMARK                            x       y       z     vdW  Elec       q    Type
REMARK                         _______ _______ _______ _____ _____    ______ ____
ROOT
ATOM      1  C   UNL     1       5.392   4.639  16.323  0.00  0.00    +0.000 C 
ATOM      2  N   UNL     1       6.445   4.010  17.094  0.00  0.00    +0.000 N 
ATOM      3  C   UNL     1       7.232   4.931  17.749  0.00  0.00    +0.000 C 
ATOM      4  O   UNL     1       8.062   4.631  18.591  0.00  0.00    +0.000 OA
ATOM      5  N   UNL     1       6.931   6.167  17.277  0.00  0.00    +0.000 N 
ATOM      6  C   UNL     1       7.600   7.386  17.662  0.00  0.00    +0.000 C 
ATOM      7  C   UNL     1       5.963   6.085  16.315  0.00  0.00    +0.000 C 
ATOM      8  O   UNL     1       5.575   7.009  15.611  0.00  0.00    +0.000 OA
ATOM      9  H   UNL     1       6.466   3.045  17.388  0.00  0.00    +0.000 HD
ENDROOT
BRANCH   1  10
ATOM     10  C   UNL     1       4.041   4.566  17.052  0.00  0.00    +0.000 A 
ATOM     11  C   UNL     1       3.557   5.653  17.806  0.00  0.00    +0.000 A 
ATOM     12  C   UNL     1       2.390   5.539  18.563  0.00  0.00    +0.000 A 
ATOM     13  C   UNL     1       1.687   4.338  18.588  0.00  0.00    +0.000 A 
ATOM     14  C   UNL     1       2.142   3.253  17.846  0.00  0.00    +0.000 A 
ATOM     15  C   UNL     1       3.310   3.365  17.089  0.00  0.00    +0.000 A 
ENDBRANCH   1  10
BRANCH   1  17
ATOM     16  C   UNL     1       6.439   4.017  14.030  0.00  0.00    +0.000 C 
ATOM     17  C   UNL     1       5.207   4.030  14.922  0.00  0.00    +0.000 C 
ENDBRANCH   1  17
TORSDOF 2
ENDMDL
MODEL 3
REMARK VINA RESULT:      -6.8      2.983      4.912
REMARK  Name = 
REMARK  4 active torsions:
REMARK  status: ('A' for Active; 'I' for Inactive)
REMARK    1  A    between atoms: C_1  and  C_2
REMARK    2  A    between atoms: C_2  and  C_3
REMARK    3  A    between atoms: C_3  and  C_4
REMARK    4  A    between atoms: N_13  and  C_14
REMARK                            x       y       z     vdW  Elec       q    Type
REMARK                         _______ _______ _______ _____ _____    ______ ____
ROOT
ATOM      1  C   UNL     1       2.545   5.466  19.619  0.00  0.00    +0.000 C 
ATOM      2  N   UNL     1       3.896   5.282  20.109  0.00  0.00    +0.000 N 
ATOM      3  C   UNL     1       4.752   4.841  19.126  0.00  0.00    +0.000 C 
ATOM      4  O   UNL     1       5.963   4.787  19.260  0.00  0.00    +0.000 OA
ATOM      5  N   UNL     1       4.015   4.477  18.046  0.00  0.00    +0.000 N 
ATOM      6  C   UNL     1       4.548   3.890  16.840  0.00  0.00    +0.000 C 
ATOM      7  C   UNL     1       2.684   4.661  18.296  0.00  0.00    +0.000 C 
ATOM      8  O   UNL     1       1.764   4.304  17.570  0.00  0.00    +0.000 OA
ATOM      9  H   UNL     1       4.278   5.686  20.953  0.00  0.00    +0.000 HD
ENDROOT
BRANCH   1  10
ATOM     10  C   UNL     1       2.240   6.949  19.352  0.00  0.00    +0.000 A 
ATOM     11  C   UNL     1       1.627   7.757  20.328  0.00  0.00    +0.000 A 
ATOM     12  C   UNL     1       1.244   9.068  20.038  0.00  0.00    +0.000 A 
ATOM     13  C   UNL     1       1.459   9.595  18.769  0.00  0.00    +0.000 A 
ATOM     14  C   UNL     1       2.070   8.818  17.790  0.00  0.00    +0.000 A 
ATOM     15  C   UNL     1       2.453   7.505  18.077  0.00  0.00    +0.000 A 
ENDBRANCH   1  10
BRANCH   1  17
ATOM     16  C   UNL     1       1.650   3.492  21.049  0.00  0.00    +0.000 C 
ATOM     17  C   UNL     1       1.465   4.924  20.571  0.00  0.00    +0.000 C 
ENDBRANCH   1  17
TORSDOF 2
ENDMDL
MODEL 4
REMARK VINA RESULT:      -6.8      1.039      1.648
REMARK  Name = 
REMARK  4 active torsions:
REMARK  status: ('A' for Active; 'I' for Inactive)
REMARK    1  A    between atoms: C_1  and  C_2
REMARK    2  A    between atoms: C_2  and  C_3
REMARK    3  A    between atoms: C_3  and  C_4
REMARK    4  A    between atoms: N_13  and  C_14
REMARK                            x       y       z     vdW  Elec       q    Type
REMARK                         _______ _______ _______ _____ _____    ______ ____
ROOT
ATOM      1  C   UNL     1       5.389   4.860  17.243  0.00  0.00    +0.000 C 
ATOM      2  N   UNL     1       6.466   4.331  18.055  0.00  0.00    +0.000 N 
ATOM      3  C   UNL     1       7.350   5.309  18.452  0.00  0.00    +0.000 C 
ATOM      4  O   UNL     1       8.226   5.130  19.281  0.00  0.00    +0.000 OA
ATOM      5  N   UNL     1       7.077   6.442  17.757  0.00  0.00    +0.000 N 
ATOM      6  C   UNL     1       7.837   7.665  17.838  0.00  0.00    +0.000 C 
ATOM      7  C   UNL     1       6.033   6.233  16.899  0.00  0.00    +0.000 C 
ATOM      8  O   UNL     1       5.639   7.021  16.048  0.00  0.00    +0.000 OA
ATOM      9  H   UNL     1       6.459   3.445  18.539  0.00  0.00    +0.000 HD
ENDROOT
BRANCH   1  10
ATOM     10  C   UNL     1       4.098   5.027  18.060  0.00  0.00    +0.000 A 
ATOM     11  C   UNL     1       3.647   6.298  18.464  0.00  0.00    +0.000 A 
ATOM     12  C   UNL     1       2.543   6.435  19.306  0.00  0.00    +0.000 A 
ATOM     13  C   UNL     1       1.871   5.306  19.766  0.00  0.00    +0.000 A 
ATOM     14  C   UNL     1       2.292   4.040  19.373  0.00  0.00    +0.000 A 
ATOM     15  C   UNL     1       3.398   3.902  18.532  0.00  0.00    +0.000 A 
ENDBRANCH   1  10
BRANCH   1  17
ATOM     16  C   UNL     1       6.142   3.917  14.943  0.00  0.00    +0.000 C 
ATOM     17  C   UNL     1       5.063   3.996  16.013  0.00  0.00    +0.000 C 
ENDBRANCH   1  17
TORSDOF 2
ENDMDL
MODEL 5
REMARK VINA RESULT:      -6.7      3.093      5.276
REMARK  Name = 
REMARK  4 active torsions:
REMARK  status: ('A' for Active; 'I' for Inactive)
REMARK    1  A    between atoms: C_1  and  C_2
REMARK    2  A    between atoms: C_2  and  C_3
REMARK    3  A    between atoms: C_3  and  C_4
REMARK    4  A    between atoms: N_13  and  C_14
REMARK                            x       y       z     vdW  Elec       q    Type
REMARK                         _______ _______ _______ _____ _____    ______ ____
ROOT
ATOM      1  C   UNL     1       3.068   5.622  18.615  0.00  0.00    +0.000 C 
ATOM      2  N   UNL     1       3.026   5.601  20.063  0.00  0.00    +0.000 N 
ATOM      3  C   UNL     1       2.372   4.492  20.551  0.00  0.00    +0.000 C 
ATOM      4  O   UNL     1       2.369   4.175  21.728  0.00  0.00    +0.000 OA
ATOM      5  N   UNL     1       1.748   3.873  19.517  0.00  0.00    +0.000 N 
ATOM      6  C   UNL     1       0.894   2.716  19.640  0.00  0.00    +0.000 C 
ATOM      7  C   UNL     1       1.969   4.554  18.352  0.00  0.00    +0.000 C 
ATOM      8  O   UNL     1       1.435   4.319  17.275  0.00  0.00    +0.000 OA
ATOM      9  H   UNL     1       3.627   6.131  20.678  0.00  0.00    +0.000 HD
ENDROOT
BRANCH   1  10
ATOM     10  C   UNL     1       4.438   5.169  18.085  0.00  0.00    +0.000 A 
ATOM     11  C   UNL     1       5.603   5.296  18.865  0.00  0.00    +0.000 A 
ATOM     12  C   UNL     1       6.859   4.996  18.336  0.00  0.00    +0.000 A 
ATOM     13  C   UNL     1       6.978   4.570  17.017  0.00  0.00    +0.000 A 
ATOM     14  C   UNL     1       5.840   4.429  16.229  0.00  0.00    +0.000 A 
ATOM     15  C   UNL     1       4.583   4.730  16.756  0.00  0.00    +0.000 A 
ENDBRANCH   1  10
BRANCH   1  17
ATOM     16  C   UNL     1       2.120   8.016  18.945  0.00  0.00    +0.000 C 
ATOM     17  C   UNL     1       2.758   7.001  18.009  0.00  0.00    +0.000 C 
ENDBRANCH   1  17
TORSDOF 2
ENDMDL
MODEL 6
REMARK VINA RESULT:      -6.7      2.819      5.158
REMARK  Name = 
REMARK  4 active torsions:
REMARK  status: ('A' for Active; 'I' for Inactive)
REMARK    1  A    between atoms: C_1  and  C_2
REMARK    2  A    between atoms: C_2  and  C_3
REMARK    3  A    between atoms: C_3  and  C_4
REMARK    4  A    between atoms: N_13  and  C_14
REMARK                            x       y       z     vdW  Elec       q    Type
REMARK                         _______ _______ _______ _____ _____    ______ ____
ROOT
ATOM      1  C   UNL     1       3.002   5.307  18.346  0.00  0.00    +0.000 C 
ATOM      2  N   UNL     1       3.423   4.796  19.635  0.00  0.00    +0.000 N 
ATOM      3  C   UNL     1       2.938   3.530  19.877  0.00  0.00    +0.000 C 
ATOM      4  O   UNL     1       3.303   2.836  20.810  0.00  0.00    +0.000 OA
ATOM      5  N   UNL     1       2.006   3.239  18.934  0.00  0.00    +0.000 N 
ATOM      6  C   UNL     1       1.215   2.033  18.898  0.00  0.00    +0.000 C 
ATOM      7  C   UNL     1       1.857   4.291  18.074  0.00  0.00    +0.000 C 
ATOM      8  O   UNL     1       1.004   4.383  17.200  0.00  0.00    +0.000 OA
ATOM      9  H   UNL     1       4.197   5.142  20.182  0.00  0.00    +0.000 HD
ENDROOT
BRANCH   1  10
ATOM     10  C   UNL     1       4.123   5.193  17.301  0.00  0.00    +0.000 A 
ATOM     11  C   UNL     1       4.671   6.335  16.687  0.00  0.00    +0.000 A 
ATOM     12  C   UNL     1       5.603   6.219  15.655  0.00  0.00    +0.000 A 
ATOM     13  C   UNL     1       6.001   4.962  15.211  0.00  0.00    +0.000 A 
ATOM     14  C   UNL     1       5.481   3.819  15.808  0.00  0.00    +0.000 A 
ATOM     15  C   UNL     1       4.547   3.933  16.840  0.00  0.00    +0.000 A 
ENDBRANCH   1  10
BRANCH   1  17
ATOM     16  C   UNL     1       2.190   7.329  19.758  0.00  0.00    +0.000 C 
ATOM     17  C   UNL     1       2.540   6.774  18.386  0.00  0.00    +0.000 C 
ENDBRANCH   1  17
TORSDOF 2
ENDMDL
MODEL 7
REMARK VINA RESULT:      -6.7      2.624      3.903
REMARK  Name = 
REMARK  4 active torsions:
REMARK  status: ('A' for Active; 'I' for Inactive)
REMARK    1  A    between atoms: C_1  and  C_2
REMARK    2  A    between atoms: C_2  and  C_3
REMARK    3  A    between atoms: C_3  and  C_4
REMARK    4  A    between atoms: N_13  and  C_14
REMARK                            x       y       z     vdW  Elec       q    Type
REMARK                         _______ _______ _______ _____ _____    ______ ____
ROOT
ATOM      1  C   UNL     1       4.288   5.088  17.602  0.00  0.00    +0.000 C 
ATOM      2  N   UNL     1       3.408   4.066  17.071  0.00  0.00    +0.000 N 
ATOM      3  C   UNL     1       3.284   2.991  17.923  0.00  0.00    +0.000 C 
ATOM      4  O   UNL     1       2.465   2.101  17.770  0.00  0.00    +0.000 OA
ATOM      5  N   UNL     1       4.220   3.106  18.899  0.00  0.00    +0.000 N 
ATOM      6  C   UNL     1       4.457   2.132  19.936  0.00  0.00    +0.000 C 
ATOM      7  C   UNL     1       4.969   4.233  18.707  0.00  0.00    +0.000 C 
ATOM      8  O   UNL     1       5.970   4.542  19.342  0.00  0.00    +0.000 OA
ATOM      9  H   UNL     1       2.726   4.197  16.338  0.00  0.00    +0.000 HD
ENDROOT
BRANCH   1  10
ATOM     10  C   UNL     1       3.493   6.260  18.198  0.00  0.00    +0.000 A 
ATOM     11  C   UNL     1       2.860   6.152  19.451  0.00  0.00    +0.000 A 
ATOM     12  C   UNL     1       2.041   7.175  19.933  0.00  0.00    +0.000 A 
ATOM     13  C   UNL     1       1.833   8.321  19.172  0.00  0.00    +0.000 A 
ATOM     14  C   UNL     1       2.455   8.454  17.935  0.00  0.00    +0.000 A 
ATOM     15  C   UNL     1       3.273   7.431  17.450  0.00  0.00    +0.000 A 
ENDBRANCH   1  10
BRANCH   1  17
ATOM     16  C   UNL     1       5.592   4.757  15.380  0.00  0.00    +0.000 C 
ATOM     17  C   UNL     1       5.266   5.660  16.561  0.00  0.00    +0.000 C 
ENDBRANCH   1  17
TORSDOF 2
ENDMDL
MODEL 8
REMARK VINA RESULT:      -6.6      1.607      3.265
REMARK  Name = 
REMARK  4 active torsions:
REMARK  status: ('A' for Active; 'I' for Inactive)
REMARK    1  A    between atoms: C_1  and  C_2
REMARK    2  A    between atoms: C_2  and  C_3
REMARK    3  A    between atoms: C_3  and  C_4
REMARK    4  A    between atoms: N_13  and  C_14
REMARK                            x       y       z     vdW  Elec       q    Type
REMARK                         _______ _______ _______ _____ _____    ______ ____
ROOT
ATOM      1  C   UNL     1       4.019   5.647  17.991  0.00  0.00    +0.000 C 
ATOM      2  N   UNL     1       4.402   5.965  16.630  0.00  0.00    +0.000 N 
ATOM      3  C   UNL     1       5.697   5.591  16.351  0.00  0.00    +0.000 C 
ATOM      4  O   UNL     1       6.174   5.598  15.229  0.00  0.00    +0.000 OA
ATOM      5  N   UNL     1       6.307   5.256  17.516  0.00  0.00    +0.000 N 
ATOM      6  C   UNL     1       7.695   4.884  17.646  0.00  0.00    +0.000 C 
ATOM      7  C   UNL     1       5.443   5.407  18.565  0.00  0.00    +0.000 C 
ATOM      8  O   UNL     1       5.735   5.309  19.750  0.00  0.00    +0.000 OA
ATOM      9  H   UNL     1       3.767   6.156  15.867  0.00  0.00    +0.000 HD
ENDROOT
BRANCH   1  10
ATOM     10  C   UNL     1       3.160   4.373  18.050  0.00  0.00    +0.000 A 
ATOM     11  C   UNL     1       1.782   4.432  18.329  0.00  0.00    +0.000 A 
ATOM     12  C   UNL     1       1.033   3.267  18.501  0.00  0.00    +0.000 A 
ATOM     13  C   UNL     1       1.645   2.022  18.403  0.00  0.00    +0.000 A 
ATOM     14  C   UNL     1       3.004   1.938  18.120  0.00  0.00    +0.000 A 
ATOM     15  C   UNL     1       3.756   3.102  17.950  0.00  0.00    +0.000 A 
ENDBRANCH   1  10
BRANCH   1  17
ATOM     16  C   UNL     1       2.861   7.965  17.826  0.00  0.00    +0.000 C 
ATOM     17  C   UNL     1       3.243   6.775  18.692  0.00  0.00    +0.000 C 
ENDBRANCH   1  17
TORSDOF 2
ENDMDL
MODEL 9
REMARK VINA RESULT:      -6.6      1.691      3.246
REMARK  Name = 
REMARK  4 active torsions:
REMARK  status: ('A' for Active; 'I' for Inactive)
REMARK    1  A    between atoms: C_1  and  C_2
REMARK    2  A    between atoms: C_2  and  C_3
REMARK    3  A    between atoms: C_3  and  C_4
REMARK    4  A    between atoms: N_13  and  C_14
REMARK                            x       y       z     vdW  Elec       q    Type
REMARK                         _______ _______ _______ _____ _____    ______ ____
ROOT
ATOM      1  C   UNL     1       3.921   5.627  18.190  0.00  0.00    +0.000 C 
ATOM      2  N   UNL     1       4.165   5.812  16.773  0.00  0.00    +0.000 N 
ATOM      3  C   UNL     1       5.403   5.344  16.392  0.00  0.00    +0.000 C 
ATOM      4  O   UNL     1       5.752   5.233  15.229  0.00  0.00    +0.000 OA
ATOM      5  N   UNL     1       6.122   5.071  17.510  0.00  0.00    +0.000 N 
ATOM      6  C   UNL     1       7.497   4.635  17.523  0.00  0.00    +0.000 C 
ATOM      7  C   UNL     1       5.388   5.356  18.628  0.00  0.00    +0.000 C 
ATOM      8  O   UNL     1       5.804   5.338  19.779  0.00  0.00    +0.000 OA
ATOM      9  H   UNL     1       3.459   5.974  16.069  0.00  0.00    +0.000 HD
ENDROOT
BRANCH   1  10
ATOM     10  C   UNL     1       3.016   4.412  18.451  0.00  0.00    +0.000 A 
ATOM     11  C   UNL     1       3.126   3.239  17.681  0.00  0.00    +0.000 A 
ATOM     12  C   UNL     1       2.224   2.187  17.842  0.00  0.00    +0.000 A 
ATOM     13  C   UNL     1       1.191   2.287  18.770  0.00  0.00    +0.000 A 
ATOM     14  C   UNL     1       1.067   3.433  19.547  0.00  0.00    +0.000 A 
ATOM     15  C   UNL     1       1.968   4.488  19.386  0.00  0.00    +0.000 A 
ENDBRANCH   1  10
BRANCH   1  17
ATOM     16  C   UNL     1       2.616   7.858  17.945  0.00  0.00    +0.000 C 
ATOM     17  C   UNL     1       3.281   6.850  18.869  0.00  0.00    +0.000 C 
ENDBRANCH   1  17
TORSDOF 2
ENDMDL
