MODEL 1
REMARK VINA RESULT:      -7.8      0.000      0.000
REMARK  Name = 
REMARK  4 active torsions:
REMARK  status: ('A' for Active; 'I' for Inactive)
REMARK    1  A    between atoms: C_1  and  N_2
REMARK    2  A    between atoms: N_2  and  C_3
REMARK    3  A    between atoms: C_3  and  C_4
REMARK    4  A    between atoms: C_14  and  C_15
REMARK                            x       y       z     vdW  Elec       q    Type
REMARK                         _______ _______ _______ _____ _____    ______ ____
ROOT
ATOM      1  C   UNL     1       2.985   4.077  17.625  0.00  0.00    +0.000 C 
ATOM      2  N   UNL     1       3.904   5.058  18.180  0.00  0.00    +0.000 N 
ATOM      3  C   UNL     1       5.076   5.306  17.485  0.00  0.00    +0.000 A 
ATOM      4  C   UNL     1       6.017   6.220  17.919  0.00  0.00    +0.000 A 
ATOM      5  C   UNL     1       7.132   6.414  17.135  0.00  0.00    +0.000 A 
ATOM      6  N   UNL     1       7.356   5.761  15.988  0.00  0.00    +0.000 NA
ATOM      7  C   UNL     1       6.411   4.878  15.627  0.00  0.00    +0.000 A 
ATOM      8  N   UNL     1       5.287   4.634  16.334  0.00  0.00    +0.000 NA
ENDROOT
BRANCH   7   9
ATOM      9  C   UNL     1       6.647   4.123  14.349  0.00  0.00    +0.000 C 
ATOM     10  C   UNL     1       5.367   3.734  13.612  0.00  0.00    +0.000 C 
ATOM     11  C   UNL     1       5.863   3.349  12.223  0.00  0.00    +0.000 C 
ATOM     12  C   UNL     1       7.113   4.193  11.975  0.00  0.00    +0.000 C 
ATOM     13  C   UNL     1       7.425   4.902  13.292  0.00  0.00    +0.000 C 
ENDBRANCH   7   9
BRANCH   2  14
ATOM     14  C   UNL     1       3.538   5.747  19.417  0.00  0.00    +0.000 C 
BRANCH  14  15
ATOM     15  C   UNL     1       2.692   6.989  19.185  0.00  0.00    +0.000 A 
ATOM     16  C   UNL     1       2.659   7.592  17.927  0.00  0.00    +0.000 A 
ATOM     17  C   UNL     1       1.941   8.773  17.759  0.00  0.00    +0.000 A 
ATOM     18  C   UNL     1       1.268   9.318  18.842  0.00  0.00    +0.000 A 
ATOM     19  C   UNL     1       1.334   8.652  20.055  0.00  0.00    +0.000 A 
ATOM     20  N   UNL     1       2.031   7.509  20.252  0.00  0.00    +0.000 NA
ENDBRANCH  14  15
ENDBRANCH   2  14
TORSDOF 3
ENDMDL
MODEL 2
REMARK VINA RESULT:      -7.6      2.052      3.009
REMARK  Name = 
REMARK  4 active torsions:
REMARK  status: ('A' for Active; 'I' for Inactive)
REMARK    1  A    between atoms: C_1  and  N_2
REMARK    2  A    between atoms: N_2  and  C_3
REMARK    3  A    between atoms: C_3  and  C_4
REMARK    4  A    between atoms: C_14  and  C_15
REMARK                            x       y       z     vdW  Elec       q    Type
REMARK                         _______ _______ _______ _____ _____    ______ ____
ROOT
ATOM      1  C   UNL     1       3.173   3.737  17.078  0.00  0.00    +0.000 C 
ATOM      2  N   UNL     1       3.958   4.750  17.765  0.00  0.00    +0.000 N 
ATOM      3  C   UNL     1       5.150   5.144  17.180  0.00  0.00    +0.000 A 
ATOM      4  C   UNL     1       5.972   6.102  17.744  0.00  0.00    +0.000 A 
ATOM      5  C   UNL     1       7.118   6.444  17.063  0.00  0.00    +0.000 A 
ATOM      6  N   UNL     1       7.481   5.895  15.897  0.00  0.00    +0.000 NA
ATOM      7  C   UNL     1       6.647   4.964  15.408  0.00  0.00    +0.000 A 
ATOM      8  N   UNL     1       5.502   4.576  16.008  0.00  0.00    +0.000 NA
ENDROOT
BRANCH   7   9
ATOM      9  C   UNL     1       7.041   4.323  14.106  0.00  0.00    +0.000 C 
ATOM     10  C   UNL     1       5.876   3.685  13.351  0.00  0.00    +0.000 C 
ATOM     11  C   UNL     1       6.440   3.468  11.952  0.00  0.00    +0.000 C 
ATOM     12  C   UNL     1       7.471   4.576  11.738  0.00  0.00    +0.000 C 
ATOM     13  C   UNL     1       7.623   5.292  13.079  0.00  0.00    +0.000 C 
ENDBRANCH   7   9
BRANCH   2  14
ATOM     14  C   UNL     1       3.444   5.316  19.012  0.00  0.00    +0.000 C 
BRANCH  14  15
ATOM     15  C   UNL     1       2.733   4.295  19.886  0.00  0.00    +0.000 A 
ATOM     16  C   UNL     1       1.340   4.277  19.956  0.00  0.00    +0.000 A 
ATOM     17  C   UNL     1       0.714   3.386  20.823  0.00  0.00    +0.000 A 
ATOM     18  C   UNL     1       1.490   2.530  21.591  0.00  0.00    +0.000 A 
ATOM     19  C   UNL     1       2.866   2.595  21.454  0.00  0.00    +0.000 A 
ATOM     20  N   UNL     1       3.504   3.456  20.629  0.00  0.00    +0.000 NA
ENDBRANCH  14  15
ENDBRANCH   2  14
TORSDOF 3
ENDMDL
MODEL 3
REMARK VINA RESULT:      -7.5      1.228      7.030
REMARK  Name = 
REMARK  4 active torsions:
REMARK  status: ('A' for Active; 'I' for Inactive)
REMARK    1  A    between atoms: C_1  and  N_2
REMARK    2  A    between atoms: N_2  and  C_3
REMARK    3  A    between atoms: C_3  and  C_4
REMARK    4  A    between atoms: C_14  and  C_15
REMARK                            x       y       z     vdW  Elec       q    Type
REMARK                         _______ _______ _______ _____ _____    ______ ____
ROOT
ATOM      1  C   UNL     1       6.423   6.973  16.950  0.00  0.00    +0.000 C 
ATOM      2  N   UNL     1       5.964   5.600  16.813  0.00  0.00    +0.000 N 
ATOM      3  C   UNL     1       4.657   5.320  17.177  0.00  0.00    +0.000 A 
ATOM      4  C   UNL     1       4.116   4.052  17.084  0.00  0.00    +0.000 A 
ATOM      5  C   UNL     1       2.797   3.889  17.441  0.00  0.00    +0.000 A 
ATOM      6  N   UNL     1       2.019   4.886  17.880  0.00  0.00    +0.000 NA
ATOM      7  C   UNL     1       2.605   6.091  17.959  0.00  0.00    +0.000 A 
ATOM      8  N   UNL     1       3.889   6.336  17.623  0.00  0.00    +0.000 NA
ENDROOT
BRANCH   7   9
ATOM      9  C   UNL     1       1.755   7.223  18.463  0.00  0.00    +0.000 C 
ATOM     10  C   UNL     1       1.990   7.570  19.932  0.00  0.00    +0.000 C 
ATOM     11  C   UNL     1       1.331   8.936  20.081  0.00  0.00    +0.000 C 
ATOM     12  C   UNL     1       1.449   9.611  18.714  0.00  0.00    +0.000 C 
ATOM     13  C   UNL     1       1.996   8.554  17.755  0.00  0.00    +0.000 C 
ENDBRANCH   7   9
BRANCH   2  14
ATOM     14  C   UNL     1       6.885   4.598  16.279  0.00  0.00    +0.000 C 
BRANCH  14  15
ATOM     15  C   UNL     1       6.949   4.591  14.760  0.00  0.00    +0.000 A 
ATOM     16  C   UNL     1       6.157   3.708  14.026  0.00  0.00    +0.000 A 
ATOM     17  C   UNL     1       6.291   3.666  12.641  0.00  0.00    +0.000 A 
ATOM     18  C   UNL     1       7.202   4.508  12.022  0.00  0.00    +0.000 A 
ATOM     19  C   UNL     1       7.941   5.369  12.816  0.00  0.00    +0.000 A 
ATOM     20  N   UNL     1       7.841   5.428  14.164  0.00  0.00    +0.000 NA
ENDBRANCH  14  15
ENDBRANCH   2  14
TORSDOF 3
ENDMDL
MODEL 4
REMARK VINA RESULT:      -7.4      1.876      2.951
REMARK  Name = 
REMARK  4 active torsions:
REMARK  status: ('A' for Active; 'I' for Inactive)
REMARK    1  A    between atoms: C_1  and  N_2
REMARK    2  A    between atoms: N_2  and  C_3
REMARK    3  A    between atoms: C_3  and  C_4
REMARK    4  A    between atoms: C_14  and  C_15
REMARK                            x       y       z     vdW  Elec       q    Type
REMARK                         _______ _______ _______ _____ _____    ______ ____
ROOT
ATOM      1  C   UNL     1       3.108   3.877  17.137  0.00  0.00    +0.000 C 
ATOM      2  N   UNL     1       3.913   4.884  17.809  0.00  0.00    +0.000 N 
ATOM      3  C   UNL     1       5.117   5.241  17.224  0.00  0.00    +0.000 A 
ATOM      4  C   UNL     1       5.957   6.190  17.773  0.00  0.00    +0.000 A 
ATOM      5  C   UNL     1       7.115   6.494  17.093  0.00  0.00    +0.000 A 
ATOM      6  N   UNL     1       7.471   5.915  15.939  0.00  0.00    +0.000 NA
ATOM      7  C   UNL     1       6.618   4.993  15.463  0.00  0.00    +0.000 A 
ATOM      8  N   UNL     1       5.462   4.643  16.064  0.00  0.00    +0.000 NA
ENDROOT
BRANCH   7   9
ATOM      9  C   UNL     1       7.004   4.319  14.175  0.00  0.00    +0.000 C 
ATOM     10  C   UNL     1       5.831   3.681  13.434  0.00  0.00    +0.000 C 
ATOM     11  C   UNL     1       6.393   3.425  12.040  0.00  0.00    +0.000 C 
ATOM     12  C   UNL     1       7.439   4.515  11.803  0.00  0.00    +0.000 C 
ATOM     13  C   UNL     1       7.600   5.258  13.128  0.00  0.00    +0.000 C 
ENDBRANCH   7   9
BRANCH   2  14
ATOM     14  C   UNL     1       3.406   5.485  19.042  0.00  0.00    +0.000 C 
BRANCH  14  15
ATOM     15  C   UNL     1       2.694   4.491  19.945  0.00  0.00    +0.000 A 
ATOM     16  C   UNL     1       3.429   3.603  20.732  0.00  0.00    +0.000 A 
ATOM     17  C   UNL     1       2.755   2.650  21.491  0.00  0.00    +0.000 A 
ATOM     18  C   UNL     1       1.369   2.609  21.453  0.00  0.00    +0.000 A 
ATOM     19  C   UNL     1       0.709   3.534  20.662  0.00  0.00    +0.000 A 
ATOM     20  N   UNL     1       1.335   4.466  19.907  0.00  0.00    +0.000 NA
ENDBRANCH  14  15
ENDBRANCH   2  14
TORSDOF 3
ENDMDL
MODEL 5
REMARK VINA RESULT:      -7.4      2.964      7.804
REMARK  Name = 
REMARK  4 active torsions:
REMARK  status: ('A' for Active; 'I' for Inactive)
REMARK    1  A    between atoms: C_1  and  N_2
REMARK    2  A    between atoms: N_2  and  C_3
REMARK    3  A    between atoms: C_3  and  C_4
REMARK    4  A    between atoms: C_14  and  C_15
REMARK                            x       y       z     vdW  Elec       q    Type
REMARK                         _______ _______ _______ _____ _____    ______ ____
ROOT
ATOM      1  C   UNL     1       2.800   5.094  20.085  0.00  0.00    +0.000 C 
ATOM      2  N   UNL     1       3.084   5.952  18.945  0.00  0.00    +0.000 N 
ATOM      3  C   UNL     1       2.472   7.194  18.907  0.00  0.00    +0.000 A 
ATOM      4  C   UNL     1       2.674   8.090  17.875  0.00  0.00    +0.000 A 
ATOM      5  C   UNL     1       2.043   9.311  17.952  0.00  0.00    +0.000 A 
ATOM      6  N   UNL     1       1.242   9.670  18.963  0.00  0.00    +0.000 NA
ATOM      7  C   UNL     1       1.077   8.751  19.928  0.00  0.00    +0.000 A 
ATOM      8  N   UNL     1       1.664   7.536  19.932  0.00  0.00    +0.000 NA
ENDROOT
BRANCH   7   9
ATOM      9  C   UNL     1       0.170   9.127  21.067  0.00  0.00    +0.000 C 
ATOM     10  C   UNL     1       0.846   9.092  22.436  0.00  0.00    +0.000 C 
ATOM     11  C   UNL     1      -0.125   9.857  23.328  0.00  0.00    +0.000 C 
ATOM     12  C   UNL     1      -0.816  10.874  22.420  0.00  0.00    +0.000 C 
ATOM     13  C   UNL     1      -0.377  10.550  20.993  0.00  0.00    +0.000 C 
ENDBRANCH   7   9
BRANCH   2  14
ATOM     14  C   UNL     1       4.011   5.478  17.919  0.00  0.00    +0.000 C 
BRANCH  14  15
ATOM     15  C   UNL     1       5.445   5.928  18.152  0.00  0.00    +0.000 A 
ATOM     16  C   UNL     1       6.039   6.858  17.297  0.00  0.00    +0.000 A 
ATOM     17  C   UNL     1       7.376   7.194  17.484  0.00  0.00    +0.000 A 
ATOM     18  C   UNL     1       8.086   6.605  18.520  0.00  0.00    +0.000 A 
ATOM     19  C   UNL     1       7.423   5.704  19.337  0.00  0.00    +0.000 A 
ATOM     20  N   UNL     1       6.128   5.349  19.176  0.00  0.00    +0.000 NA
ENDBRANCH  14  15
ENDBRANCH   2  14
TORSDOF 3
ENDMDL
MODEL 6
REMARK VINA RESULT:      -7.4      0.674      1.102
REMARK  Name = 
REMARK  4 active torsions:
REMARK  status: ('A' for Active; 'I' for Inactive)
REMARK    1  A    between atoms: C_1  and  N_2
REMARK    2  A    between atoms: N_2  and  C_3
REMARK    3  A    between atoms: C_3  and  C_4
REMARK    4  A    between atoms: C_14  and  C_15
REMARK                            x       y       z     vdW  Elec       q    Type
REMARK                         _______ _______ _______ _____ _____    ______ ____
ROOT
ATOM      1  C   UNL     1       2.798   4.450  17.458  0.00  0.00    +0.000 C 
ATOM      2  N   UNL     1       3.769   5.318  18.104  0.00  0.00    +0.000 N 
ATOM      3  C   UNL     1       5.002   5.470  17.493  0.00  0.00    +0.000 A 
ATOM      4  C   UNL     1       5.997   6.274  18.017  0.00  0.00    +0.000 A 
ATOM      5  C   UNL     1       7.174   6.381  17.312  0.00  0.00    +0.000 A 
ATOM      6  N   UNL     1       7.409   5.743  16.158  0.00  0.00    +0.000 NA
ATOM      7  C   UNL     1       6.409   4.968  15.708  0.00  0.00    +0.000 A 
ATOM      8  N   UNL     1       5.223   4.816  16.334  0.00  0.00    +0.000 NA
ENDROOT
BRANCH   7   9
ATOM      9  C   UNL     1       6.654   4.231  14.421  0.00  0.00    +0.000 C 
ATOM     10  C   UNL     1       5.384   3.920  13.632  0.00  0.00    +0.000 C 
ATOM     11  C   UNL     1       5.910   3.543  12.252  0.00  0.00    +0.000 C 
ATOM     12  C   UNL     1       7.206   4.333  12.067  0.00  0.00    +0.000 C 
ATOM     13  C   UNL     1       7.505   4.997  13.410  0.00  0.00    +0.000 C 
ENDBRANCH   7   9
BRANCH   2  14
ATOM     14  C   UNL     1       3.391   6.003  19.340  0.00  0.00    +0.000 C 
BRANCH  14  15
ATOM     15  C   UNL     1       2.656   7.313  19.099  0.00  0.00    +0.000 A 
ATOM     16  C   UNL     1       1.901   7.894  20.119  0.00  0.00    +0.000 A 
ATOM     17  C   UNL     1       1.175   9.050  19.851  0.00  0.00    +0.000 A 
ATOM     18  C   UNL     1       1.224   9.603  18.580  0.00  0.00    +0.000 A 
ATOM     19  C   UNL     1       2.010   8.979  17.626  0.00  0.00    +0.000 A 
ATOM     20  N   UNL     1       2.719   7.850  17.852  0.00  0.00    +0.000 NA
ENDBRANCH  14  15
ENDBRANCH   2  14
TORSDOF 3
ENDMDL
MODEL 7
REMARK VINA RESULT:      -7.3      2.967      7.853
REMARK  Name = 
REMARK  4 active torsions:
REMARK  status: ('A' for Active; 'I' for Inactive)
REMARK    1  A    between atoms: C_1  and  N_2
REMARK    2  A    between atoms: N_2  and  C_3
REMARK    3  A    between atoms: C_3  and  C_4
REMARK    4  A    between atoms: C_14  and  C_15
REMARK                            x       y       z     vdW  Elec       q    Type
REMARK                         _______ _______ _______ _____ _____    ______ ____
ROOT
ATOM      1  C   UNL     1       2.988   5.211  19.852  0.00  0.00    +0.000 C 
ATOM      2  N   UNL     1       3.190   6.117  18.733  0.00  0.00    +0.000 N 
ATOM      3  C   UNL     1       2.524   7.332  18.761  0.00  0.00    +0.000 A 
ATOM      4  C   UNL     1       2.647   8.270  17.754  0.00  0.00    +0.000 A 
ATOM      5  C   UNL     1       1.968   9.458  17.897  0.00  0.00    +0.000 A 
ATOM      6  N   UNL     1       1.192   9.747  18.949  0.00  0.00    +0.000 NA
ATOM      7  C   UNL     1       1.104   8.791  19.888  0.00  0.00    +0.000 A 
ATOM      8  N   UNL     1       1.743   7.604  19.827  0.00  0.00    +0.000 NA
ENDROOT
BRANCH   7   9
ATOM      9  C   UNL     1       0.227   9.088  21.073  0.00  0.00    +0.000 C 
ATOM     10  C   UNL     1       0.952   9.014  22.415  0.00  0.00    +0.000 C 
ATOM     11  C   UNL     1      -0.008   9.709  23.372  0.00  0.00    +0.000 C 
ATOM     12  C   UNL     1      -0.760  10.744  22.535  0.00  0.00    +0.000 C 
ATOM     13  C   UNL     1      -0.363  10.496  21.081  0.00  0.00    +0.000 C 
ENDBRANCH   7   9
BRANCH   2  14
ATOM     14  C   UNL     1       4.096   5.719  17.656  0.00  0.00    +0.000 C 
BRANCH  14  15
ATOM     15  C   UNL     1       5.549   6.069  17.935  0.00  0.00    +0.000 A 
ATOM     16  C   UNL     1       6.260   5.389  18.925  0.00  0.00    +0.000 A 
ATOM     17  C   UNL     1       7.563   5.781  19.216  0.00  0.00    +0.000 A 
ATOM     18  C   UNL     1       8.129   6.833  18.510  0.00  0.00    +0.000 A 
ATOM     19  C   UNL     1       7.368   7.447  17.530  0.00  0.00    +0.000 A 
ATOM     20  N   UNL     1       6.096   7.096  17.231  0.00  0.00    +0.000 NA
ENDBRANCH  14  15
ENDBRANCH   2  14
TORSDOF 3
ENDMDL
MODEL 8
REMARK VINA RESULT:      -7.2      1.811      6.889
REMARK  Name = 
REMARK  4 active torsions:
REMARK  status: ('A' for Active; 'I' for Inactive)
REMARK    1  A    between atoms: C_1  and  N_2
REMARK    2  A    between atoms: N_2  and  C_3
REMARK    3  A    between atoms: C_3  and  C_4
REMARK    4  A    between atoms: C_14  and  C_15
REMARK                            x       y       z     vdW  Elec       q    Type
REMARK                         _______ _______ _______ _____ _____    ______ ____
ROOT
ATOM      1  C   UNL     1       6.084   3.883  17.605  0.00  0.00    +0.000 C 
ATOM      2  N   UNL     1       5.772   5.220  17.126  0.00  0.00    +0.000 N 
ATOM      3  C   UNL     1       4.624   5.824  17.610  0.00  0.00    +0.000 A 
ATOM      4  C   UNL     1       4.234   7.093  17.227  0.00  0.00    +0.000 A 
ATOM      5  C   UNL     1       3.092   7.613  17.794  0.00  0.00    +0.000 A 
ATOM      6  N   UNL     1       2.340   6.954  18.684  0.00  0.00    +0.000 NA
ATOM      7  C   UNL     1       2.765   5.721  19.006  0.00  0.00    +0.000 A 
ATOM      8  N   UNL     1       3.875   5.142  18.502  0.00  0.00    +0.000 NA
ENDROOT
BRANCH   7   9
ATOM      9  C   UNL     1       1.927   4.957  19.994  0.00  0.00    +0.000 C 
ATOM     10  C   UNL     1       1.183   3.769  19.387  0.00  0.00    +0.000 C 
ATOM     11  C   UNL     1       0.748   2.966  20.607  0.00  0.00    +0.000 C 
ATOM     12  C   UNL     1       1.806   3.224  21.679  0.00  0.00    +0.000 C 
ATOM     13  C   UNL     1       2.722   4.317  21.130  0.00  0.00    +0.000 C 
ENDBRANCH   7   9
BRANCH   2  14
ATOM     14  C   UNL     1       6.689   5.866  16.188  0.00  0.00    +0.000 C 
BRANCH  14  15
ATOM     15  C   UNL     1       6.684   5.227  14.808  0.00  0.00    +0.000 A 
ATOM     16  C   UNL     1       5.662   4.350  14.443  0.00  0.00    +0.000 A 
ATOM     17  C   UNL     1       5.721   3.717  13.204  0.00  0.00    +0.000 A 
ATOM     18  C   UNL     1       6.788   3.979  12.358  0.00  0.00    +0.000 A 
ATOM     19  C   UNL     1       7.755   4.875  12.784  0.00  0.00    +0.000 A 
ATOM     20  N   UNL     1       7.731   5.498  13.984  0.00  0.00    +0.000 NA
ENDBRANCH  14  15
ENDBRANCH   2  14
TORSDOF 3
ENDMDL
MODEL 9
REMARK VINA RESULT:      -7.1      2.397      4.954
REMARK  Name = 
REMARK  4 active torsions:
REMARK  status: ('A' for Active; 'I' for Inactive)
REMARK    1  A    between atoms: C_1  and  N_2
REMARK    2  A    between atoms: N_2  and  C_3
REMARK    3  A    between atoms: C_3  and  C_4
REMARK    4  A    between atoms: C_14  and  C_15
REMARK                            x       y       z     vdW  Elec       q    Type
REMARK                         _______ _______ _______ _____ _____    ______ ____
ROOT
ATOM      1  C   UNL     1       3.139   6.767  18.495  0.00  0.00    +0.000 C 
ATOM      2  N   UNL     1       3.560   5.531  17.854  0.00  0.00    +0.000 N 
ATOM      3  C   UNL     1       4.868   5.454  17.404  0.00  0.00    +0.000 A 
ATOM      4  C   UNL     1       5.375   4.327  16.786  0.00  0.00    +0.000 A 
ATOM      5  C   UNL     1       6.699   4.344  16.407  0.00  0.00    +0.000 A 
ATOM      6  N   UNL     1       7.511   5.391  16.596  0.00  0.00    +0.000 NA
ATOM      7  C   UNL     1       6.956   6.459  17.191  0.00  0.00    +0.000 A 
ATOM      8  N   UNL     1       5.672   6.521  17.599  0.00  0.00    +0.000 NA
ENDROOT
BRANCH   7   9
ATOM      9  C   UNL     1       7.847   7.652  17.401  0.00  0.00    +0.000 C 
ATOM     10  C   UNL     1       7.118   8.991  17.323  0.00  0.00    +0.000 C 
ATOM     11  C   UNL     1       8.114   9.970  17.934  0.00  0.00    +0.000 C 
ATOM     12  C   UNL     1       8.922   9.166  18.952  0.00  0.00    +0.000 C 
ATOM     13  C   UNL     1       8.513   7.705  18.774  0.00  0.00    +0.000 C 
ENDBRANCH   7   9
BRANCH   2  14
ATOM     14  C   UNL     1       2.602   4.433  17.741  0.00  0.00    +0.000 C 
BRANCH  14  15
ATOM     15  C   UNL     1       2.357   3.712  19.057  0.00  0.00    +0.000 A 
ATOM     16  C   UNL     1       1.077   3.676  19.612  0.00  0.00    +0.000 A 
ATOM     17  C   UNL     1       0.893   3.079  20.856  0.00  0.00    +0.000 A 
ATOM     18  C   UNL     1       1.984   2.526  21.511  0.00  0.00    +0.000 A 
ATOM     19  C   UNL     1       3.219   2.585  20.888  0.00  0.00    +0.000 A 
ATOM     20  N   UNL     1       3.432   3.167  19.686  0.00  0.00    +0.000 NA
ENDBRANCH  14  15
ENDBRANCH   2  14
TORSDOF 3
ENDMDL
