MODEL 1
REMARK VINA RESULT:      -7.6      0.000      0.000
REMARK  Name = 
REMARK  1 active torsions:
REMARK  status: ('A' for Active; 'I' for Inactive)
REMARK    1  A    between atoms: C_4  and  C_5
REMARK                            x       y       z     vdW  Elec       q    Type
REMARK                         _______ _______ _______ _____ _____    ______ ____
ROOT
ATOM      1  O   UNL     1       1.127  10.184  18.211  0.00  0.00    +0.000 OA
ATOM      2  C   UNL     1       1.177   9.385  19.127  0.00  0.00    +0.000 A 
ATOM      3  C   UNL     1       1.837   8.052  19.179  0.00  0.00    +0.000 A 
ATOM      4  C   UNL     1       2.481   7.606  18.093  0.00  0.00    +0.000 C 
ATOM      5  S   UNL     1       1.635   7.260  20.719  0.00  0.00    +0.000 S 
ATOM      6  C   UNL     1       0.724   8.613  21.286  0.00  0.00    +0.000 A 
ATOM      7  N   UNL     1       0.142   8.884  22.425  0.00  0.00    +0.000 NA
ATOM      8  C   UNL     1      -0.413  10.132  22.205  0.00  0.00    +0.000 A 
ATOM      9  C   UNL     1      -1.167  10.963  23.046  0.00  0.00    +0.000 A 
ATOM     10  C   UNL     1      -1.592  12.182  22.514  0.00  0.00    +0.000 A 
ATOM     11 BR   UNL     1      -2.612  13.371  23.568  0.00  0.00    +0.000 Br
ATOM     12  C   UNL     1      -1.262  12.518  21.204  0.00  0.00    +0.000 A 
ATOM     13  N   UNL     1      -0.536  11.752  20.354  0.00  0.00    +0.000 NA
ATOM     14  C   UNL     1      -0.147  10.589  20.910  0.00  0.00    +0.000 A 
ATOM     15  N   UNL     1       0.591   9.587  20.350  0.00  0.00    +0.000 N 
ENDROOT
BRANCH   4  16
ATOM     16  C   UNL     1       3.166   6.321  17.951  0.00  0.00    +0.000 A 
ATOM     17  C   UNL     1       2.418   5.145  17.830  0.00  0.00    +0.000 A 
ATOM     18  C   UNL     1       3.059   3.923  17.625  0.00  0.00    +0.000 A 
ATOM     19  C   UNL     1       4.450   3.870  17.540  0.00  0.00    +0.000 A 
ATOM     20  C   UNL     1       5.193   5.042  17.668  0.00  0.00    +0.000 A 
ATOM     21 BR   UNL     1       7.079   4.972  17.542  0.00  0.00    +0.000 Br
ATOM     22  C   UNL     1       4.561   6.268  17.873  0.00  0.00    +0.000 A 
ENDBRANCH   4  16
TORSDOF 1
ENDMDL
MODEL 2
REMARK VINA RESULT:      -7.5      1.158      1.548
REMARK  Name = 
REMARK  1 active torsions:
REMARK  status: ('A' for Active; 'I' for Inactive)
REMARK    1  A    between atoms: C_4  and  C_5
REMARK                            x       y       z     vdW  Elec       q    Type
REMARK                         _______ _______ _______ _____ _____    ______ ____
ROOT
ATOM      1  O   UNL     1       0.875  10.195  18.098  0.00  0.00    +0.000 OA
ATOM      2  C   UNL     1       1.045   9.451  19.045  0.00  0.00    +0.000 A 
ATOM      3  C   UNL     1       1.807   8.175  19.115  0.00  0.00    +0.000 A 
ATOM      4  C   UNL     1       2.413   7.721  18.010  0.00  0.00    +0.000 C 
ATOM      5  S   UNL     1       1.765   7.452  20.701  0.00  0.00    +0.000 S 
ATOM      6  C   UNL     1       0.792   8.761  21.264  0.00  0.00    +0.000 A 
ATOM      7  N   UNL     1       0.265   9.049  22.425  0.00  0.00    +0.000 NA
ATOM      8  C   UNL     1      -0.397  10.239  22.185  0.00  0.00    +0.000 A 
ATOM      9  C   UNL     1      -1.157  11.055  23.035  0.00  0.00    +0.000 A 
ATOM     10  C   UNL     1      -1.708  12.210  22.476  0.00  0.00    +0.000 A 
ATOM     11 BR   UNL     1      -2.747  13.374  23.540  0.00  0.00    +0.000 Br
ATOM     12  C   UNL     1      -1.489  12.501  21.132  0.00  0.00    +0.000 A 
ATOM     13  N   UNL     1      -0.762  11.747  20.272  0.00  0.00    +0.000 NA
ATOM     14  C   UNL     1      -0.251  10.646  20.855  0.00  0.00    +0.000 A 
ATOM     15  N   UNL     1       0.524   9.674  20.294  0.00  0.00    +0.000 N 
ENDROOT
BRANCH   4  16
ATOM     16  C   UNL     1       3.183   6.485  17.883  0.00  0.00    +0.000 A 
ATOM     17  C   UNL     1       4.579   6.542  17.792  0.00  0.00    +0.000 A 
ATOM     18  C   UNL     1       5.328   5.365  17.740  0.00  0.00    +0.000 A 
ATOM     19  C   UNL     1       4.687   4.127  17.780  0.00  0.00    +0.000 A 
ATOM     20  C   UNL     1       3.296   4.073  17.864  0.00  0.00    +0.000 A 
ATOM     21 BR   UNL     1       2.428   2.394  17.929  0.00  0.00    +0.000 Br
ATOM     22  C   UNL     1       2.540   5.244  17.916  0.00  0.00    +0.000 A 
ENDBRANCH   4  16
TORSDOF 1
ENDMDL
MODEL 3
REMARK VINA RESULT:      -7.2      1.677      2.244
REMARK  Name = 
REMARK  1 active torsions:
REMARK  status: ('A' for Active; 'I' for Inactive)
REMARK    1  A    between atoms: C_4  and  C_5
REMARK                            x       y       z     vdW  Elec       q    Type
REMARK                         _______ _______ _______ _____ _____    ______ ____
ROOT
ATOM      1  O   UNL     1       1.155   7.995  21.742  0.00  0.00    +0.000 OA
ATOM      2  C   UNL     1       1.372   8.322  20.591  0.00  0.00    +0.000 A 
ATOM      3  C   UNL     1       2.058   7.564  19.509  0.00  0.00    +0.000 A 
ATOM      4  C   UNL     1       2.531   6.340  19.777  0.00  0.00    +0.000 C 
ATOM      5  S   UNL     1       2.137   8.451  18.011  0.00  0.00    +0.000 S 
ATOM      6  C   UNL     1       1.306   9.768  18.755  0.00  0.00    +0.000 A 
ATOM      7  N   UNL     1       0.915  10.938  18.323  0.00  0.00    +0.000 NA
ATOM      8  C   UNL     1       0.314  11.501  19.434  0.00  0.00    +0.000 A 
ATOM      9  C   UNL     1      -0.303  12.747  19.612  0.00  0.00    +0.000 A 
ATOM     10  C   UNL     1      -0.819  13.021  20.881  0.00  0.00    +0.000 A 
ATOM     11 BR   UNL     1      -1.670  14.672  21.220  0.00  0.00    +0.000 Br
ATOM     12  C   UNL     1      -0.704  12.074  21.894  0.00  0.00    +0.000 A 
ATOM     13  N   UNL     1      -0.120  10.856  21.772  0.00  0.00    +0.000 NA
ATOM     14  C   UNL     1       0.361  10.637  20.533  0.00  0.00    +0.000 A 
ATOM     15  N   UNL     1       1.002   9.530  20.057  0.00  0.00    +0.000 N 
ENDROOT
BRANCH   4  16
ATOM     16  C   UNL     1       3.246   5.460  18.853  0.00  0.00    +0.000 A 
ATOM     17  C   UNL     1       2.527   4.602  18.014  0.00  0.00    +0.000 A 
ATOM     18  C   UNL     1       3.196   3.809  17.080  0.00  0.00    +0.000 A 
ATOM     19  C   UNL     1       4.586   3.870  16.981  0.00  0.00    +0.000 A 
ATOM     20  C   UNL     1       5.301   4.721  17.823  0.00  0.00    +0.000 A 
ATOM     21 BR   UNL     1       7.185   4.812  17.681  0.00  0.00    +0.000 Br
ATOM     22  C   UNL     1       4.640   5.517  18.759  0.00  0.00    +0.000 A 
ENDBRANCH   4  16
TORSDOF 1
ENDMDL
MODEL 4
REMARK VINA RESULT:      -7.2      1.450      1.792
REMARK  Name = 
REMARK  1 active torsions:
REMARK  status: ('A' for Active; 'I' for Inactive)
REMARK    1  A    between atoms: C_4  and  C_5
REMARK                            x       y       z     vdW  Elec       q    Type
REMARK                         _______ _______ _______ _____ _____    ______ ____
ROOT
ATOM      1  O   UNL     1       1.940   9.966  17.611  0.00  0.00    +0.000 OA
ATOM      2  C   UNL     1       1.957   9.086  18.451  0.00  0.00    +0.000 A 
ATOM      3  C   UNL     1       2.614   7.751  18.404  0.00  0.00    +0.000 A 
ATOM      4  C   UNL     1       3.297   7.404  17.305  0.00  0.00    +0.000 C 
ATOM      5  S   UNL     1       2.355   6.822  19.856  0.00  0.00    +0.000 S 
ATOM      6  C   UNL     1       1.425   8.119  20.512  0.00  0.00    +0.000 A 
ATOM      7  N   UNL     1       0.802   8.287  21.649  0.00  0.00    +0.000 NA
ATOM      8  C   UNL     1       0.255   9.551  21.525  0.00  0.00    +0.000 A 
ATOM      9  C   UNL     1      -0.529  10.304  22.411  0.00  0.00    +0.000 A 
ATOM     10  C   UNL     1      -0.934  11.569  21.978  0.00  0.00    +0.000 A 
ATOM     11 BR   UNL     1      -1.991  12.659  23.100  0.00  0.00    +0.000 Br
ATOM     12  C   UNL     1      -0.556  12.023  20.718  0.00  0.00    +0.000 A 
ATOM     13  N   UNL     1       0.201  11.336  19.827  0.00  0.00    +0.000 NA
ATOM     14  C   UNL     1       0.568  10.125  20.288  0.00  0.00    +0.000 A 
ATOM     15  N   UNL     1       1.326   9.177  19.666  0.00  0.00    +0.000 N 
ENDROOT
BRANCH   4  16
ATOM     16  C   UNL     1       3.986   6.136  17.071  0.00  0.00    +0.000 A 
ATOM     17  C   UNL     1       5.228   6.128  16.426  0.00  0.00    +0.000 A 
ATOM     18  C   UNL     1       5.925   4.931  16.260  0.00  0.00    +0.000 A 
ATOM     19  C   UNL     1       5.386   3.736  16.736  0.00  0.00    +0.000 A 
ATOM     20  C   UNL     1       4.145   3.746  17.372  0.00  0.00    +0.000 A 
ATOM     21 BR   UNL     1       3.418   2.127  18.028  0.00  0.00    +0.000 Br
ATOM     22  C   UNL     1       3.441   4.938  17.543  0.00  0.00    +0.000 A 
ENDBRANCH   4  16
TORSDOF 1
ENDMDL
MODEL 5
REMARK VINA RESULT:      -7.1      1.743      2.103
REMARK  Name = 
REMARK  1 active torsions:
REMARK  status: ('A' for Active; 'I' for Inactive)
REMARK    1  A    between atoms: C_4  and  C_5
REMARK                            x       y       z     vdW  Elec       q    Type
REMARK                         _______ _______ _______ _____ _____    ______ ____
ROOT
ATOM      1  O   UNL     1       1.818   9.963  17.458  0.00  0.00    +0.000 OA
ATOM      2  C   UNL     1       1.655   9.376  18.511  0.00  0.00    +0.000 A 
ATOM      3  C   UNL     1       2.077   8.002  18.898  0.00  0.00    +0.000 A 
ATOM      4  C   UNL     1       2.732   7.250  18.004  0.00  0.00    +0.000 C 
ATOM      5  S   UNL     1       1.612   7.589  20.527  0.00  0.00    +0.000 S 
ATOM      6  C   UNL     1       0.892   9.148  20.709  0.00  0.00    +0.000 A 
ATOM      7  N   UNL     1       0.265   9.733  21.695  0.00  0.00    +0.000 NA
ATOM      8  C   UNL     1      -0.054  10.974  21.173  0.00  0.00    +0.000 A 
ATOM      9  C   UNL     1      -0.731  12.062  21.741  0.00  0.00    +0.000 A 
ATOM     10  C   UNL     1      -0.899  13.191  20.936  0.00  0.00    +0.000 A 
ATOM     11 BR   UNL     1      -1.797  14.709  21.611  0.00  0.00    +0.000 Br
ATOM     12  C   UNL     1      -0.405  13.194  19.635  0.00  0.00    +0.000 A 
ATOM     13  N   UNL     1       0.257  12.170  19.042  0.00  0.00    +0.000 NA
ATOM     14  C   UNL     1       0.396  11.106  19.855  0.00  0.00    +0.000 A 
ATOM     15  N   UNL     1       1.005   9.913  19.593  0.00  0.00    +0.000 N 
ENDROOT
BRANCH   4  16
ATOM     16  C   UNL     1       3.203   5.879  18.196  0.00  0.00    +0.000 A 
ATOM     17  C   UNL     1       4.575   5.626  18.310  0.00  0.00    +0.000 A 
ATOM     18  C   UNL     1       5.031   4.332  18.563  0.00  0.00    +0.000 A 
ATOM     19  C   UNL     1       4.120   3.285  18.704  0.00  0.00    +0.000 A 
ATOM     20  C   UNL     1       2.755   3.539  18.583  0.00  0.00    +0.000 A 
ATOM     21 BR   UNL     1       1.519   2.121  18.785  0.00  0.00    +0.000 Br
ATOM     22  C   UNL     1       2.290   4.829  18.330  0.00  0.00    +0.000 A 
ENDBRANCH   4  16
TORSDOF 1
ENDMDL
MODEL 6
REMARK VINA RESULT:      -7.1      1.311      1.397
REMARK  Name = 
REMARK  1 active torsions:
REMARK  status: ('A' for Active; 'I' for Inactive)
REMARK    1  A    between atoms: C_4  and  C_5
REMARK                            x       y       z     vdW  Elec       q    Type
REMARK                         _______ _______ _______ _____ _____    ______ ____
ROOT
ATOM      1  O   UNL     1       2.008   9.981  17.597  0.00  0.00    +0.000 OA
ATOM      2  C   UNL     1       2.014   9.089  18.425  0.00  0.00    +0.000 A 
ATOM      3  C   UNL     1       2.669   7.754  18.366  0.00  0.00    +0.000 A 
ATOM      4  C   UNL     1       3.364   7.422  17.271  0.00  0.00    +0.000 C 
ATOM      5  S   UNL     1       2.393   6.805  19.803  0.00  0.00    +0.000 S 
ATOM      6  C   UNL     1       1.458   8.096  20.466  0.00  0.00    +0.000 A 
ATOM      7  N   UNL     1       0.822   8.249  21.598  0.00  0.00    +0.000 NA
ATOM      8  C   UNL     1       0.279   9.516  21.486  0.00  0.00    +0.000 A 
ATOM      9  C   UNL     1      -0.513  10.257  22.373  0.00  0.00    +0.000 A 
ATOM     10  C   UNL     1      -0.912  11.529  21.954  0.00  0.00    +0.000 A 
ATOM     11 BR   UNL     1      -1.980  12.605  23.078  0.00  0.00    +0.000 Br
ATOM     12  C   UNL     1      -0.520  11.999  20.704  0.00  0.00    +0.000 A 
ATOM     13  N   UNL     1       0.246  11.323  19.812  0.00  0.00    +0.000 NA
ATOM     14  C   UNL     1       0.606  10.106  20.260  0.00  0.00    +0.000 A 
ATOM     15  N   UNL     1       1.370   9.164  19.633  0.00  0.00    +0.000 N 
ENDROOT
BRANCH   4  16
ATOM     16  C   UNL     1       4.054   6.155  17.027  0.00  0.00    +0.000 A 
ATOM     17  C   UNL     1       3.642   4.999  17.700  0.00  0.00    +0.000 A 
ATOM     18  C   UNL     1       4.247   3.772  17.423  0.00  0.00    +0.000 A 
ATOM     19  C   UNL     1       5.265   3.695  16.473  0.00  0.00    +0.000 A 
ATOM     20  C   UNL     1       5.678   4.849  15.809  0.00  0.00    +0.000 A 
ATOM     21 BR   UNL     1       7.052   4.742  14.513  0.00  0.00    +0.000 Br
ATOM     22  C   UNL     1       5.079   6.079  16.080  0.00  0.00    +0.000 A 
ENDBRANCH   4  16
TORSDOF 1
ENDMDL
MODEL 7
REMARK VINA RESULT:      -6.9      2.031      2.677
REMARK  Name = 
REMARK  1 active torsions:
REMARK  status: ('A' for Active; 'I' for Inactive)
REMARK    1  A    between atoms: C_4  and  C_5
REMARK                            x       y       z     vdW  Elec       q    Type
REMARK                         _______ _______ _______ _____ _____    ______ ____
ROOT
ATOM      1  O   UNL     1       1.105   8.688  22.022  0.00  0.00    +0.000 OA
ATOM      2  C   UNL     1       1.144   9.022  20.853  0.00  0.00    +0.000 A 
ATOM      3  C   UNL     1       1.685   8.282  19.680  0.00  0.00    +0.000 A 
ATOM      4  C   UNL     1       2.223   7.071  19.870  0.00  0.00    +0.000 C 
ATOM      5  S   UNL     1       1.522   9.173  18.190  0.00  0.00    +0.000 S 
ATOM      6  C   UNL     1       0.774  10.467  19.053  0.00  0.00    +0.000 A 
ATOM      7  N   UNL     1       0.294  11.626  18.687  0.00  0.00    +0.000 NA
ATOM      8  C   UNL     1      -0.154  12.172  19.876  0.00  0.00    +0.000 A 
ATOM      9  C   UNL     1      -0.771  13.401  20.148  0.00  0.00    +0.000 A 
ATOM     10  C   UNL     1      -1.103  13.660  21.479  0.00  0.00    +0.000 A 
ATOM     11 BR   UNL     1      -1.938  15.289  21.946  0.00  0.00    +0.000 Br
ATOM     12  C   UNL     1      -0.817  12.716  22.461  0.00  0.00    +0.000 A 
ATOM     13  N   UNL     1      -0.226  11.515  22.250  0.00  0.00    +0.000 NA
ATOM     14  C   UNL     1       0.075  11.308  20.953  0.00  0.00    +0.000 A 
ATOM     15  N   UNL     1       0.669  10.220  20.384  0.00  0.00    +0.000 N 
ENDROOT
BRANCH   4  16
ATOM     16  C   UNL     1       2.819   6.211  18.848  0.00  0.00    +0.000 A 
ATOM     17  C   UNL     1       3.816   6.719  18.008  0.00  0.00    +0.000 A 
ATOM     18  C   UNL     1       4.440   5.888  17.076  0.00  0.00    +0.000 A 
ATOM     19  C   UNL     1       4.071   4.547  16.980  0.00  0.00    +0.000 A 
ATOM     20  C   UNL     1       3.072   4.045  17.813  0.00  0.00    +0.000 A 
ATOM     21 BR   UNL     1       2.578   2.223  17.689  0.00  0.00    +0.000 Br
ATOM     22  C   UNL     1       2.443   4.868  18.747  0.00  0.00    +0.000 A 
ENDBRANCH   4  16
TORSDOF 1
ENDMDL
MODEL 8
REMARK VINA RESULT:      -6.8      1.872      2.420
REMARK  Name = 
REMARK  1 active torsions:
REMARK  status: ('A' for Active; 'I' for Inactive)
REMARK    1  A    between atoms: C_4  and  C_5
REMARK                            x       y       z     vdW  Elec       q    Type
REMARK                         _______ _______ _______ _____ _____    ______ ____
ROOT
ATOM      1  O   UNL     1       0.998   8.744  22.030  0.00  0.00    +0.000 OA
ATOM      2  C   UNL     1       1.142   9.029  20.857  0.00  0.00    +0.000 A 
ATOM      3  C   UNL     1       1.665   8.193  19.742  0.00  0.00    +0.000 A 
ATOM      4  C   UNL     1       2.054   6.938  20.001  0.00  0.00    +0.000 C 
ATOM      5  S   UNL     1       1.690   9.041  18.219  0.00  0.00    +0.000 S 
ATOM      6  C   UNL     1       1.042  10.440  18.996  0.00  0.00    +0.000 A 
ATOM      7  N   UNL     1       0.716  11.631  18.567  0.00  0.00    +0.000 NA
ATOM      8  C   UNL     1       0.263  12.265  19.709  0.00  0.00    +0.000 A 
ATOM      9  C   UNL     1      -0.228  13.563  19.906  0.00  0.00    +0.000 A 
ATOM     10  C   UNL     1      -0.607  13.905  21.206  0.00  0.00    +0.000 A 
ATOM     11 BR   UNL     1      -1.282  15.631  21.572  0.00  0.00    +0.000 Br
ATOM     12  C   UNL     1      -0.486  12.971  22.230  0.00  0.00    +0.000 A 
ATOM     13  N   UNL     1      -0.021  11.706  22.091  0.00  0.00    +0.000 NA
ATOM     14  C   UNL     1       0.330  11.421  20.823  0.00  0.00    +0.000 A 
ATOM     15  N   UNL     1       0.832  10.254  20.324  0.00  0.00    +0.000 N 
ENDROOT
BRANCH   4  16
ATOM     16  C   UNL     1       2.609   5.982  19.044  0.00  0.00    +0.000 A 
ATOM     17  C   UNL     1       2.010   4.726  18.889  0.00  0.00    +0.000 A 
ATOM     18  C   UNL     1       2.489   3.833  17.929  0.00  0.00    +0.000 A 
ATOM     19  C   UNL     1       3.568   4.190  17.121  0.00  0.00    +0.000 A 
ATOM     20  C   UNL     1       4.167   5.438  17.282  0.00  0.00    +0.000 A 
ATOM     21 BR   UNL     1       5.624   5.926  16.178  0.00  0.00    +0.000 Br
ATOM     22  C   UNL     1       3.695   6.337  18.238  0.00  0.00    +0.000 A 
ENDBRANCH   4  16
TORSDOF 1
ENDMDL
MODEL 9
REMARK VINA RESULT:      -6.8      1.493      1.975
REMARK  Name = 
REMARK  1 active torsions:
REMARK  status: ('A' for Active; 'I' for Inactive)
REMARK    1  A    between atoms: C_4  and  C_5
REMARK                            x       y       z     vdW  Elec       q    Type
REMARK                         _______ _______ _______ _____ _____    ______ ____
ROOT
ATOM      1  O   UNL     1      -0.494  11.025  18.548  0.00  0.00    +0.000 OA
ATOM      2  C   UNL     1      -0.093  10.525  19.582  0.00  0.00    +0.000 A 
ATOM      3  C   UNL     1       0.880   9.415  19.776  0.00  0.00    +0.000 A 
ATOM      4  C   UNL     1       1.426   8.837  18.698  0.00  0.00    +0.000 C 
ATOM      5  S   UNL     1       1.142   9.037  21.458  0.00  0.00    +0.000 S 
ATOM      6  C   UNL     1       0.029  10.278  21.903  0.00  0.00    +0.000 A 
ATOM      7  N   UNL     1      -0.405  10.718  23.055  0.00  0.00    +0.000 NA
ATOM      8  C   UNL     1      -1.285  11.723  22.697  0.00  0.00    +0.000 A 
ATOM      9  C   UNL     1      -2.073  12.577  23.482  0.00  0.00    +0.000 A 
ATOM     10  C   UNL     1      -2.873  13.500  22.804  0.00  0.00    +0.000 A 
ATOM     11 BR   UNL     1      -3.970  14.693  23.773  0.00  0.00    +0.000 Br
ATOM     12  C   UNL     1      -2.861  13.536  21.413  0.00  0.00    +0.000 A 
ATOM     13  N   UNL     1      -2.118  12.735  20.611  0.00  0.00    +0.000 NA
ATOM     14  C   UNL     1      -1.362  11.865  21.307  0.00  0.00    +0.000 A 
ATOM     15  N   UNL     1      -0.500  10.922  20.830  0.00  0.00    +0.000 N 
ENDROOT
BRANCH   4  16
ATOM     16  C   UNL     1       2.378   7.727  18.692  0.00  0.00    +0.000 A 
ATOM     17  C   UNL     1       2.330   6.766  19.708  0.00  0.00    +0.000 A 
ATOM     18  C   UNL     1       3.188   5.665  19.674  0.00  0.00    +0.000 A 
ATOM     19  C   UNL     1       4.097   5.521  18.626  0.00  0.00    +0.000 A 
ATOM     20  C   UNL     1       4.147   6.484  17.620  0.00  0.00    +0.000 A 
ATOM     21 BR   UNL     1       5.373   6.282  16.193  0.00  0.00    +0.000 Br
ATOM     22  C   UNL     1       3.294   7.587  17.646  0.00  0.00    +0.000 A 
ENDBRANCH   4  16
TORSDOF 1
ENDMDL
