MODEL 1
REMARK VINA RESULT:      -8.5      0.000      0.000
REMARK  Name = 
REMARK  12 active torsions:
REMARK  status: ('A' for Active; 'I' for Inactive)
REMARK    1  A    between atoms: C_1  and  O_2
REMARK    2  A    between atoms: O_2  and  C_3
REMARK    3  A    between atoms: C_5  and  C_6
REMARK    4  A    between atoms: C_8  and  C_9
REMARK    5  A    between atoms: N_11  and  C_12
REMARK    6  A    between atoms: C_12  and  C_13
REMARK    7  A    between atoms: C_12  and  C_17
REMARK    8  A    between atoms: C_13  and  C_14
REMARK    9  A    between atoms: C_14  and  O_16
REMARK   10  A    between atoms: C_20  and  C_21
REMARK   11  A    between atoms: C_26  and  O_27
REMARK   12  A    between atoms: O_27  and  C_28
REMARK                            x       y       z     vdW  Elec       q    Type
REMARK                         _______ _______ _______ _____ _____    ______ ____
ROOT
ATOM      1  C   UNL     1       3.318   5.444  18.930  0.00  0.00    +0.000 A 
ATOM      2  N   UNL     1       2.883   6.723  19.223  0.00  0.00    +0.000 NA
ATOM      3  C   UNL     1       1.980   6.871  20.230  0.00  0.00    +0.000 A 
ATOM      4  C   UNL     1       1.499   5.802  20.974  0.00  0.00    +0.000 A 
ATOM      5  C   UNL     1       1.945   4.517  20.682  0.00  0.00    +0.000 A 
ATOM      6  C   UNL     1       2.850   4.311  19.639  0.00  0.00    +0.000 A 
ENDROOT
BRANCH   1   9
ATOM      7  C   UNL     1       6.556   5.966  16.936  0.00  0.00    +0.000 A 
ATOM      8  C   UNL     1       5.555   6.031  17.927  0.00  0.00    +0.000 A 
ATOM      9  C   UNL     1       4.316   5.373  17.814  0.00  0.00    +0.000 A 
ATOM     10  C   UNL     1       4.103   4.652  16.628  0.00  0.00    +0.000 A 
ATOM     11  C   UNL     1       5.078   4.586  15.623  0.00  0.00    +0.000 A 
ATOM     12  C   UNL     1       6.315   5.220  15.781  0.00  0.00    +0.000 A 
ATOM     13 CL   UNL     1       7.465   4.926  14.529  0.00  0.00    +0.000 Cl
BRANCH   7  15
ATOM     14  C   UNL     1       7.645   8.014  17.535  0.00  0.00    +0.000 C 
ATOM     15  O   UNL     1       7.701   6.613  17.316  0.00  0.00    +0.000 OA
ENDBRANCH   7  15
ENDBRANCH   1   9
BRANCH   3  16
ATOM     16  C   UNL     1       1.487   8.253  20.585  0.00  0.00    +0.000 C 
ATOM     17  O   UNL     1       1.507   8.642  21.753  0.00  0.00    +0.000 OA
ATOM     18  N   UNL     1       1.040   9.051  19.552  0.00  0.00    +0.000 N 
ATOM     19  H   UNL     1       0.922   8.582  18.660  0.00  0.00    +0.000 HD
BRANCH  18  20
ATOM     20  C   UNL     1       0.493  10.423  19.723  0.00  0.00    +0.000 C 
BRANCH  20  21
ATOM     21  C   UNL     1      -0.781  10.540  18.891  0.00  0.00    +0.000 A 
ATOM     22  C   UNL     1      -1.773  11.471  19.228  0.00  0.00    +0.000 A 
ATOM     23  C   UNL     1      -2.891  11.663  18.417  0.00  0.00    +0.000 A 
ATOM     24  C   UNL     1      -3.069  10.898  17.261  0.00  0.00    +0.000 A 
ATOM     25  C   UNL     1      -4.247  11.140  16.364  0.00  0.00    +0.000 C 
ATOM     26  C   UNL     1      -2.124   9.914  16.950  0.00  0.00    +0.000 A 
ATOM     27  C   UNL     1      -0.987   9.737  17.752  0.00  0.00    +0.000 A 
ENDBRANCH  20  21
BRANCH  20  28
ATOM     28  C   UNL     1       1.532  11.496  19.336  0.00  0.00    +0.000 C 
BRANCH  28  29
ATOM     29  C   UNL     1       2.219  11.265  18.008  0.00  0.00    +0.000 C 
ATOM     30  O   UNL     1       2.464  10.188  17.491  0.00  0.00    +0.000 OA
BRANCH  29  31
ATOM     31  O   UNL     1       2.552  12.437  17.409  0.00  0.00    +0.000 OA
ATOM     32  H   UNL     1       3.472  12.717  17.564  0.00  0.00    +0.000 HD
ENDBRANCH  29  31
ENDBRANCH  28  29
ENDBRANCH  20  28
ENDBRANCH  18  20
ENDBRANCH   3  16
BRANCH   6  33
ATOM     33  O   UNL     1       3.266   3.065  19.246  0.00  0.00    +0.000 OA
ATOM     34  C   UNL     1       4.294   2.419  19.991  0.00  0.00    +0.000 C 
ENDBRANCH   6  33
TORSDOF 9
ENDMDL
MODEL 2
REMARK VINA RESULT:      -8.5      0.608      1.046
REMARK  Name = 
REMARK  12 active torsions:
REMARK  status: ('A' for Active; 'I' for Inactive)
REMARK    1  A    between atoms: C_1  and  O_2
REMARK    2  A    between atoms: O_2  and  C_3
REMARK    3  A    between atoms: C_5  and  C_6
REMARK    4  A    between atoms: C_8  and  C_9
REMARK    5  A    between atoms: N_11  and  C_12
REMARK    6  A    between atoms: C_12  and  C_13
REMARK    7  A    between atoms: C_12  and  C_17
REMARK    8  A    between atoms: C_13  and  C_14
REMARK    9  A    between atoms: C_14  and  O_16
REMARK   10  A    between atoms: C_20  and  C_21
REMARK   11  A    between atoms: C_26  and  O_27
REMARK   12  A    between atoms: O_27  and  C_28
REMARK                            x       y       z     vdW  Elec       q    Type
REMARK                         _______ _______ _______ _____ _____    ______ ____
ROOT
ATOM      1  C   UNL     1       3.062   5.510  18.906  0.00  0.00    +0.000 A 
ATOM      2  N   UNL     1       2.705   6.809  19.215  0.00  0.00    +0.000 NA
ATOM      3  C   UNL     1       1.821   6.999  20.232  0.00  0.00    +0.000 A 
ATOM      4  C   UNL     1       1.285   5.952  20.970  0.00  0.00    +0.000 A 
ATOM      5  C   UNL     1       1.653   4.647  20.661  0.00  0.00    +0.000 A 
ATOM      6  C   UNL     1       2.535   4.399  19.608  0.00  0.00    +0.000 A 
ENDROOT
BRANCH   1   9
ATOM      7  C   UNL     1       5.991   6.326  16.563  0.00  0.00    +0.000 A 
ATOM      8  C   UNL     1       5.010   6.397  17.572  0.00  0.00    +0.000 A 
ATOM      9  C   UNL     1       4.046   5.393  17.780  0.00  0.00    +0.000 A 
ATOM     10  C   UNL     1       4.087   4.300  16.898  0.00  0.00    +0.000 A 
ATOM     11  C   UNL     1       5.045   4.216  15.878  0.00  0.00    +0.000 A 
ATOM     12  C   UNL     1       6.014   5.213  15.720  0.00  0.00    +0.000 A 
ATOM     13 CL   UNL     1       7.214   4.897  14.521  0.00  0.00    +0.000 Cl
BRANCH   7  15
ATOM     14  C   UNL     1       7.730   7.477  17.742  0.00  0.00    +0.000 C 
ATOM     15  O   UNL     1       6.867   7.377  16.619  0.00  0.00    +0.000 OA
ENDBRANCH   7  15
ENDBRANCH   1   9
BRANCH   3  16
ATOM     16  C   UNL     1       1.412   8.404  20.605  0.00  0.00    +0.000 C 
ATOM     17  O   UNL     1       1.553   8.809  21.760  0.00  0.00    +0.000 OA
ATOM     18  N   UNL     1       0.901   9.202  19.603  0.00  0.00    +0.000 N 
ATOM     19  H   UNL     1       0.686   8.725  18.734  0.00  0.00    +0.000 HD
BRANCH  18  20
ATOM     20  C   UNL     1       0.422  10.596  19.798  0.00  0.00    +0.000 C 
BRANCH  20  21
ATOM     21  C   UNL     1      -0.843  10.791  18.967  0.00  0.00    +0.000 A 
ATOM     22  C   UNL     1      -1.086   9.998  17.837  0.00  0.00    +0.000 A 
ATOM     23  C   UNL     1      -2.285  10.092  17.130  0.00  0.00    +0.000 A 
ATOM     24  C   UNL     1      -3.262  11.014  17.512  0.00  0.00    +0.000 A 
ATOM     25  C   UNL     1      -4.571  11.079  16.781  0.00  0.00    +0.000 C 
ATOM     26  C   UNL     1      -3.004  11.863  18.594  0.00  0.00    +0.000 A 
ATOM     27  C   UNL     1      -1.809  11.753  19.319  0.00  0.00    +0.000 A 
ENDBRANCH  20  21
BRANCH  20  28
ATOM     28  C   UNL     1       1.513  11.624  19.431  0.00  0.00    +0.000 C 
BRANCH  28  29
ATOM     29  C   UNL     1       2.182  11.390  18.095  0.00  0.00    +0.000 C 
ATOM     30  O   UNL     1       2.450  10.312  17.592  0.00  0.00    +0.000 OA
BRANCH  29  31
ATOM     31  O   UNL     1       2.469  12.561  17.470  0.00  0.00    +0.000 OA
ATOM     32  H   UNL     1       1.950  13.321  17.790  0.00  0.00    +0.000 HD
ENDBRANCH  29  31
ENDBRANCH  28  29
ENDBRANCH  20  28
ENDBRANCH  18  20
ENDBRANCH   3  16
BRANCH   6  33
ATOM     33  O   UNL     1       2.874   3.135  19.199  0.00  0.00    +0.000 OA
ATOM     34  C   UNL     1       1.901   2.099  19.294  0.00  0.00    +0.000 C 
ENDBRANCH   6  33
TORSDOF 9
ENDMDL
MODEL 3
REMARK VINA RESULT:      -8.2      0.989      1.119
REMARK  Name = 
REMARK  12 active torsions:
REMARK  status: ('A' for Active; 'I' for Inactive)
REMARK    1  A    between atoms: C_1  and  O_2
REMARK    2  A    between atoms: O_2  and  C_3
REMARK    3  A    between atoms: C_5  and  C_6
REMARK    4  A    between atoms: C_8  and  C_9
REMARK    5  A    between atoms: N_11  and  C_12
REMARK    6  A    between atoms: C_12  and  C_13
REMARK    7  A    between atoms: C_12  and  C_17
REMARK    8  A    between atoms: C_13  and  C_14
REMARK    9  A    between atoms: C_14  and  O_16
REMARK   10  A    between atoms: C_20  and  C_21
REMARK   11  A    between atoms: C_26  and  O_27
REMARK   12  A    between atoms: O_27  and  C_28
REMARK                            x       y       z     vdW  Elec       q    Type
REMARK                         _______ _______ _______ _____ _____    ______ ____
ROOT
ATOM      1  C   UNL     1       3.254   5.515  18.812  0.00  0.00    +0.000 A 
ATOM      2  N   UNL     1       2.828   6.803  19.077  0.00  0.00    +0.000 NA
ATOM      3  C   UNL     1       1.957   6.985  20.107  0.00  0.00    +0.000 A 
ATOM      4  C   UNL     1       1.500   5.941  20.900  0.00  0.00    +0.000 A 
ATOM      5  C   UNL     1       1.937   4.647  20.636  0.00  0.00    +0.000 A 
ATOM      6  C   UNL     1       2.808   4.406  19.572  0.00  0.00    +0.000 A 
ENDROOT
BRANCH   1   9
ATOM      7  C   UNL     1       6.255   6.238  16.532  0.00  0.00    +0.000 A 
ATOM      8  C   UNL     1       5.289   6.312  17.555  0.00  0.00    +0.000 A 
ATOM      9  C   UNL     1       4.217   5.407  17.669  0.00  0.00    +0.000 A 
ATOM     10  C   UNL     1       4.133   4.417  16.676  0.00  0.00    +0.000 A 
ATOM     11  C   UNL     1       5.075   4.333  15.641  0.00  0.00    +0.000 A 
ATOM     12  C   UNL     1       6.151   5.225  15.577  0.00  0.00    +0.000 A 
ATOM     13 CL   UNL     1       7.306   4.905  14.336  0.00  0.00    +0.000 Cl
BRANCH   7  15
ATOM     14  C   UNL     1       7.780   7.377  17.986  0.00  0.00    +0.000 C 
ATOM     15  O   UNL     1       7.245   7.170  16.688  0.00  0.00    +0.000 OA
ENDBRANCH   7  15
ENDBRANCH   1   9
BRANCH   3  16
ATOM     16  C   UNL     1       1.475   8.378  20.432  0.00  0.00    +0.000 C 
ATOM     17  O   UNL     1       1.418   8.763  21.601  0.00  0.00    +0.000 OA
ATOM     18  N   UNL     1       1.126   9.191  19.373  0.00  0.00    +0.000 N 
ATOM     19  H   UNL     1       1.062   8.728  18.472  0.00  0.00    +0.000 HD
BRANCH  18  20
ATOM     20  C   UNL     1       0.603  10.576  19.511  0.00  0.00    +0.000 C 
BRANCH  20  21
ATOM     21  C   UNL     1      -0.742  10.656  18.795  0.00  0.00    +0.000 A 
ATOM     22  C   UNL     1      -1.752  11.508  19.262  0.00  0.00    +0.000 A 
ATOM     23  C   UNL     1      -2.945  11.672  18.557  0.00  0.00    +0.000 A 
ATOM     24  C   UNL     1      -3.178  10.953  17.382  0.00  0.00    +0.000 A 
ATOM     25  C   UNL     1      -4.441  11.166  16.600  0.00  0.00    +0.000 C 
ATOM     26  C   UNL     1      -2.210  10.043  16.943  0.00  0.00    +0.000 A 
ATOM     27  C   UNL     1      -1.001   9.897  17.637  0.00  0.00    +0.000 A 
ENDBRANCH  20  21
BRANCH  20  28
ATOM     28  C   UNL     1       1.606  11.614  18.964  0.00  0.00    +0.000 C 
BRANCH  28  29
ATOM     29  C   UNL     1       1.954  12.729  19.926  0.00  0.00    +0.000 C 
ATOM     30  O   UNL     1       1.735  12.753  21.125  0.00  0.00    +0.000 OA
BRANCH  29  31
ATOM     31  O   UNL     1       2.574  13.757  19.292  0.00  0.00    +0.000 OA
ATOM     32  H   UNL     1       2.041  14.173  18.590  0.00  0.00    +0.000 HD
ENDBRANCH  29  31
ENDBRANCH  28  29
ENDBRANCH  20  28
ENDBRANCH  18  20
ENDBRANCH   3  16
BRANCH   6  33
ATOM     33  O   UNL     1       3.212   3.148  19.207  0.00  0.00    +0.000 OA
ATOM     34  C   UNL     1       2.222   2.150  18.978  0.00  0.00    +0.000 C 
ENDBRANCH   6  33
TORSDOF 9
ENDMDL
MODEL 4
REMARK VINA RESULT:      -8.1      1.141      1.555
REMARK  Name = 
REMARK  12 active torsions:
REMARK  status: ('A' for Active; 'I' for Inactive)
REMARK    1  A    between atoms: C_1  and  O_2
REMARK    2  A    between atoms: O_2  and  C_3
REMARK    3  A    between atoms: C_5  and  C_6
REMARK    4  A    between atoms: C_8  and  C_9
REMARK    5  A    between atoms: N_11  and  C_12
REMARK    6  A    between atoms: C_12  and  C_13
REMARK    7  A    between atoms: C_12  and  C_17
REMARK    8  A    between atoms: C_13  and  C_14
REMARK    9  A    between atoms: C_14  and  O_16
REMARK   10  A    between atoms: C_20  and  C_21
REMARK   11  A    between atoms: C_26  and  O_27
REMARK   12  A    between atoms: O_27  and  C_28
REMARK                            x       y       z     vdW  Elec       q    Type
REMARK                         _______ _______ _______ _____ _____    ______ ____
ROOT
ATOM      1  C   UNL     1       3.090   5.570  18.899  0.00  0.00    +0.000 A 
ATOM      2  N   UNL     1       2.730   6.877  19.170  0.00  0.00    +0.000 NA
ATOM      3  C   UNL     1       1.851   7.095  20.186  0.00  0.00    +0.000 A 
ATOM      4  C   UNL     1       1.323   6.070  20.959  0.00  0.00    +0.000 A 
ATOM      5  C   UNL     1       1.694   4.757  20.689  0.00  0.00    +0.000 A 
ATOM      6  C   UNL     1       2.571   4.479  19.638  0.00  0.00    +0.000 A 
ENDROOT
BRANCH   1   9
ATOM      7  C   UNL     1       6.043   6.290  16.554  0.00  0.00    +0.000 A 
ATOM      8  C   UNL     1       5.065   6.393  17.565  0.00  0.00    +0.000 A 
ATOM      9  C   UNL     1       4.068   5.422  17.772  0.00  0.00    +0.000 A 
ATOM     10  C   UNL     1       4.071   4.330  16.889  0.00  0.00    +0.000 A 
ATOM     11  C   UNL     1       5.024   4.215  15.867  0.00  0.00    +0.000 A 
ATOM     12  C   UNL     1       6.027   5.179  15.710  0.00  0.00    +0.000 A 
ATOM     13 CL   UNL     1       7.214   4.825  14.509  0.00  0.00    +0.000 Cl
BRANCH   7  15
ATOM     14  C   UNL     1       7.718   7.468  17.798  0.00  0.00    +0.000 C 
ATOM     15  O   UNL     1       6.954   7.311  16.612  0.00  0.00    +0.000 OA
ENDBRANCH   7  15
ENDBRANCH   1   9
BRANCH   3  16
ATOM     16  C   UNL     1       1.439   8.510  20.518  0.00  0.00    +0.000 C 
ATOM     17  O   UNL     1       1.447   8.905  21.684  0.00  0.00    +0.000 OA
ATOM     18  N   UNL     1       1.079   9.328  19.467  0.00  0.00    +0.000 N 
ATOM     19  H   UNL     1       0.960   8.861  18.574  0.00  0.00    +0.000 HD
BRANCH  18  20
ATOM     20  C   UNL     1       0.619  10.734  19.613  0.00  0.00    +0.000 C 
BRANCH  20  21
ATOM     21  C   UNL     1      -0.739  10.869  18.930  0.00  0.00    +0.000 A 
ATOM     22  C   UNL     1      -1.068  10.070  17.827  0.00  0.00    +0.000 A 
ATOM     23  C   UNL     1      -2.342  10.107  17.261  0.00  0.00    +0.000 A 
ATOM     24  C   UNL     1      -3.314  10.979  17.758  0.00  0.00    +0.000 A 
ATOM     25  C   UNL     1      -4.699  10.982  17.179  0.00  0.00    +0.000 C 
ATOM     26  C   UNL     1      -2.978  11.835  18.812  0.00  0.00    +0.000 A 
ATOM     27  C   UNL     1      -1.705  11.781  19.398  0.00  0.00    +0.000 A 
ENDBRANCH  20  21
BRANCH  20  28
ATOM     28  C   UNL     1       1.651  11.727  19.039  0.00  0.00    +0.000 C 
BRANCH  28  29
ATOM     29  C   UNL     1       1.857  12.978  19.864  0.00  0.00    +0.000 C 
ATOM     30  O   UNL     1       2.028  14.110  19.443  0.00  0.00    +0.000 OA
BRANCH  29  31
ATOM     31  O   UNL     1       1.826  12.708  21.194  0.00  0.00    +0.000 OA
ATOM     32  H   UNL     1       1.621  11.779  21.408  0.00  0.00    +0.000 HD
ENDBRANCH  29  31
ENDBRANCH  28  29
ENDBRANCH  20  28
ENDBRANCH  18  20
ENDBRANCH   3  16
BRANCH   6  33
ATOM     33  O   UNL     1       2.912   3.205  19.267  0.00  0.00    +0.000 OA
ATOM     34  C   UNL     1       1.875   2.257  19.035  0.00  0.00    +0.000 C 
ENDBRANCH   6  33
TORSDOF 9
ENDMDL
MODEL 5
REMARK VINA RESULT:      -7.9      2.343      3.316
REMARK  Name = 
REMARK  12 active torsions:
REMARK  status: ('A' for Active; 'I' for Inactive)
REMARK    1  A    between atoms: C_1  and  O_2
REMARK    2  A    between atoms: O_2  and  C_3
REMARK    3  A    between atoms: C_5  and  C_6
REMARK    4  A    between atoms: C_8  and  C_9
REMARK    5  A    between atoms: N_11  and  C_12
REMARK    6  A    between atoms: C_12  and  C_13
REMARK    7  A    between atoms: C_12  and  C_17
REMARK    8  A    between atoms: C_13  and  C_14
REMARK    9  A    between atoms: C_14  and  O_16
REMARK   10  A    between atoms: C_20  and  C_21
REMARK   11  A    between atoms: C_26  and  O_27
REMARK   12  A    between atoms: O_27  and  C_28
REMARK                            x       y       z     vdW  Elec       q    Type
REMARK                         _______ _______ _______ _____ _____    ______ ____
ROOT
ATOM      1  C   UNL     1       2.622   6.688  19.025  0.00  0.00    +0.000 A 
ATOM      2  N   UNL     1       2.242   7.977  18.703  0.00  0.00    +0.000 NA
ATOM      3  C   UNL     1       1.450   8.645  19.586  0.00  0.00    +0.000 A 
ATOM      4  C   UNL     1       1.029   8.091  20.788  0.00  0.00    +0.000 A 
ATOM      5  C   UNL     1       1.420   6.797  21.113  0.00  0.00    +0.000 A 
ATOM      6  C   UNL     1       2.209   6.061  20.226  0.00  0.00    +0.000 A 
ENDROOT
BRANCH   1   9
ATOM      7  C   UNL     1       5.534   6.114  16.591  0.00  0.00    +0.000 A 
ATOM      8  C   UNL     1       4.642   6.693  17.517  0.00  0.00    +0.000 A 
ATOM      9  C   UNL     1       3.499   6.031  18.002  0.00  0.00    +0.000 A 
ATOM     10  C   UNL     1       3.263   4.745  17.491  0.00  0.00    +0.000 A 
ATOM     11  C   UNL     1       4.128   4.155  16.558  0.00  0.00    +0.000 A 
ATOM     12  C   UNL     1       5.277   4.824  16.123  0.00  0.00    +0.000 A 
ATOM     13 CL   UNL     1       6.320   3.914  15.093  0.00  0.00    +0.000 Cl
BRANCH   7  15
ATOM     14  C   UNL     1       7.421   7.323  17.439  0.00  0.00    +0.000 C 
ATOM     15  O   UNL     1       6.614   6.917  16.343  0.00  0.00    +0.000 OA
ENDBRANCH   7  15
ENDBRANCH   1   9
BRANCH   3  16
ATOM     16  C   UNL     1       1.020  10.058  19.274  0.00  0.00    +0.000 C 
ATOM     17  O   UNL     1       1.750  10.804  18.621  0.00  0.00    +0.000 OA
ATOM     18  N   UNL     1      -0.219  10.459  19.732  0.00  0.00    +0.000 N 
ATOM     19  H   UNL     1      -0.667   9.824  20.385  0.00  0.00    +0.000 HD
BRANCH  18  20
ATOM     20  C   UNL     1      -0.787  11.820  19.543  0.00  0.00    +0.000 C 
BRANCH  20  21
ATOM     21  C   UNL     1      -1.665  12.146  20.747  0.00  0.00    +0.000 A 
ATOM     22  C   UNL     1      -2.850  12.878  20.591  0.00  0.00    +0.000 A 
ATOM     23  C   UNL     1      -3.716  13.092  21.664  0.00  0.00    +0.000 A 
ATOM     24  C   UNL     1      -3.399  12.611  22.937  0.00  0.00    +0.000 A 
ATOM     25  C   UNL     1      -4.355  12.799  24.079  0.00  0.00    +0.000 C 
ATOM     26  C   UNL     1      -2.185  11.941  23.124  0.00  0.00    +0.000 A 
ATOM     27  C   UNL     1      -1.326  11.705  22.041  0.00  0.00    +0.000 A 
ENDBRANCH  20  21
BRANCH  20  28
ATOM     28  C   UNL     1      -1.570  11.925  18.217  0.00  0.00    +0.000 C 
BRANCH  28  29
ATOM     29  C   UNL     1      -2.181  10.627  17.736  0.00  0.00    +0.000 C 
ATOM     30  O   UNL     1      -3.277  10.183  18.032  0.00  0.00    +0.000 OA
BRANCH  29  31
ATOM     31  O   UNL     1      -1.349   9.968  16.890  0.00  0.00    +0.000 OA
ATOM     32  H   UNL     1      -0.924   9.183  17.279  0.00  0.00    +0.000 HD
ENDBRANCH  29  31
ENDBRANCH  28  29
ENDBRANCH  20  28
ENDBRANCH  18  20
ENDBRANCH   3  16
BRANCH   6  33
ATOM     33  O   UNL     1       2.560   4.754  20.446  0.00  0.00    +0.000 OA
ATOM     34  C   UNL     1       1.536   3.808  20.734  0.00  0.00    +0.000 C 
ENDBRANCH   6  33
TORSDOF 9
ENDMDL
MODEL 6
REMARK VINA RESULT:      -7.7      2.436      3.557
REMARK  Name = 
REMARK  12 active torsions:
REMARK  status: ('A' for Active; 'I' for Inactive)
REMARK    1  A    between atoms: C_1  and  O_2
REMARK    2  A    between atoms: O_2  and  C_3
REMARK    3  A    between atoms: C_5  and  C_6
REMARK    4  A    between atoms: C_8  and  C_9
REMARK    5  A    between atoms: N_11  and  C_12
REMARK    6  A    between atoms: C_12  and  C_13
REMARK    7  A    between atoms: C_12  and  C_17
REMARK    8  A    between atoms: C_13  and  C_14
REMARK    9  A    between atoms: C_14  and  O_16
REMARK   10  A    between atoms: C_20  and  C_21
REMARK   11  A    between atoms: C_26  and  O_27
REMARK   12  A    between atoms: O_27  and  C_28
REMARK                            x       y       z     vdW  Elec       q    Type
REMARK                         _______ _______ _______ _____ _____    ______ ____
ROOT
ATOM      1  C   UNL     1       2.681   6.694  18.994  0.00  0.00    +0.000 A 
ATOM      2  N   UNL     1       2.280   7.962  18.618  0.00  0.00    +0.000 NA
ATOM      3  C   UNL     1       1.502   8.665  19.485  0.00  0.00    +0.000 A 
ATOM      4  C   UNL     1       1.117   8.169  20.724  0.00  0.00    +0.000 A 
ATOM      5  C   UNL     1       1.529   6.896  21.103  0.00  0.00    +0.000 A 
ATOM      6  C   UNL     1       2.305   6.124  20.235  0.00  0.00    +0.000 A 
ENDROOT
BRANCH   1   9
ATOM      7  C   UNL     1       5.588   5.988  16.589  0.00  0.00    +0.000 A 
ATOM      8  C   UNL     1       4.712   6.608  17.502  0.00  0.00    +0.000 A 
ATOM      9  C   UNL     1       3.541   5.995  17.984  0.00  0.00    +0.000 A 
ATOM     10  C   UNL     1       3.260   4.714  17.482  0.00  0.00    +0.000 A 
ATOM     11  C   UNL     1       4.109   4.084  16.561  0.00  0.00    +0.000 A 
ATOM     12  C   UNL     1       5.286   4.705  16.130  0.00  0.00    +0.000 A 
ATOM     13 CL   UNL     1       6.302   3.746  15.116  0.00  0.00    +0.000 Cl
BRANCH   7  15
ATOM     14  C   UNL     1       7.417   7.274  17.449  0.00  0.00    +0.000 C 
ATOM     15  O   UNL     1       6.701   6.747  16.343  0.00  0.00    +0.000 OA
ENDBRANCH   7  15
ENDBRANCH   1   9
BRANCH   3  16
ATOM     16  C   UNL     1       1.049  10.057  19.114  0.00  0.00    +0.000 C 
ATOM     17  O   UNL     1       1.746  10.768  18.388  0.00  0.00    +0.000 OA
ATOM     18  N   UNL     1      -0.170  10.477  19.603  0.00  0.00    +0.000 N 
ATOM     19  H   UNL     1      -0.585   9.879  20.310  0.00  0.00    +0.000 HD
BRANCH  18  20
ATOM     20  C   UNL     1      -0.755  11.823  19.363  0.00  0.00    +0.000 C 
BRANCH  20  21
ATOM     21  C   UNL     1      -0.882  12.539  20.705  0.00  0.00    +0.000 A 
ATOM     22  C   UNL     1       0.067  13.491  21.100  0.00  0.00    +0.000 A 
ATOM     23  C   UNL     1      -0.092  14.229  22.273  0.00  0.00    +0.000 A 
ATOM     24  C   UNL     1      -1.190  14.005  23.108  0.00  0.00    +0.000 A 
ATOM     25  C   UNL     1      -1.386  14.834  24.344  0.00  0.00    +0.000 C 
ATOM     26  C   UNL     1      -2.107  13.006  22.764  0.00  0.00    +0.000 A 
ATOM     27  C   UNL     1      -1.960  12.281  21.573  0.00  0.00    +0.000 A 
ENDBRANCH  20  21
BRANCH  20  28
ATOM     28  C   UNL     1      -2.113  11.726  18.635  0.00  0.00    +0.000 C 
BRANCH  28  29
ATOM     29  C   UNL     1      -2.089  10.930  17.350  0.00  0.00    +0.000 C 
ATOM     30  O   UNL     1      -1.979   9.720  17.243  0.00  0.00    +0.000 OA
BRANCH  29  31
ATOM     31  O   UNL     1      -2.214  11.734  16.263  0.00  0.00    +0.000 OA
ATOM     32  H   UNL     1      -3.121  12.054  16.106  0.00  0.00    +0.000 HD
ENDBRANCH  29  31
ENDBRANCH  28  29
ENDBRANCH  20  28
ENDBRANCH  18  20
ENDBRANCH   3  16
BRANCH   6  33
ATOM     33  O   UNL     1       2.675   4.834  20.511  0.00  0.00    +0.000 OA
ATOM     34  C   UNL     1       1.668   3.894  20.872  0.00  0.00    +0.000 C 
ENDBRANCH   6  33
TORSDOF 9
ENDMDL
MODEL 7
REMARK VINA RESULT:      -7.7      2.505      3.540
REMARK  Name = 
REMARK  12 active torsions:
REMARK  status: ('A' for Active; 'I' for Inactive)
REMARK    1  A    between atoms: C_1  and  O_2
REMARK    2  A    between atoms: O_2  and  C_3
REMARK    3  A    between atoms: C_5  and  C_6
REMARK    4  A    between atoms: C_8  and  C_9
REMARK    5  A    between atoms: N_11  and  C_12
REMARK    6  A    between atoms: C_12  and  C_13
REMARK    7  A    between atoms: C_12  and  C_17
REMARK    8  A    between atoms: C_13  and  C_14
REMARK    9  A    between atoms: C_14  and  O_16
REMARK   10  A    between atoms: C_20  and  C_21
REMARK   11  A    between atoms: C_26  and  O_27
REMARK   12  A    between atoms: O_27  and  C_28
REMARK                            x       y       z     vdW  Elec       q    Type
REMARK                         _______ _______ _______ _____ _____    ______ ____
ROOT
ATOM      1  C   UNL     1       2.628   6.812  19.001  0.00  0.00    +0.000 A 
ATOM      2  N   UNL     1       2.297   8.104  18.639  0.00  0.00    +0.000 NA
ATOM      3  C   UNL     1       1.513   8.821  19.489  0.00  0.00    +0.000 A 
ATOM      4  C   UNL     1       1.053   8.315  20.698  0.00  0.00    +0.000 A 
ATOM      5  C   UNL     1       1.395   7.017  21.064  0.00  0.00    +0.000 A 
ATOM      6  C   UNL     1       2.174   6.232  20.211  0.00  0.00    +0.000 A 
ENDROOT
BRANCH   1   9
ATOM      7  C   UNL     1       5.552   6.083  16.625  0.00  0.00    +0.000 A 
ATOM      8  C   UNL     1       4.665   6.715  17.519  0.00  0.00    +0.000 A 
ATOM      9  C   UNL     1       3.500   6.099  18.013  0.00  0.00    +0.000 A 
ATOM     10  C   UNL     1       3.238   4.802  17.542  0.00  0.00    +0.000 A 
ATOM     11  C   UNL     1       4.098   4.159  16.641  0.00  0.00    +0.000 A 
ATOM     12  C   UNL     1       5.268   4.784  16.198  0.00  0.00    +0.000 A 
ATOM     13 CL   UNL     1       6.300   3.814  15.212  0.00  0.00    +0.000 Cl
BRANCH   7  15
ATOM     14  C   UNL     1       7.425   7.323  17.457  0.00  0.00    +0.000 C 
ATOM     15  O   UNL     1       6.655   6.850  16.362  0.00  0.00    +0.000 OA
ENDBRANCH   7  15
ENDBRANCH   1   9
BRANCH   3  16
ATOM     16  C   UNL     1       1.135  10.239  19.132  0.00  0.00    +0.000 C 
ATOM     17  O   UNL     1       1.812  10.882  18.328  0.00  0.00    +0.000 OA
ATOM     18  N   UNL     1       0.004  10.762  19.724  0.00  0.00    +0.000 N 
ATOM     19  H   UNL     1      -0.386  10.208  20.480  0.00  0.00    +0.000 HD
BRANCH  18  20
ATOM     20  C   UNL     1      -0.495  12.146  19.512  0.00  0.00    +0.000 C 
BRANCH  20  21
ATOM     21  C   UNL     1      -1.333  12.547  20.722  0.00  0.00    +0.000 A 
ATOM     22  C   UNL     1      -1.390  11.726  21.856  0.00  0.00    +0.000 A 
ATOM     23  C   UNL     1      -2.065  12.128  23.009  0.00  0.00    +0.000 A 
ATOM     24  C   UNL     1      -2.738  13.352  23.045  0.00  0.00    +0.000 A 
ATOM     25  C   UNL     1      -3.422  13.806  24.302  0.00  0.00    +0.000 C 
ATOM     26  C   UNL     1      -2.752  14.150  21.896  0.00  0.00    +0.000 A 
ATOM     27  C   UNL     1      -2.054  13.757  20.745  0.00  0.00    +0.000 A 
ENDBRANCH  20  21
BRANCH  20  28
ATOM     28  C   UNL     1      -1.295  12.261  18.197  0.00  0.00    +0.000 C 
BRANCH  28  29
ATOM     29  C   UNL     1      -2.460  11.303  18.077  0.00  0.00    +0.000 C 
ATOM     30  O   UNL     1      -2.406  10.085  18.078  0.00  0.00    +0.000 OA
BRANCH  29  31
ATOM     31  O   UNL     1      -3.640  11.966  17.967  0.00  0.00    +0.000 OA
ATOM     32  H   UNL     1      -3.547  12.921  17.799  0.00  0.00    +0.000 HD
ENDBRANCH  29  31
ENDBRANCH  28  29
ENDBRANCH  20  28
ENDBRANCH  18  20
ENDBRANCH   3  16
BRANCH   6  33
ATOM     33  O   UNL     1       2.478   4.921  20.472  0.00  0.00    +0.000 OA
ATOM     34  C   UNL     1       1.419   4.023  20.790  0.00  0.00    +0.000 C 
ENDBRANCH   6  33
TORSDOF 9
ENDMDL
MODEL 8
REMARK VINA RESULT:      -7.6      1.028      1.462
REMARK  Name = 
REMARK  12 active torsions:
REMARK  status: ('A' for Active; 'I' for Inactive)
REMARK    1  A    between atoms: C_1  and  O_2
REMARK    2  A    between atoms: O_2  and  C_3
REMARK    3  A    between atoms: C_5  and  C_6
REMARK    4  A    between atoms: C_8  and  C_9
REMARK    5  A    between atoms: N_11  and  C_12
REMARK    6  A    between atoms: C_12  and  C_13
REMARK    7  A    between atoms: C_12  and  C_17
REMARK    8  A    between atoms: C_13  and  C_14
REMARK    9  A    between atoms: C_14  and  O_16
REMARK   10  A    between atoms: C_20  and  C_21
REMARK   11  A    between atoms: C_26  and  O_27
REMARK   12  A    between atoms: O_27  and  C_28
REMARK                            x       y       z     vdW  Elec       q    Type
REMARK                         _______ _______ _______ _____ _____    ______ ____
ROOT
ATOM      1  C   UNL     1       3.145   5.580  19.161  0.00  0.00    +0.000 A 
ATOM      2  N   UNL     1       2.780   6.860  19.534  0.00  0.00    +0.000 NA
ATOM      3  C   UNL     1       1.766   6.995  20.431  0.00  0.00    +0.000 A 
ATOM      4  C   UNL     1       1.104   5.910  20.989  0.00  0.00    +0.000 A 
ATOM      5  C   UNL     1       1.479   4.623  20.619  0.00  0.00    +0.000 A 
ATOM      6  C   UNL     1       2.496   4.433  19.680  0.00  0.00    +0.000 A 
ENDROOT
BRANCH   1   9
ATOM      7  C   UNL     1       6.686   5.155  17.741  0.00  0.00    +0.000 A 
ATOM      8  C   UNL     1       5.587   5.268  18.617  0.00  0.00    +0.000 A 
ATOM      9  C   UNL     1       4.274   5.523  18.177  0.00  0.00    +0.000 A 
ATOM     10  C   UNL     1       4.106   5.691  16.793  0.00  0.00    +0.000 A 
ATOM     11  C   UNL     1       5.187   5.598  15.905  0.00  0.00    +0.000 A 
ATOM     12  C   UNL     1       6.474   5.306  16.370  0.00  0.00    +0.000 A 
ATOM     13 CL   UNL     1       7.669   5.075  15.147  0.00  0.00    +0.000 Cl
BRANCH   7  15
ATOM     14  C   UNL     1       8.189   5.546  19.565  0.00  0.00    +0.000 C 
ATOM     15  O   UNL     1       7.837   4.816  18.399  0.00  0.00    +0.000 OA
ENDBRANCH   7  15
ENDBRANCH   1   9
BRANCH   3  16
ATOM     16  C   UNL     1       1.343   8.378  20.869  0.00  0.00    +0.000 C 
ATOM     17  O   UNL     1       1.521   8.746  22.030  0.00  0.00    +0.000 OA
ATOM     18  N   UNL     1       0.777   9.198  19.915  0.00  0.00    +0.000 N 
ATOM     19  H   UNL     1       0.537   8.746  19.039  0.00  0.00    +0.000 HD
BRANCH  18  20
ATOM     20  C   UNL     1       0.277  10.574  20.177  0.00  0.00    +0.000 C 
BRANCH  20  21
ATOM     21  C   UNL     1      -0.904  10.842  19.249  0.00  0.00    +0.000 A 
ATOM     22  C   UNL     1      -1.085  10.084  18.084  0.00  0.00    +0.000 A 
ATOM     23  C   UNL     1      -2.216  10.245  17.283  0.00  0.00    +0.000 A 
ATOM     24  C   UNL     1      -3.181  11.202  17.605  0.00  0.00    +0.000 A 
ATOM     25  C   UNL     1      -4.420  11.341  16.770  0.00  0.00    +0.000 C 
ATOM     26  C   UNL     1      -2.978  12.018  18.724  0.00  0.00    +0.000 A 
ATOM     27  C   UNL     1      -1.854  11.839  19.543  0.00  0.00    +0.000 A 
ENDBRANCH  20  21
BRANCH  20  28
ATOM     28  C   UNL     1       1.395  11.623  20.000  0.00  0.00    +0.000 C 
BRANCH  28  29
ATOM     29  C   UNL     1       1.681  12.010  18.566  0.00  0.00    +0.000 C 
ATOM     30  O   UNL     1       1.471  13.094  18.047  0.00  0.00    +0.000 OA
BRANCH  29  31
ATOM     31  O   UNL     1       2.231  10.981  17.872  0.00  0.00    +0.000 OA
ATOM     32  H   UNL     1       2.229  10.132  18.350  0.00  0.00    +0.000 HD
ENDBRANCH  29  31
ENDBRANCH  28  29
ENDBRANCH  20  28
ENDBRANCH  18  20
ENDBRANCH   3  16
BRANCH   6  33
ATOM     33  O   UNL     1       2.858   3.197  19.210  0.00  0.00    +0.000 OA
ATOM     34  C   UNL     1       1.838   2.306  18.771  0.00  0.00    +0.000 C 
ENDBRANCH   6  33
TORSDOF 9
ENDMDL
MODEL 9
REMARK VINA RESULT:      -7.5      3.865      9.501
REMARK  Name = 
REMARK  12 active torsions:
REMARK  status: ('A' for Active; 'I' for Inactive)
REMARK    1  A    between atoms: C_1  and  O_2
REMARK    2  A    between atoms: O_2  and  C_3
REMARK    3  A    between atoms: C_5  and  C_6
REMARK    4  A    between atoms: C_8  and  C_9
REMARK    5  A    between atoms: N_11  and  C_12
REMARK    6  A    between atoms: C_12  and  C_13
REMARK    7  A    between atoms: C_12  and  C_17
REMARK    8  A    between atoms: C_13  and  C_14
REMARK    9  A    between atoms: C_14  and  O_16
REMARK   10  A    between atoms: C_20  and  C_21
REMARK   11  A    between atoms: C_26  and  O_27
REMARK   12  A    between atoms: O_27  and  C_28
REMARK                            x       y       z     vdW  Elec       q    Type
REMARK                         _______ _______ _______ _____ _____    ______ ____
ROOT
ATOM      1  C   UNL     1      -0.189  11.132  20.109  0.00  0.00    +0.000 A 
ATOM      2  N   UNL     1       0.242   9.856  20.419  0.00  0.00    +0.000 NA
ATOM      3  C   UNL     1       1.195   9.298  19.624  0.00  0.00    +0.000 A 
ATOM      4  C   UNL     1       1.752   9.960  18.538  0.00  0.00    +0.000 A 
ATOM      5  C   UNL     1       1.322  11.247  18.234  0.00  0.00    +0.000 A 
ATOM      6  C   UNL     1       0.326  11.851  19.003  0.00  0.00    +0.000 A 
ENDROOT
BRANCH   1   9
ATOM      7  C   UNL     1      -3.433  12.769  21.348  0.00  0.00    +0.000 A 
ATOM      8  C   UNL     1      -2.394  12.282  20.530  0.00  0.00    +0.000 A 
ATOM      9  C   UNL     1      -1.232  11.673  21.041  0.00  0.00    +0.000 A 
ATOM     10  C   UNL     1      -1.138  11.593  22.440  0.00  0.00    +0.000 A 
ATOM     11  C   UNL     1      -2.153  12.084  23.273  0.00  0.00    +0.000 A 
ATOM     12  C   UNL     1      -3.312  12.651  22.734  0.00  0.00    +0.000 A 
ATOM     13 CL   UNL     1      -4.534  13.072  23.878  0.00  0.00    +0.000 Cl
BRANCH   7  15
ATOM     14  C   UNL     1      -4.968  12.441  19.538  0.00  0.00    +0.000 C 
ATOM     15  O   UNL     1      -4.492  13.234  20.616  0.00  0.00    +0.000 OA
ENDBRANCH   7  15
ENDBRANCH   1   9
BRANCH   3  16
ATOM     16  C   UNL     1       1.699   7.908  19.934  0.00  0.00    +0.000 C 
ATOM     17  O   UNL     1       1.567   7.434  21.063  0.00  0.00    +0.000 OA
ATOM     18  N   UNL     1       2.285   7.203  18.903  0.00  0.00    +0.000 N 
ATOM     19  H   UNL     1       2.481   7.739  18.065  0.00  0.00    +0.000 HD
BRANCH  18  20
ATOM     20  C   UNL     1       2.861   5.839  19.038  0.00  0.00    +0.000 C 
BRANCH  20  21
ATOM     21  C   UNL     1       3.757   5.574  17.831  0.00  0.00    +0.000 A 
ATOM     22  C   UNL     1       4.432   6.625  17.197  0.00  0.00    +0.000 A 
ATOM     23  C   UNL     1       5.336   6.385  16.162  0.00  0.00    +0.000 A 
ATOM     24  C   UNL     1       5.559   5.084  15.703  0.00  0.00    +0.000 A 
ATOM     25  C   UNL     1       6.568   4.823  14.623  0.00  0.00    +0.000 C 
ATOM     26  C   UNL     1       4.838   4.032  16.277  0.00  0.00    +0.000 A 
ATOM     27  C   UNL     1       3.947   4.270  17.334  0.00  0.00    +0.000 A 
ENDBRANCH  20  21
BRANCH  20  28
ATOM     28  C   UNL     1       1.755   4.771  19.177  0.00  0.00    +0.000 C 
BRANCH  28  29
ATOM     29  C   UNL     1       1.709   4.074  20.518  0.00  0.00    +0.000 C 
ATOM     30  O   UNL     1       1.108   3.048  20.787  0.00  0.00    +0.000 OA
BRANCH  29  31
ATOM     31  O   UNL     1       2.447   4.734  21.447  0.00  0.00    +0.000 OA
ATOM     32  H   UNL     1       2.306   4.427  22.361  0.00  0.00    +0.000 HD
ENDBRANCH  29  31
ENDBRANCH  28  29
ENDBRANCH  20  28
ENDBRANCH  18  20
ENDBRANCH   3  16
BRANCH   6  33
ATOM     33  O   UNL     1      -0.202  13.082  18.709  0.00  0.00    +0.000 OA
ATOM     34  C   UNL     1       0.567  14.245  19.001  0.00  0.00    +0.000 C 
ENDBRANCH   6  33
TORSDOF 9
ENDMDL
