MODEL 1
REMARK VINA RESULT:      -8.4      0.000      0.000
REMARK  Name = 
REMARK  7 active torsions:
REMARK  status: ('A' for Active; 'I' for Inactive)
REMARK    1  A    between atoms: C_2  and  C_21
REMARK    2  A    between atoms: N_3  and  C_4
REMARK    3  A    between atoms: C_4  and  C_5
REMARK    4  A    between atoms: C_5  and  C_6
REMARK    5  A    between atoms: C_6  and  C_7
REMARK    6  A    between atoms: C_7  and  N_8
REMARK    7  A    between atoms: N_11  and  C_12
REMARK                            x       y       z     vdW  Elec       q    Type
REMARK                         _______ _______ _______ _____ _____    ______ ____
ROOT
ATOM      1  C   UNL     1       8.234   7.986  18.491  0.00  0.00    +0.000 C 
ENDROOT
BRANCH   1   2
ATOM      2  C   UNL     1       7.587   7.316  17.283  0.00  0.00    +0.000 C 
BRANCH   2   5
ATOM      3  O   UNL     1       7.406   4.521  17.667  0.00  0.00    +0.000 OA
ATOM      4  C   UNL     1       6.398   5.210  17.798  0.00  0.00    +0.000 C 
ATOM      5  N   UNL     1       6.403   6.578  17.639  0.00  0.00    +0.000 N 
ATOM      6  H   UNL     1       5.535   7.073  17.814  0.00  0.00    +0.000 HD
BRANCH   4   7
ATOM      7  C   UNL     1       5.099   4.671  18.130  0.00  0.00    +0.000 A 
ATOM      8  C   UNL     1       3.900   4.726  17.446  0.00  0.00    +0.000 A 
ATOM      9  C   UNL     1       2.953   4.007  18.216  0.00  0.00    +0.000 A 
ATOM     10  C   UNL     1       1.592   3.671  18.079  0.00  0.00    +0.000 A 
ATOM     11  C   UNL     1       0.987   2.910  19.088  0.00  0.00    +0.000 A 
ATOM     12  C   UNL     1       1.704   2.498  20.215  0.00  0.00    +0.000 A 
ATOM     13  C   UNL     1       3.054   2.829  20.371  0.00  0.00    +0.000 A 
ATOM     14  C   UNL     1       3.634   3.574  19.347  0.00  0.00    +0.000 A 
ATOM     15  O   UNL     1       4.934   3.974  19.300  0.00  0.00    +0.000 OA
ENDBRANCH   4   7
ENDBRANCH   2   5
ENDBRANCH   1   2
BRANCH   1  16
ATOM     16  C   UNL     1       8.576   9.453  18.206  0.00  0.00    +0.000 C 
BRANCH  16  17
ATOM     17  C   UNL     1       9.180  10.203  19.406  0.00  0.00    +0.000 C 
BRANCH  17  18
ATOM     18  N   UNL     1      10.390  10.972  19.071  0.00  0.00    +0.000 NA
ATOM     19  C   UNL     1      10.339  11.563  17.709  0.00  0.00    +0.000 C 
ATOM     20  C   UNL     1       9.239  12.627  17.534  0.00  0.00    +0.000 C 
ATOM     21  N   UNL     1       9.385  13.706  18.522  0.00  0.00    +0.000 N 
ATOM     22  C   UNL     1       9.604  13.279  19.920  0.00  0.00    +0.000 C 
ATOM     23  C   UNL     1      10.600  12.090  20.024  0.00  0.00    +0.000 C 
BRANCH  21  24
ATOM     24  C   UNL     1       9.795  14.975  18.129  0.00  0.00    +0.000 A 
ATOM     25  C   UNL     1      11.035  15.130  17.486  0.00  0.00    +0.000 A 
ATOM     26  C   UNL     1      11.525  16.389  17.118  0.00  0.00    +0.000 A 
ATOM     27  C   UNL     1      10.779  17.534  17.382  0.00  0.00    +0.000 A 
ATOM     28  C   UNL     1       9.547  17.414  18.013  0.00  0.00    +0.000 A 
ATOM     29  C   UNL     1       9.068  16.155  18.378  0.00  0.00    +0.000 A 
ATOM     30  F   UNL     1       7.858  16.107  18.957  0.00  0.00    +0.000 F 
ENDBRANCH  21  24
ENDBRANCH  17  18
ENDBRANCH  16  17
ENDBRANCH   1  16
TORSDOF 7
ENDMDL
MODEL 2
REMARK VINA RESULT:      -8.4      1.989      2.351
REMARK  Name = 
REMARK  7 active torsions:
REMARK  status: ('A' for Active; 'I' for Inactive)
REMARK    1  A    between atoms: C_2  and  C_21
REMARK    2  A    between atoms: N_3  and  C_4
REMARK    3  A    between atoms: C_4  and  C_5
REMARK    4  A    between atoms: C_5  and  C_6
REMARK    5  A    between atoms: C_6  and  C_7
REMARK    6  A    between atoms: C_7  and  N_8
REMARK    7  A    between atoms: N_11  and  C_12
REMARK                            x       y       z     vdW  Elec       q    Type
REMARK                         _______ _______ _______ _____ _____    ______ ____
ROOT
ATOM      1  C   UNL     1       8.078   7.832  18.134  0.00  0.00    +0.000 C 
ENDROOT
BRANCH   1   2
ATOM      2  C   UNL     1       7.295   7.130  17.029  0.00  0.00    +0.000 C 
BRANCH   2   5
ATOM      3  O   UNL     1       5.477   5.580  15.518  0.00  0.00    +0.000 OA
ATOM      4  C   UNL     1       5.316   5.680  16.732  0.00  0.00    +0.000 C 
ATOM      5  N   UNL     1       6.161   6.406  17.540  0.00  0.00    +0.000 N 
ATOM      6  H   UNL     1       5.980   6.395  18.538  0.00  0.00    +0.000 HD
BRANCH   4   7
ATOM      7  C   UNL     1       4.227   5.054  17.447  0.00  0.00    +0.000 A 
ATOM      8  C   UNL     1       3.495   3.918  17.160  0.00  0.00    +0.000 A 
ATOM      9  C   UNL     1       2.564   3.750  18.214  0.00  0.00    +0.000 A 
ATOM     10  C   UNL     1       1.569   2.806  18.536  0.00  0.00    +0.000 A 
ATOM     11  C   UNL     1       0.835   2.986  19.717  0.00  0.00    +0.000 A 
ATOM     12  C   UNL     1       1.067   4.080  20.556  0.00  0.00    +0.000 A 
ATOM     13  C   UNL     1       2.046   5.030  20.248  0.00  0.00    +0.000 A 
ATOM     14  C   UNL     1       2.770   4.819  19.077  0.00  0.00    +0.000 A 
ATOM     15  O   UNL     1       3.776   5.614  18.616  0.00  0.00    +0.000 OA
ENDBRANCH   4   7
ENDBRANCH   2   5
ENDBRANCH   1   2
BRANCH   1  16
ATOM     16  C   UNL     1       8.198   9.337  17.872  0.00  0.00    +0.000 C 
BRANCH  16  17
ATOM     17  C   UNL     1       9.071  10.087  18.894  0.00  0.00    +0.000 C 
BRANCH  17  18
ATOM     18  N   UNL     1       9.913  11.135  18.293  0.00  0.00    +0.000 NA
ATOM     19  C   UNL     1       9.232  12.454  18.227  0.00  0.00    +0.000 C 
ATOM     20  C   UNL     1       8.921  13.062  19.608  0.00  0.00    +0.000 C 
ATOM     21  N   UNL     1      10.141  13.189  20.417  0.00  0.00    +0.000 N 
ATOM     22  C   UNL     1      11.019  12.001  20.457  0.00  0.00    +0.000 C 
ATOM     23  C   UNL     1      11.166  11.328  19.064  0.00  0.00    +0.000 C 
BRANCH  21  24
ATOM     24  C   UNL     1      10.682  14.441  20.689  0.00  0.00    +0.000 A 
ATOM     25  C   UNL     1      10.331  15.099  21.881  0.00  0.00    +0.000 A 
ATOM     26  C   UNL     1      10.800  16.384  22.181  0.00  0.00    +0.000 A 
ATOM     27  C   UNL     1      11.642  17.046  21.294  0.00  0.00    +0.000 A 
ATOM     28  C   UNL     1      12.012  16.421  20.108  0.00  0.00    +0.000 A 
ATOM     29  C   UNL     1      11.537  15.141  19.817  0.00  0.00    +0.000 A 
ATOM     30  F   UNL     1      11.955  14.582  18.670  0.00  0.00    +0.000 F 
ENDBRANCH  21  24
ENDBRANCH  17  18
ENDBRANCH  16  17
ENDBRANCH   1  16
TORSDOF 7
ENDMDL
MODEL 3
REMARK VINA RESULT:      -8.3      1.025      1.317
REMARK  Name = 
REMARK  7 active torsions:
REMARK  status: ('A' for Active; 'I' for Inactive)
REMARK    1  A    between atoms: C_2  and  C_21
REMARK    2  A    between atoms: N_3  and  C_4
REMARK    3  A    between atoms: C_4  and  C_5
REMARK    4  A    between atoms: C_5  and  C_6
REMARK    5  A    between atoms: C_6  and  C_7
REMARK    6  A    between atoms: C_7  and  N_8
REMARK    7  A    between atoms: N_11  and  C_12
REMARK                            x       y       z     vdW  Elec       q    Type
REMARK                         _______ _______ _______ _____ _____    ______ ____
ROOT
ATOM      1  C   UNL     1       8.320   8.104  18.358  0.00  0.00    +0.000 C 
ENDROOT
BRANCH   1   2
ATOM      2  C   UNL     1       7.328   7.566  17.331  0.00  0.00    +0.000 C 
BRANCH   2   5
ATOM      3  O   UNL     1       5.391   6.002  15.992  0.00  0.00    +0.000 OA
ATOM      4  C   UNL     1       5.349   6.088  17.216  0.00  0.00    +0.000 C 
ATOM      5  N   UNL     1       6.260   6.820  17.945  0.00  0.00    +0.000 N 
ATOM      6  H   UNL     1       6.179   6.797  18.955  0.00  0.00    +0.000 HD
BRANCH   4   7
ATOM      7  C   UNL     1       4.345   5.440  18.029  0.00  0.00    +0.000 A 
ATOM      8  C   UNL     1       4.143   5.457  19.396  0.00  0.00    +0.000 A 
ATOM      9  C   UNL     1       2.997   4.667  19.654  0.00  0.00    +0.000 A 
ATOM     10  C   UNL     1       2.262   4.303  20.799  0.00  0.00    +0.000 A 
ATOM     11  C   UNL     1       1.140   3.480  20.639  0.00  0.00    +0.000 A 
ATOM     12  C   UNL     1       0.756   3.013  19.379  0.00  0.00    +0.000 A 
ATOM     13  C   UNL     1       1.478   3.358  18.232  0.00  0.00    +0.000 A 
ATOM     14  C   UNL     1       2.580   4.188  18.418  0.00  0.00    +0.000 A 
ATOM     15  O   UNL     1       3.394   4.653  17.430  0.00  0.00    +0.000 OA
ENDBRANCH   4   7
ENDBRANCH   2   5
ENDBRANCH   1   2
BRANCH   1  16
ATOM     16  C   UNL     1       8.619   9.589  18.128  0.00  0.00    +0.000 C 
BRANCH  16  17
ATOM     17  C   UNL     1       9.213  10.309  19.352  0.00  0.00    +0.000 C 
BRANCH  17  18
ATOM     18  N   UNL     1      10.471  11.019  19.065  0.00  0.00    +0.000 NA
ATOM     19  C   UNL     1      10.505  11.601  17.699  0.00  0.00    +0.000 C 
ATOM     20  C   UNL     1       9.464  12.714  17.471  0.00  0.00    +0.000 C 
ATOM     21  N   UNL     1       9.617  13.791  18.458  0.00  0.00    +0.000 N 
ATOM     22  C   UNL     1       9.757  13.366  19.866  0.00  0.00    +0.000 C 
ATOM     23  C   UNL     1      10.691  12.133  20.020  0.00  0.00    +0.000 C 
BRANCH  21  24
ATOM     24  C   UNL     1      10.102  15.037  18.076  0.00  0.00    +0.000 A 
ATOM     25  C   UNL     1      11.445  15.162  17.680  0.00  0.00    +0.000 A 
ATOM     26  C   UNL     1      12.003  16.400  17.338  0.00  0.00    +0.000 A 
ATOM     27  C   UNL     1      11.225  17.553  17.380  0.00  0.00    +0.000 A 
ATOM     28  C   UNL     1       9.892  17.464  17.765  0.00  0.00    +0.000 A 
ATOM     29  C   UNL     1       9.346  16.225  18.105  0.00  0.00    +0.000 A 
ATOM     30  F   UNL     1       8.046  16.203  18.438  0.00  0.00    +0.000 F 
ENDBRANCH  21  24
ENDBRANCH  17  18
ENDBRANCH  16  17
ENDBRANCH   1  16
TORSDOF 7
ENDMDL
MODEL 4
REMARK VINA RESULT:      -8.3      0.603      1.133
REMARK  Name = 
REMARK  7 active torsions:
REMARK  status: ('A' for Active; 'I' for Inactive)
REMARK    1  A    between atoms: C_2  and  C_21
REMARK    2  A    between atoms: N_3  and  C_4
REMARK    3  A    between atoms: C_4  and  C_5
REMARK    4  A    between atoms: C_5  and  C_6
REMARK    5  A    between atoms: C_6  and  C_7
REMARK    6  A    between atoms: C_7  and  N_8
REMARK    7  A    between atoms: N_11  and  C_12
REMARK                            x       y       z     vdW  Elec       q    Type
REMARK                         _______ _______ _______ _____ _____    ______ ____
ROOT
ATOM      1  C   UNL     1       8.208   8.030  18.560  0.00  0.00    +0.000 C 
ENDROOT
BRANCH   1   2
ATOM      2  C   UNL     1       7.639   7.289  17.353  0.00  0.00    +0.000 C 
BRANCH   2   5
ATOM      3  O   UNL     1       7.692   4.627  18.302  0.00  0.00    +0.000 OA
ATOM      4  C   UNL     1       6.610   5.186  18.145  0.00  0.00    +0.000 C 
ATOM      5  N   UNL     1       6.497   6.483  17.698  0.00  0.00    +0.000 N 
ATOM      6  H   UNL     1       5.566   6.881  17.643  0.00  0.00    +0.000 HD
BRANCH   4   7
ATOM      7  C   UNL     1       5.338   4.552  18.407  0.00  0.00    +0.000 A 
ATOM      8  C   UNL     1       5.004   3.524  19.268  0.00  0.00    +0.000 A 
ATOM      9  C   UNL     1       3.608   3.318  19.142  0.00  0.00    +0.000 A 
ATOM     10  C   UNL     1       2.660   2.462  19.736  0.00  0.00    +0.000 A 
ATOM     11  C   UNL     1       1.321   2.570  19.338  0.00  0.00    +0.000 A 
ATOM     12  C   UNL     1       0.926   3.491  18.363  0.00  0.00    +0.000 A 
ATOM     13  C   UNL     1       1.855   4.342  17.757  0.00  0.00    +0.000 A 
ATOM     14  C   UNL     1       3.176   4.224  18.182  0.00  0.00    +0.000 A 
ATOM     15  O   UNL     1       4.220   4.974  17.733  0.00  0.00    +0.000 OA
ENDBRANCH   4   7
ENDBRANCH   2   5
ENDBRANCH   1   2
BRANCH   1  16
ATOM     16  C   UNL     1       8.617   9.463  18.201  0.00  0.00    +0.000 C 
BRANCH  16  17
ATOM     17  C   UNL     1       9.206  10.262  19.375  0.00  0.00    +0.000 C 
BRANCH  17  18
ATOM     18  N   UNL     1      10.461  10.959  19.044  0.00  0.00    +0.000 NA
ATOM     19  C   UNL     1      10.447  11.554  17.683  0.00  0.00    +0.000 C 
ATOM     20  C   UNL     1       9.412  12.683  17.509  0.00  0.00    +0.000 C 
ATOM     21  N   UNL     1       9.621  13.748  18.500  0.00  0.00    +0.000 N 
ATOM     22  C   UNL     1       9.813  13.306  19.897  0.00  0.00    +0.000 C 
ATOM     23  C   UNL     1      10.735  12.060  20.000  0.00  0.00    +0.000 C 
BRANCH  21  24
ATOM     24  C   UNL     1      10.107  14.992  18.110  0.00  0.00    +0.000 A 
ATOM     25  C   UNL     1      11.438  15.105  17.675  0.00  0.00    +0.000 A 
ATOM     26  C   UNL     1      11.998  16.340  17.323  0.00  0.00    +0.000 A 
ATOM     27  C   UNL     1      11.234  17.500  17.395  0.00  0.00    +0.000 A 
ATOM     28  C   UNL     1       9.912  17.421  17.818  0.00  0.00    +0.000 A 
ATOM     29  C   UNL     1       9.364  16.186  18.168  0.00  0.00    +0.000 A 
ATOM     30  F   UNL     1       8.074  16.175  18.539  0.00  0.00    +0.000 F 
ENDBRANCH  21  24
ENDBRANCH  17  18
ENDBRANCH  16  17
ENDBRANCH   1  16
TORSDOF 7
ENDMDL
MODEL 5
REMARK VINA RESULT:      -8.0      1.469      1.811
REMARK  Name = 
REMARK  7 active torsions:
REMARK  status: ('A' for Active; 'I' for Inactive)
REMARK    1  A    between atoms: C_2  and  C_21
REMARK    2  A    between atoms: N_3  and  C_4
REMARK    3  A    between atoms: C_4  and  C_5
REMARK    4  A    between atoms: C_5  and  C_6
REMARK    5  A    between atoms: C_6  and  C_7
REMARK    6  A    between atoms: C_7  and  N_8
REMARK    7  A    between atoms: N_11  and  C_12
REMARK                            x       y       z     vdW  Elec       q    Type
REMARK                         _______ _______ _______ _____ _____    ______ ____
ROOT
ATOM      1  C   UNL     1       7.582   8.512  17.798  0.00  0.00    +0.000 C 
ENDROOT
BRANCH   1   2
ATOM      2  C   UNL     1       7.547   7.073  17.292  0.00  0.00    +0.000 C 
BRANCH   2   5
ATOM      3  O   UNL     1       7.215   4.266  17.313  0.00  0.00    +0.000 OA
ATOM      4  C   UNL     1       6.313   4.979  17.745  0.00  0.00    +0.000 C 
ATOM      5  N   UNL     1       6.400   6.353  17.780  0.00  0.00    +0.000 N 
ATOM      6  H   UNL     1       5.627   6.860  18.197  0.00  0.00    +0.000 HD
BRANCH   4   7
ATOM      7  C   UNL     1       5.065   4.464  18.259  0.00  0.00    +0.000 A 
ATOM      8  C   UNL     1       4.463   3.231  18.097  0.00  0.00    +0.000 A 
ATOM      9  C   UNL     1       3.260   3.258  18.843  0.00  0.00    +0.000 A 
ATOM     10  C   UNL     1       2.221   2.344  19.111  0.00  0.00    +0.000 A 
ATOM     11  C   UNL     1       1.165   2.756  19.933  0.00  0.00    +0.000 A 
ATOM     12  C   UNL     1       1.124   4.046  20.470  0.00  0.00    +0.000 A 
ATOM     13  C   UNL     1       2.142   4.969  20.208  0.00  0.00    +0.000 A 
ATOM     14  C   UNL     1       3.186   4.528  19.400  0.00  0.00    +0.000 A 
ATOM     15  O   UNL     1       4.277   5.264  19.049  0.00  0.00    +0.000 OA
ENDBRANCH   4   7
ENDBRANCH   2   5
ENDBRANCH   1   2
BRANCH   1  16
ATOM     16  C   UNL     1       8.676   8.713  18.852  0.00  0.00    +0.000 C 
BRANCH  16  17
ATOM     17  C   UNL     1       8.979  10.187  19.171  0.00  0.00    +0.000 C 
BRANCH  17  18
ATOM     18  N   UNL     1       9.246  11.006  17.977  0.00  0.00    +0.000 NA
ATOM     19  C   UNL     1       8.637  12.359  18.060  0.00  0.00    +0.000 C 
ATOM     20  C   UNL     1       9.229  13.240  19.177  0.00  0.00    +0.000 C 
ATOM     21  N   UNL     1      10.685  13.374  19.029  0.00  0.00    +0.000 N 
ATOM     22  C   UNL     1      11.430  12.123  18.779  0.00  0.00    +0.000 C 
ATOM     23  C   UNL     1      10.702  11.195  17.766  0.00  0.00    +0.000 C 
BRANCH  21  24
ATOM     24  C   UNL     1      11.248  14.586  18.642  0.00  0.00    +0.000 A 
ATOM     25  C   UNL     1      11.786  15.439  19.621  0.00  0.00    +0.000 A 
ATOM     26  C   UNL     1      12.315  16.695  19.297  0.00  0.00    +0.000 A 
ATOM     27  C   UNL     1      12.322  17.131  17.977  0.00  0.00    +0.000 A 
ATOM     28  C   UNL     1      11.800  16.310  16.984  0.00  0.00    +0.000 A 
ATOM     29  C   UNL     1      11.274  15.061  17.317  0.00  0.00    +0.000 A 
ATOM     30  F   UNL     1      10.813  14.305  16.307  0.00  0.00    +0.000 F 
ENDBRANCH  21  24
ENDBRANCH  17  18
ENDBRANCH  16  17
ENDBRANCH   1  16
TORSDOF 7
ENDMDL
MODEL 6
REMARK VINA RESULT:      -8.0      1.864      2.133
REMARK  Name = 
REMARK  7 active torsions:
REMARK  status: ('A' for Active; 'I' for Inactive)
REMARK    1  A    between atoms: C_2  and  C_21
REMARK    2  A    between atoms: N_3  and  C_4
REMARK    3  A    between atoms: C_4  and  C_5
REMARK    4  A    between atoms: C_5  and  C_6
REMARK    5  A    between atoms: C_6  and  C_7
REMARK    6  A    between atoms: C_7  and  N_8
REMARK    7  A    between atoms: N_11  and  C_12
REMARK                            x       y       z     vdW  Elec       q    Type
REMARK                         _______ _______ _______ _____ _____    ______ ____
ROOT
ATOM      1  C   UNL     1       7.972   8.038  17.403  0.00  0.00    +0.000 C 
ENDROOT
BRANCH   1   2
ATOM      2  C   UNL     1       8.017   7.012  18.532  0.00  0.00    +0.000 C 
BRANCH   2   5
ATOM      3  O   UNL     1       7.335   4.489  17.456  0.00  0.00    +0.000 OA
ATOM      4  C   UNL     1       6.506   5.098  18.127  0.00  0.00    +0.000 C 
ATOM      5  N   UNL     1       6.762   6.326  18.695  0.00  0.00    +0.000 N 
ATOM      6  H   UNL     1       6.036   6.735  19.273  0.00  0.00    +0.000 HD
BRANCH   4   7
ATOM      7  C   UNL     1       5.175   4.603  18.394  0.00  0.00    +0.000 A 
ATOM      8  C   UNL     1       4.442   3.609  17.774  0.00  0.00    +0.000 A 
ATOM      9  C   UNL     1       3.205   3.521  18.458  0.00  0.00    +0.000 A 
ATOM     10  C   UNL     1       2.050   2.722  18.350  0.00  0.00    +0.000 A 
ATOM     11  C   UNL     1       1.000   2.940  19.251  0.00  0.00    +0.000 A 
ATOM     12  C   UNL     1       1.079   3.936  20.230  0.00  0.00    +0.000 A 
ATOM     13  C   UNL     1       2.215   4.744  20.346  0.00  0.00    +0.000 A 
ATOM     14  C   UNL     1       3.249   4.495  19.448  0.00  0.00    +0.000 A 
ATOM     15  O   UNL     1       4.440   5.154  19.413  0.00  0.00    +0.000 OA
ENDBRANCH   4   7
ENDBRANCH   2   5
ENDBRANCH   1   2
BRANCH   1  16
ATOM     16  C   UNL     1       7.923   9.470  17.945  0.00  0.00    +0.000 C 
BRANCH  16  17
ATOM     17  C   UNL     1       9.207   9.916  18.665  0.00  0.00    +0.000 C 
BRANCH  17  18
ATOM     18  N   UNL     1       9.844  11.097  18.059  0.00  0.00    +0.000 NA
ATOM     19  C   UNL     1       9.047  12.337  18.240  0.00  0.00    +0.000 C 
ATOM     20  C   UNL     1       8.912  12.780  19.710  0.00  0.00    +0.000 C 
ATOM     21  N   UNL     1      10.231  12.960  20.331  0.00  0.00    +0.000 N 
ATOM     22  C   UNL     1      11.206  11.872  20.109  0.00  0.00    +0.000 C 
ATOM     23  C   UNL     1      11.183  11.349  18.646  0.00  0.00    +0.000 C 
BRANCH  21  24
ATOM     24  C   UNL     1      10.696  14.231  20.651  0.00  0.00    +0.000 A 
ATOM     25  C   UNL     1      11.661  14.838  19.829  0.00  0.00    +0.000 A 
ATOM     26  C   UNL     1      12.206  16.092  20.131  0.00  0.00    +0.000 A 
ATOM     27  C   UNL     1      11.794  16.778  21.269  0.00  0.00    +0.000 A 
ATOM     28  C   UNL     1      10.838  16.206  22.101  0.00  0.00    +0.000 A 
ATOM     29  C   UNL     1      10.302  14.955  21.792  0.00  0.00    +0.000 A 
ATOM     30  F   UNL     1       9.362  14.474  22.620  0.00  0.00    +0.000 F 
ENDBRANCH  21  24
ENDBRANCH  17  18
ENDBRANCH  16  17
ENDBRANCH   1  16
TORSDOF 7
ENDMDL
MODEL 7
REMARK VINA RESULT:      -7.8      4.090     11.682
REMARK  Name = 
REMARK  7 active torsions:
REMARK  status: ('A' for Active; 'I' for Inactive)
REMARK    1  A    between atoms: C_2  and  C_21
REMARK    2  A    between atoms: N_3  and  C_4
REMARK    3  A    between atoms: C_4  and  C_5
REMARK    4  A    between atoms: C_5  and  C_6
REMARK    5  A    between atoms: C_6  and  C_7
REMARK    6  A    between atoms: C_7  and  N_8
REMARK    7  A    between atoms: N_11  and  C_12
REMARK                            x       y       z     vdW  Elec       q    Type
REMARK                         _______ _______ _______ _____ _____    ______ ____
ROOT
ATOM      1  C   UNL     1       8.712   9.571  18.590  0.00  0.00    +0.000 C 
ENDROOT
BRANCH   1   2
ATOM      2  C   UNL     1       8.899  10.920  17.902  0.00  0.00    +0.000 C 
BRANCH   2   5
ATOM      3  O   UNL     1      10.739  13.022  17.475  0.00  0.00    +0.000 OA
ATOM      4  C   UNL     1      10.150  12.951  18.550  0.00  0.00    +0.000 C 
ATOM      5  N   UNL     1       9.231  11.965  18.834  0.00  0.00    +0.000 N 
ATOM      6  H   UNL     1       8.757  12.010  19.729  0.00  0.00    +0.000 HD
BRANCH   4   7
ATOM      7  C   UNL     1      10.352  13.883  19.636  0.00  0.00    +0.000 A 
ATOM      8  C   UNL     1      11.207  14.963  19.749  0.00  0.00    +0.000 A 
ATOM      9  C   UNL     1      10.973  15.542  21.020  0.00  0.00    +0.000 A 
ATOM     10  C   UNL     1      11.479  16.649  21.729  0.00  0.00    +0.000 A 
ATOM     11  C   UNL     1      10.970  16.912  23.008  0.00  0.00    +0.000 A 
ATOM     12  C   UNL     1       9.993  16.094  23.583  0.00  0.00    +0.000 A 
ATOM     13  C   UNL     1       9.485  14.987  22.896  0.00  0.00    +0.000 A 
ATOM     14  C   UNL     1       9.998  14.757  21.622  0.00  0.00    +0.000 A 
ATOM     15  O   UNL     1       9.619  13.749  20.788  0.00  0.00    +0.000 OA
ENDBRANCH   4   7
ENDBRANCH   2   5
ENDBRANCH   1   2
BRANCH   1  16
ATOM     16  C   UNL     1       8.054   8.548  17.658  0.00  0.00    +0.000 C 
BRANCH  16  17
ATOM     17  C   UNL     1       7.872   7.154  18.281  0.00  0.00    +0.000 C 
BRANCH  17  18
ATOM     18  N   UNL     1       7.243   6.179  17.373  0.00  0.00    +0.000 NA
ATOM     19  C   UNL     1       6.985   4.869  18.024  0.00  0.00    +0.000 C 
ATOM     20  C   UNL     1       5.954   4.935  19.167  0.00  0.00    +0.000 C 
ATOM     21  N   UNL     1       4.681   5.500  18.699  0.00  0.00    +0.000 N 
ATOM     22  C   UNL     1       4.777   6.734  17.892  0.00  0.00    +0.000 C 
ATOM     23  C   UNL     1       5.941   6.678  16.864  0.00  0.00    +0.000 C 
BRANCH  21  24
ATOM     24  C   UNL     1       3.553   4.696  18.576  0.00  0.00    +0.000 A 
ATOM     25  C   UNL     1       2.531   4.791  19.536  0.00  0.00    +0.000 A 
ATOM     26  C   UNL     1       1.398   3.968  19.495  0.00  0.00    +0.000 A 
ATOM     27  C   UNL     1       1.257   3.025  18.482  0.00  0.00    +0.000 A 
ATOM     28  C   UNL     1       2.248   2.907  17.515  0.00  0.00    +0.000 A 
ATOM     29  C   UNL     1       3.374   3.731  17.566  0.00  0.00    +0.000 A 
ATOM     30  F   UNL     1       4.279   3.588  16.585  0.00  0.00    +0.000 F 
ENDBRANCH  21  24
ENDBRANCH  17  18
ENDBRANCH  16  17
ENDBRANCH   1  16
TORSDOF 7
ENDMDL
MODEL 8
REMARK VINA RESULT:      -7.8      1.484      1.723
REMARK  Name = 
REMARK  7 active torsions:
REMARK  status: ('A' for Active; 'I' for Inactive)
REMARK    1  A    between atoms: C_2  and  C_21
REMARK    2  A    between atoms: N_3  and  C_4
REMARK    3  A    between atoms: C_4  and  C_5
REMARK    4  A    between atoms: C_5  and  C_6
REMARK    5  A    between atoms: C_6  and  C_7
REMARK    6  A    between atoms: C_7  and  N_8
REMARK    7  A    between atoms: N_11  and  C_12
REMARK                            x       y       z     vdW  Elec       q    Type
REMARK                         _______ _______ _______ _____ _____    ______ ____
ROOT
ATOM      1  C   UNL     1       7.897   9.344  18.133  0.00  0.00    +0.000 C 
ENDROOT
BRANCH   1   2
ATOM      2  C   UNL     1       8.016   7.990  17.440  0.00  0.00    +0.000 C 
BRANCH   2   5
ATOM      3  O   UNL     1       7.459   5.531  16.162  0.00  0.00    +0.000 OA
ATOM      4  C   UNL     1       6.642   5.992  16.955  0.00  0.00    +0.000 C 
ATOM      5  N   UNL     1       6.842   7.178  17.626  0.00  0.00    +0.000 N 
ATOM      6  H   UNL     1       6.137   7.460  18.298  0.00  0.00    +0.000 HD
BRANCH   4   7
ATOM      7  C   UNL     1       5.385   5.353  17.271  0.00  0.00    +0.000 A 
ATOM      8  C   UNL     1       4.136   5.892  17.513  0.00  0.00    +0.000 A 
ATOM      9  C   UNL     1       3.257   4.806  17.746  0.00  0.00    +0.000 A 
ATOM     10  C   UNL     1       1.882   4.665  18.022  0.00  0.00    +0.000 A 
ATOM     11  C   UNL     1       1.363   3.375  18.187  0.00  0.00    +0.000 A 
ATOM     12  C   UNL     1       2.182   2.245  18.096  0.00  0.00    +0.000 A 
ATOM     13  C   UNL     1       3.550   2.367  17.831  0.00  0.00    +0.000 A 
ATOM     14  C   UNL     1       4.037   3.660  17.657  0.00  0.00    +0.000 A 
ATOM     15  O   UNL     1       5.328   3.986  17.370  0.00  0.00    +0.000 OA
ENDBRANCH   4   7
ENDBRANCH   2   5
ENDBRANCH   1   2
BRANCH   1  16
ATOM     16  C   UNL     1       9.254  10.049  18.229  0.00  0.00    +0.000 C 
BRANCH  16  17
ATOM     17  C   UNL     1       9.491  10.781  19.561  0.00  0.00    +0.000 C 
BRANCH  17  18
ATOM     18  N   UNL     1      10.638  11.705  19.530  0.00  0.00    +0.000 NA
ATOM     19  C   UNL     1      10.759  12.430  18.240  0.00  0.00    +0.000 C 
ATOM     20  C   UNL     1       9.585  13.386  17.951  0.00  0.00    +0.000 C 
ATOM     21  N   UNL     1       9.417  14.360  19.038  0.00  0.00    +0.000 N 
ATOM     22  C   UNL     1       9.435  13.811  20.410  0.00  0.00    +0.000 C 
ATOM     23  C   UNL     1      10.534  12.729  20.599  0.00  0.00    +0.000 C 
BRANCH  21  24
ATOM     24  C   UNL     1       9.732  15.701  18.841  0.00  0.00    +0.000 A 
ATOM     25  C   UNL     1       8.718  16.598  18.463  0.00  0.00    +0.000 A 
ATOM     26  C   UNL     1       8.986  17.947  18.197  0.00  0.00    +0.000 A 
ATOM     27  C   UNL     1      10.283  18.437  18.307  0.00  0.00    +0.000 A 
ATOM     28  C   UNL     1      11.308  17.576  18.683  0.00  0.00    +0.000 A 
ATOM     29  C   UNL     1      11.031  16.233  18.944  0.00  0.00    +0.000 A 
ATOM     30  F   UNL     1      12.060  15.463  19.331  0.00  0.00    +0.000 F 
ENDBRANCH  21  24
ENDBRANCH  17  18
ENDBRANCH  16  17
ENDBRANCH   1  16
TORSDOF 7
ENDMDL
MODEL 9
REMARK VINA RESULT:      -7.8      1.565      1.996
REMARK  Name = 
REMARK  7 active torsions:
REMARK  status: ('A' for Active; 'I' for Inactive)
REMARK    1  A    between atoms: C_2  and  C_21
REMARK    2  A    between atoms: N_3  and  C_4
REMARK    3  A    between atoms: C_4  and  C_5
REMARK    4  A    between atoms: C_5  and  C_6
REMARK    5  A    between atoms: C_6  and  C_7
REMARK    6  A    between atoms: C_7  and  N_8
REMARK    7  A    between atoms: N_11  and  C_12
REMARK                            x       y       z     vdW  Elec       q    Type
REMARK                         _______ _______ _______ _____ _____    ______ ____
ROOT
ATOM      1  C   UNL     1       8.459   8.546  18.533  0.00  0.00    +0.000 C 
ENDROOT
BRANCH   1   2
ATOM      2  C   UNL     1       7.969   7.618  17.426  0.00  0.00    +0.000 C 
BRANCH   2   5
ATOM      3  O   UNL     1       5.802   6.596  15.926  0.00  0.00    +0.000 OA
ATOM      4  C   UNL     1       5.934   6.253  17.098  0.00  0.00    +0.000 C 
ATOM      5  N   UNL     1       6.967   6.696  17.894  0.00  0.00    +0.000 N 
ATOM      6  H   UNL     1       7.025   6.324  18.835  0.00  0.00    +0.000 HD
BRANCH   4   7
ATOM      7  C   UNL     1       5.026   5.354  17.774  0.00  0.00    +0.000 A 
ATOM      8  C   UNL     1       5.218   4.539  18.873  0.00  0.00    +0.000 A 
ATOM      9  C   UNL     1       3.984   3.891  19.126  0.00  0.00    +0.000 A 
ATOM     10  C   UNL     1       3.506   2.976  20.084  0.00  0.00    +0.000 A 
ATOM     11  C   UNL     1       2.170   2.562  20.004  0.00  0.00    +0.000 A 
ATOM     12  C   UNL     1       1.325   3.028  18.992  0.00  0.00    +0.000 A 
ATOM     13  C   UNL     1       1.785   3.931  18.028  0.00  0.00    +0.000 A 
ATOM     14  C   UNL     1       3.113   4.337  18.140  0.00  0.00    +0.000 A 
ATOM     15  O   UNL     1       3.739   5.223  17.317  0.00  0.00    +0.000 OA
ENDBRANCH   4   7
ENDBRANCH   2   5
ENDBRANCH   1   2
BRANCH   1  16
ATOM     16  C   UNL     1       8.436  10.013  18.091  0.00  0.00    +0.000 C 
BRANCH  16  17
ATOM     17  C   UNL     1       9.829  10.647  17.937  0.00  0.00    +0.000 C 
BRANCH  17  18
ATOM     18  N   UNL     1      10.228  11.479  19.085  0.00  0.00    +0.000 NA
ATOM     19  C   UNL     1      11.604  12.023  18.951  0.00  0.00    +0.000 C 
ATOM     20  C   UNL     1      11.771  13.011  17.780  0.00  0.00    +0.000 C 
ATOM     21  N   UNL     1      10.820  14.126  17.891  0.00  0.00    +0.000 N 
ATOM     22  C   UNL     1       9.420  13.758  18.184  0.00  0.00    +0.000 C 
ATOM     23  C   UNL     1       9.316  12.637  19.255  0.00  0.00    +0.000 C 
BRANCH  21  24
ATOM     24  C   UNL     1      11.265  15.406  18.206  0.00  0.00    +0.000 A 
ATOM     25  C   UNL     1      11.425  16.353  17.180  0.00  0.00    +0.000 A 
ATOM     26  C   UNL     1      11.922  17.638  17.430  0.00  0.00    +0.000 A 
ATOM     27  C   UNL     1      12.269  18.013  18.724  0.00  0.00    +0.000 A 
ATOM     28  C   UNL     1      12.119  17.101  19.763  0.00  0.00    +0.000 A 
ATOM     29  C   UNL     1      11.625  15.822  19.502  0.00  0.00    +0.000 A 
ATOM     30  F   UNL     1      11.477  15.001  20.554  0.00  0.00    +0.000 F 
ENDBRANCH  21  24
ENDBRANCH  17  18
ENDBRANCH  16  17
ENDBRANCH   1  16
TORSDOF 7
ENDMDL
