MODEL 1
REMARK VINA RESULT:      -8.2      0.000      0.000
REMARK  Name = 
REMARK  10 active torsions:
REMARK  status: ('A' for Active; 'I' for Inactive)
REMARK    1  A    between atoms: C_1  and  C_2
REMARK    2  A    between atoms: N_4  and  C_5
REMARK    3  A    between atoms: C_12  and  C_13
REMARK    4  A    between atoms: N_15  and  N_16
REMARK    5  A    between atoms: N_16  and  C_17
REMARK    6  A    between atoms: N_16  and  C_21
REMARK    7  A    between atoms: C_17  and  C_18
REMARK    8  A    between atoms: C_18  and  C_19
REMARK    9  A    between atoms: C_18  and  C_20
REMARK   10  A    between atoms: C_23  and  C_24
REMARK                            x       y       z     vdW  Elec       q    Type
REMARK                         _______ _______ _______ _____ _____    ______ ____
ROOT
ATOM      1  C   UNL     1       2.955   5.971  19.330  0.00  0.00    +0.000 C 
ATOM      2  O   UNL     1       3.212   5.270  20.306  0.00  0.00    +0.000 OA
ATOM      3  N   UNL     1       3.347   5.661  18.028  0.00  0.00    +0.000 N 
ATOM      4  H   UNL     1       3.122   6.288  17.264  0.00  0.00    +0.000 HD
ENDROOT
BRANCH   1  10
ATOM      5  C   UNL     1       2.897   8.476  17.270  0.00  0.00    +0.000 C 
ATOM      6  C   UNL     1       2.189   8.325  18.564  0.00  0.00    +0.000 A 
ATOM      7  N   UNL     1       1.397   9.297  19.037  0.00  0.00    +0.000 NA
ATOM      8  N   UNL     1       1.010   8.805  20.241  0.00  0.00    +0.000 N 
ATOM      9  N   UNL     1       1.395   7.516  20.506  0.00  0.00    +0.000 NA
ATOM     10  C   UNL     1       2.191   7.223  19.457  0.00  0.00    +0.000 A 
BRANCH   8  11
ATOM     11  C   UNL     1       0.283   9.591  21.181  0.00  0.00    +0.000 A 
ATOM     12  C   UNL     1       0.080   9.143  22.497  0.00  0.00    +0.000 A 
ATOM     13  C   UNL     1      -0.644   9.933  23.401  0.00  0.00    +0.000 A 
ATOM     14  C   UNL     1      -1.180  11.155  22.992  0.00  0.00    +0.000 A 
ATOM     15  C   UNL     1      -0.993  11.595  21.684  0.00  0.00    +0.000 A 
ATOM     16  C   UNL     1      -0.260  10.820  20.780  0.00  0.00    +0.000 A 
ENDBRANCH   8  11
ENDBRANCH   1  10
BRANCH   3  17
ATOM     17  N   UNL     1       3.900   4.378  17.754  0.00  0.00    +0.000 N 
BRANCH  17  18
ATOM     18  C   UNL     1       5.098   4.429  16.984  0.00  0.00    +0.000 A 
ATOM     19  N   UNL     1       5.015   4.107  15.668  0.00  0.00    +0.000 NA
ATOM     20  C   UNL     1       6.153   4.149  14.947  0.00  0.00    +0.000 A 
ATOM     21  N   UNL     1       7.374   4.465  15.408  0.00  0.00    +0.000 NA
ATOM     22  C   UNL     1       7.425   4.795  16.713  0.00  0.00    +0.000 A 
ATOM     23  C   UNL     1       6.324   4.800  17.550  0.00  0.00    +0.000 A 
ATOM     24 BR   UNL     1       6.591   5.363  19.337  0.00  0.00    +0.000 Br
BRANCH  20  25
ATOM     25  C   UNL     1       6.056   3.787  13.560  0.00  0.00    +0.000 C 
ATOM     26  N   UNL     1       5.967   3.497  12.434  0.00  0.00    +0.000 NA
ENDBRANCH  20  25
ENDBRANCH  17  18
BRANCH  17  27
ATOM     27  C   UNL     1       3.004   3.254  17.393  0.00  0.00    +0.000 C 
BRANCH  27  28
ATOM     28  C   UNL     1       2.772   2.149  18.439  0.00  0.00    +0.000 C 
ATOM     29  C   UNL     1       3.971   2.110  19.405  0.00  0.00    +0.000 C 
ATOM     30  C   UNL     1       1.508   2.355  19.278  0.00  0.00    +0.000 C 
ENDBRANCH  27  28
ENDBRANCH  17  27
ENDBRANCH   3  17
TORSDOF 7
ENDMDL
MODEL 2
REMARK VINA RESULT:      -7.8      3.876      9.790
REMARK  Name = 
REMARK  10 active torsions:
REMARK  status: ('A' for Active; 'I' for Inactive)
REMARK    1  A    between atoms: C_1  and  C_2
REMARK    2  A    between atoms: N_4  and  C_5
REMARK    3  A    between atoms: C_12  and  C_13
REMARK    4  A    between atoms: N_15  and  N_16
REMARK    5  A    between atoms: N_16  and  C_17
REMARK    6  A    between atoms: N_16  and  C_21
REMARK    7  A    between atoms: C_17  and  C_18
REMARK    8  A    between atoms: C_18  and  C_19
REMARK    9  A    between atoms: C_18  and  C_20
REMARK   10  A    between atoms: C_23  and  C_24
REMARK                            x       y       z     vdW  Elec       q    Type
REMARK                         _______ _______ _______ _____ _____    ______ ____
ROOT
ATOM      1  C   UNL     1       0.990  10.400  18.879  0.00  0.00    +0.000 C 
ATOM      2  O   UNL     1       1.723  11.335  18.561  0.00  0.00    +0.000 OA
ATOM      3  N   UNL     1      -0.374  10.536  19.130  0.00  0.00    +0.000 N 
ATOM      4  H   UNL     1      -0.925   9.731  19.407  0.00  0.00    +0.000 HD
ENDROOT
BRANCH   1  10
ATOM      5  C   UNL     1       1.228   8.644  21.595  0.00  0.00    +0.000 C 
ATOM      6  C   UNL     1       1.630   8.276  20.217  0.00  0.00    +0.000 A 
ATOM      7  N   UNL     1       2.176   7.080  19.951  0.00  0.00    +0.000 NA
ATOM      8  N   UNL     1       2.453   7.169  18.626  0.00  0.00    +0.000 N 
ATOM      9  N   UNL     1       1.990   8.296  17.997  0.00  0.00    +0.000 NA
ATOM     10  C   UNL     1       1.506   9.028  19.021  0.00  0.00    +0.000 A 
BRANCH   8  11
ATOM     11  C   UNL     1       3.207   6.172  17.942  0.00  0.00    +0.000 A 
ATOM     12  C   UNL     1       4.387   6.500  17.255  0.00  0.00    +0.000 A 
ATOM     13  C   UNL     1       5.108   5.500  16.585  0.00  0.00    +0.000 A 
ATOM     14  C   UNL     1       4.647   4.183  16.586  0.00  0.00    +0.000 A 
ATOM     15  C   UNL     1       3.469   3.858  17.255  0.00  0.00    +0.000 A 
ATOM     16  C   UNL     1       2.752   4.845  17.936  0.00  0.00    +0.000 A 
ENDBRANCH   8  11
ENDBRANCH   1  10
BRANCH   3  17
ATOM     17  N   UNL     1      -1.021  11.764  18.816  0.00  0.00    +0.000 N 
BRANCH  17  18
ATOM     18  C   UNL     1      -1.238  12.598  19.952  0.00  0.00    +0.000 A 
ATOM     19  N   UNL     1      -2.014  12.108  20.953  0.00  0.00    +0.000 NA
ATOM     20  C   UNL     1      -2.222  12.903  22.021  0.00  0.00    +0.000 A 
ATOM     21  N   UNL     1      -1.748  14.148  22.188  0.00  0.00    +0.000 NA
ATOM     22  C   UNL     1      -0.969  14.603  21.188  0.00  0.00    +0.000 A 
ATOM     23  C   UNL     1      -0.674  13.875  20.049  0.00  0.00    +0.000 A 
ATOM     24 BR   UNL     1       0.498  14.664  18.790  0.00  0.00    +0.000 Br
BRANCH  20  25
ATOM     25  C   UNL     1      -3.061  12.382  23.065  0.00  0.00    +0.000 C 
ATOM     26  N   UNL     1      -3.743  11.949  23.907  0.00  0.00    +0.000 NA
ENDBRANCH  20  25
ENDBRANCH  17  18
BRANCH  17  27
ATOM     27  C   UNL     1      -2.137  11.779  17.842  0.00  0.00    +0.000 C 
BRANCH  27  28
ATOM     28  C   UNL     1      -2.350  10.530  16.967  0.00  0.00    +0.000 C 
ATOM     29  C   UNL     1      -3.418   9.633  17.620  0.00  0.00    +0.000 C 
ATOM     30  C   UNL     1      -2.819  10.850  15.546  0.00  0.00    +0.000 C 
ENDBRANCH  27  28
ENDBRANCH  17  27
ENDBRANCH   3  17
TORSDOF 7
ENDMDL
MODEL 3
REMARK VINA RESULT:      -7.8      0.337      1.146
REMARK  Name = 
REMARK  10 active torsions:
REMARK  status: ('A' for Active; 'I' for Inactive)
REMARK    1  A    between atoms: C_1  and  C_2
REMARK    2  A    between atoms: N_4  and  C_5
REMARK    3  A    between atoms: C_12  and  C_13
REMARK    4  A    between atoms: N_15  and  N_16
REMARK    5  A    between atoms: N_16  and  C_17
REMARK    6  A    between atoms: N_16  and  C_21
REMARK    7  A    between atoms: C_17  and  C_18
REMARK    8  A    between atoms: C_18  and  C_19
REMARK    9  A    between atoms: C_18  and  C_20
REMARK   10  A    between atoms: C_23  and  C_24
REMARK                            x       y       z     vdW  Elec       q    Type
REMARK                         _______ _______ _______ _____ _____    ______ ____
ROOT
ATOM      1  C   UNL     1       2.973   6.108  19.406  0.00  0.00    +0.000 C 
ATOM      2  O   UNL     1       3.186   5.413  20.397  0.00  0.00    +0.000 OA
ATOM      3  N   UNL     1       3.422   5.791  18.125  0.00  0.00    +0.000 N 
ATOM      4  H   UNL     1       3.231   6.412  17.348  0.00  0.00    +0.000 HD
ENDROOT
BRANCH   1  10
ATOM      5  C   UNL     1       2.900   8.540  17.262  0.00  0.00    +0.000 C 
ATOM      6  C   UNL     1       2.195   8.430  18.561  0.00  0.00    +0.000 A 
ATOM      7  N   UNL     1       1.400   9.415  19.002  0.00  0.00    +0.000 NA
ATOM      8  N   UNL     1       1.017   8.963  20.223  0.00  0.00    +0.000 N 
ATOM      9  N   UNL     1       1.408   7.685  20.532  0.00  0.00    +0.000 NA
ATOM     10  C   UNL     1       2.203   7.360  19.492  0.00  0.00    +0.000 A 
BRANCH   8  11
ATOM     11  C   UNL     1       0.288   9.778  21.137  0.00  0.00    +0.000 A 
ATOM     12  C   UNL     1      -0.048  11.103  20.818  0.00  0.00    +0.000 A 
ATOM     13  C   UNL     1      -0.762  11.885  21.738  0.00  0.00    +0.000 A 
ATOM     14  C   UNL     1      -1.124  11.355  22.977  0.00  0.00    +0.000 A 
ATOM     15  C   UNL     1      -0.780  10.045  23.301  0.00  0.00    +0.000 A 
ATOM     16  C   UNL     1      -0.081   9.254  22.385  0.00  0.00    +0.000 A 
ENDBRANCH   8  11
ENDBRANCH   1  10
BRANCH   3  17
ATOM     17  N   UNL     1       3.987   4.506  17.884  0.00  0.00    +0.000 N 
BRANCH  17  18
ATOM     18  C   UNL     1       5.156   4.544  17.070  0.00  0.00    +0.000 A 
ATOM     19  N   UNL     1       5.025   4.201  15.763  0.00  0.00    +0.000 NA
ATOM     20  C   UNL     1       6.136   4.231  15.000  0.00  0.00    +0.000 A 
ATOM     21  N   UNL     1       7.373   4.553  15.412  0.00  0.00    +0.000 NA
ATOM     22  C   UNL     1       7.472   4.904  16.708  0.00  0.00    +0.000 A 
ATOM     23  C   UNL     1       6.401   4.924  17.585  0.00  0.00    +0.000 A 
ATOM     24 BR   UNL     1       6.733   5.515  19.351  0.00  0.00    +0.000 Br
BRANCH  20  25
ATOM     25  C   UNL     1       5.989   3.846  13.624  0.00  0.00    +0.000 C 
ATOM     26  N   UNL     1       5.874   3.524  12.508  0.00  0.00    +0.000 NA
ENDBRANCH  20  25
ENDBRANCH  17  18
BRANCH  17  27
ATOM     27  C   UNL     1       3.098   3.354  17.600  0.00  0.00    +0.000 C 
BRANCH  27  28
ATOM     28  C   UNL     1       2.802   2.371  18.747  0.00  0.00    +0.000 C 
ATOM     29  C   UNL     1       1.306   2.005  18.724  0.00  0.00    +0.000 C 
ATOM     30  C   UNL     1       3.599   1.067  18.657  0.00  0.00    +0.000 C 
ENDBRANCH  27  28
ENDBRANCH  17  27
ENDBRANCH   3  17
TORSDOF 7
ENDMDL
MODEL 4
REMARK VINA RESULT:      -7.5      3.989      9.702
REMARK  Name = 
REMARK  10 active torsions:
REMARK  status: ('A' for Active; 'I' for Inactive)
REMARK    1  A    between atoms: C_1  and  C_2
REMARK    2  A    between atoms: N_4  and  C_5
REMARK    3  A    between atoms: C_12  and  C_13
REMARK    4  A    between atoms: N_15  and  N_16
REMARK    5  A    between atoms: N_16  and  C_17
REMARK    6  A    between atoms: N_16  and  C_21
REMARK    7  A    between atoms: C_17  and  C_18
REMARK    8  A    between atoms: C_18  and  C_19
REMARK    9  A    between atoms: C_18  and  C_20
REMARK   10  A    between atoms: C_23  and  C_24
REMARK                            x       y       z     vdW  Elec       q    Type
REMARK                         _______ _______ _______ _____ _____    ______ ____
ROOT
ATOM      1  C   UNL     1       0.941  10.280  18.915  0.00  0.00    +0.000 C 
ATOM      2  O   UNL     1       1.736  11.115  18.490  0.00  0.00    +0.000 OA
ATOM      3  N   UNL     1      -0.427  10.511  19.055  0.00  0.00    +0.000 N 
ATOM      4  H   UNL     1      -1.032   9.789  19.429  0.00  0.00    +0.000 HD
ENDROOT
BRANCH   1  10
ATOM      5  C   UNL     1       0.940   9.009  21.899  0.00  0.00    +0.000 C 
ATOM      6  C   UNL     1       1.398   8.393  20.631  0.00  0.00    +0.000 A 
ATOM      7  N   UNL     1       1.898   7.149  20.607  0.00  0.00    +0.000 NA
ATOM      8  N   UNL     1       2.252   6.997  19.306  0.00  0.00    +0.000 N 
ATOM      9  N   UNL     1       1.881   8.017  18.467  0.00  0.00    +0.000 NA
ATOM     10  C   UNL     1       1.379   8.933  19.320  0.00  0.00    +0.000 A 
BRANCH   8  11
ATOM     11  C   UNL     1       2.992   5.868  18.850  0.00  0.00    +0.000 A 
ATOM     12  C   UNL     1       4.284   5.606  19.332  0.00  0.00    +0.000 A 
ATOM     13  C   UNL     1       4.994   4.491  18.862  0.00  0.00    +0.000 A 
ATOM     14  C   UNL     1       4.426   3.651  17.904  0.00  0.00    +0.000 A 
ATOM     15  C   UNL     1       3.149   3.917  17.414  0.00  0.00    +0.000 A 
ATOM     16  C   UNL     1       2.430   5.017  17.886  0.00  0.00    +0.000 A 
ENDBRANCH   8  11
ENDBRANCH   1  10
BRANCH   3  17
ATOM     17  N   UNL     1      -0.993  11.692  18.498  0.00  0.00    +0.000 N 
BRANCH  17  18
ATOM     18  C   UNL     1      -1.469  12.610  19.479  0.00  0.00    +0.000 A 
ATOM     19  N   UNL     1      -2.575  12.261  20.184  0.00  0.00    +0.000 NA
ATOM     20  C   UNL     1      -3.025  13.136  21.105  0.00  0.00    +0.000 A 
ATOM     21  N   UNL     1      -2.493  14.337  21.384  0.00  0.00    +0.000 NA
ATOM     22  C   UNL     1      -1.388  14.652  20.681  0.00  0.00    +0.000 A 
ATOM     23  C   UNL     1      -0.827  13.830  19.720  0.00  0.00    +0.000 A 
ATOM     24 BR   UNL     1       0.768  14.423  18.892  0.00  0.00    +0.000 Br
BRANCH  20  25
ATOM     25  C   UNL     1      -4.208  12.765  21.831  0.00  0.00    +0.000 C 
ATOM     26  N   UNL     1      -5.173  12.463  22.411  0.00  0.00    +0.000 NA
ENDBRANCH  20  25
ENDBRANCH  17  18
BRANCH  17  27
ATOM     27  C   UNL     1      -1.859  11.597  17.298  0.00  0.00    +0.000 C 
BRANCH  27  28
ATOM     28  C   UNL     1      -2.275  10.195  16.816  0.00  0.00    +0.000 C 
ATOM     29  C   UNL     1      -3.447   9.693  17.680  0.00  0.00    +0.000 C 
ATOM     30  C   UNL     1      -2.728  10.159  15.355  0.00  0.00    +0.000 C 
ENDBRANCH  27  28
ENDBRANCH  17  27
ENDBRANCH   3  17
TORSDOF 7
ENDMDL
MODEL 5
REMARK VINA RESULT:      -7.3      3.411      8.949
REMARK  Name = 
REMARK  10 active torsions:
REMARK  status: ('A' for Active; 'I' for Inactive)
REMARK    1  A    between atoms: C_1  and  C_2
REMARK    2  A    between atoms: N_4  and  C_5
REMARK    3  A    between atoms: C_12  and  C_13
REMARK    4  A    between atoms: N_15  and  N_16
REMARK    5  A    between atoms: N_16  and  C_17
REMARK    6  A    between atoms: N_16  and  C_21
REMARK    7  A    between atoms: C_17  and  C_18
REMARK    8  A    between atoms: C_18  and  C_19
REMARK    9  A    between atoms: C_18  and  C_20
REMARK   10  A    between atoms: C_23  and  C_24
REMARK                            x       y       z     vdW  Elec       q    Type
REMARK                         _______ _______ _______ _____ _____    ______ ____
ROOT
ATOM      1  C   UNL     1       1.580   8.329  19.961  0.00  0.00    +0.000 C 
ATOM      2  O   UNL     1       1.459   8.416  21.182  0.00  0.00    +0.000 OA
ATOM      3  N   UNL     1       1.078   9.269  19.063  0.00  0.00    +0.000 N 
ATOM      4  H   UNL     1       1.193   9.134  18.065  0.00  0.00    +0.000 HD
ENDROOT
BRANCH   1  10
ATOM      5  C   UNL     1       1.356   5.185  20.726  0.00  0.00    +0.000 C 
ATOM      6  C   UNL     1       2.201   5.828  19.691  0.00  0.00    +0.000 A 
ATOM      7  N   UNL     1       3.019   5.101  18.916  0.00  0.00    +0.000 NA
ATOM      8  N   UNL     1       3.644   6.050  18.174  0.00  0.00    +0.000 N 
ATOM      9  N   UNL     1       3.175   7.329  18.330  0.00  0.00    +0.000 NA
ATOM     10  C   UNL     1       2.286   7.198  19.335  0.00  0.00    +0.000 A 
BRANCH   8  11
ATOM     11  C   UNL     1       4.740   5.740  17.318  0.00  0.00    +0.000 A 
ATOM     12  C   UNL     1       5.887   6.550  17.286  0.00  0.00    +0.000 A 
ATOM     13  C   UNL     1       6.949   6.226  16.430  0.00  0.00    +0.000 A 
ATOM     14  C   UNL     1       6.863   5.110  15.596  0.00  0.00    +0.000 A 
ATOM     15  C   UNL     1       5.720   4.313  15.616  0.00  0.00    +0.000 A 
ATOM     16  C   UNL     1       4.663   4.621  16.476  0.00  0.00    +0.000 A 
ENDBRANCH   8  11
ENDBRANCH   1  10
BRANCH   3  17
ATOM     17  N   UNL     1       0.571  10.503  19.557  0.00  0.00    +0.000 N 
BRANCH  17  18
ATOM     18  C   UNL     1      -0.718  10.833  19.045  0.00  0.00    +0.000 A 
ATOM     19  N   UNL     1      -1.023  10.413  17.790  0.00  0.00    +0.000 NA
ATOM     20  C   UNL     1      -2.239  10.735  17.308  0.00  0.00    +0.000 A 
ATOM     21  N   UNL     1      -3.182  11.449  17.944  0.00  0.00    +0.000 NA
ATOM     22  C   UNL     1      -2.859  11.840  19.192  0.00  0.00    +0.000 A 
ATOM     23  C   UNL     1      -1.648  11.559  19.798  0.00  0.00    +0.000 A 
ATOM     24 BR   UNL     1      -1.414  12.136  21.585  0.00  0.00    +0.000 Br
BRANCH  20  25
ATOM     25  C   UNL     1      -2.543  10.303  15.971  0.00  0.00    +0.000 C 
ATOM     26  N   UNL     1      -2.794   9.962  14.885  0.00  0.00    +0.000 NA
ENDBRANCH  20  25
ENDBRANCH  17  18
BRANCH  17  27
ATOM     27  C   UNL     1       1.476  11.668  19.694  0.00  0.00    +0.000 C 
BRANCH  27  28
ATOM     28  C   UNL     1       1.534  12.679  18.534  0.00  0.00    +0.000 C 
ATOM     29  C   UNL     1       0.972  14.030  19.013  0.00  0.00    +0.000 C 
ATOM     30  C   UNL     1       2.949  12.926  18.006  0.00  0.00    +0.000 C 
ENDBRANCH  27  28
ENDBRANCH  17  27
ENDBRANCH   3  17
TORSDOF 7
ENDMDL
MODEL 6
REMARK VINA RESULT:      -7.3      4.375      9.471
REMARK  Name = 
REMARK  10 active torsions:
REMARK  status: ('A' for Active; 'I' for Inactive)
REMARK    1  A    between atoms: C_1  and  C_2
REMARK    2  A    between atoms: N_4  and  C_5
REMARK    3  A    between atoms: C_12  and  C_13
REMARK    4  A    between atoms: N_15  and  N_16
REMARK    5  A    between atoms: N_16  and  C_17
REMARK    6  A    between atoms: N_16  and  C_21
REMARK    7  A    between atoms: C_17  and  C_18
REMARK    8  A    between atoms: C_18  and  C_19
REMARK    9  A    between atoms: C_18  and  C_20
REMARK   10  A    between atoms: C_23  and  C_24
REMARK                            x       y       z     vdW  Elec       q    Type
REMARK                         _______ _______ _______ _____ _____    ______ ____
ROOT
ATOM      1  C   UNL     1       0.915   9.804  20.879  0.00  0.00    +0.000 C 
ATOM      2  O   UNL     1       1.389  10.246  21.924  0.00  0.00    +0.000 OA
ATOM      3  N   UNL     1      -0.131  10.410  20.185  0.00  0.00    +0.000 N 
ATOM      4  H   UNL     1      -0.494   9.989  19.337  0.00  0.00    +0.000 HD
ENDROOT
BRANCH   1  10
ATOM      5  C   UNL     1       2.162   9.450  17.906  0.00  0.00    +0.000 C 
ATOM      6  C   UNL     1       1.949   8.419  18.949  0.00  0.00    +0.000 A 
ATOM      7  N   UNL     1       2.281   7.138  18.733  0.00  0.00    +0.000 NA
ATOM      8  N   UNL     1       1.872   6.530  19.875  0.00  0.00    +0.000 N 
ATOM      9  N   UNL     1       1.426   7.366  20.866  0.00  0.00    +0.000 NA
ATOM     10  C   UNL     1       1.428   8.570  20.259  0.00  0.00    +0.000 A 
BRANCH   8  11
ATOM     11  C   UNL     1       1.874   5.112  20.020  0.00  0.00    +0.000 A 
ATOM     12  C   UNL     1       1.562   4.273  18.938  0.00  0.00    +0.000 A 
ATOM     13  C   UNL     1       1.565   2.881  19.109  0.00  0.00    +0.000 A 
ATOM     14  C   UNL     1       1.861   2.327  20.355  0.00  0.00    +0.000 A 
ATOM     15  C   UNL     1       2.157   3.158  21.433  0.00  0.00    +0.000 A 
ATOM     16  C   UNL     1       2.170   4.546  21.269  0.00  0.00    +0.000 A 
ENDBRANCH   8  11
ENDBRANCH   1  10
BRANCH   3  17
ATOM     17  N   UNL     1      -0.559  11.712  20.569  0.00  0.00    +0.000 N 
BRANCH  17  18
ATOM     18  C   UNL     1      -1.929  11.971  20.270  0.00  0.00    +0.000 A 
ATOM     19  N   UNL     1      -2.383  11.615  19.041  0.00  0.00    +0.000 NA
ATOM     20  C   UNL     1      -3.676  11.869  18.762  0.00  0.00    +0.000 A 
ATOM     21  N   UNL     1      -4.564  12.458  19.578  0.00  0.00    +0.000 NA
ATOM     22  C   UNL     1      -4.091  12.787  20.796  0.00  0.00    +0.000 A 
ATOM     23  C   UNL     1      -2.788  12.565  21.202  0.00  0.00    +0.000 A 
ATOM     24 BR   UNL     1      -2.337  13.035  22.979  0.00  0.00    +0.000 Br
BRANCH  20  25
ATOM     25  C   UNL     1      -4.140  11.506  17.451  0.00  0.00    +0.000 C 
ATOM     26  N   UNL     1      -4.507  11.211  16.383  0.00  0.00    +0.000 NA
ENDBRANCH  20  25
ENDBRANCH  17  18
BRANCH  17  27
ATOM     27  C   UNL     1       0.332  12.875  20.344  0.00  0.00    +0.000 C 
BRANCH  27  28
ATOM     28  C   UNL     1       0.520  13.373  18.899  0.00  0.00    +0.000 C 
ATOM     29  C   UNL     1       0.182  14.874  18.835  0.00  0.00    +0.000 C 
ATOM     30  C   UNL     1       1.945  13.195  18.370  0.00  0.00    +0.000 C 
ENDBRANCH  27  28
ENDBRANCH  17  27
ENDBRANCH   3  17
TORSDOF 7
ENDMDL
MODEL 7
REMARK VINA RESULT:      -7.2      4.202      9.407
REMARK  Name = 
REMARK  10 active torsions:
REMARK  status: ('A' for Active; 'I' for Inactive)
REMARK    1  A    between atoms: C_1  and  C_2
REMARK    2  A    between atoms: N_4  and  C_5
REMARK    3  A    between atoms: C_12  and  C_13
REMARK    4  A    between atoms: N_15  and  N_16
REMARK    5  A    between atoms: N_16  and  C_17
REMARK    6  A    between atoms: N_16  and  C_21
REMARK    7  A    between atoms: C_17  and  C_18
REMARK    8  A    between atoms: C_18  and  C_19
REMARK    9  A    between atoms: C_18  and  C_20
REMARK   10  A    between atoms: C_23  and  C_24
REMARK                            x       y       z     vdW  Elec       q    Type
REMARK                         _______ _______ _______ _____ _____    ______ ____
ROOT
ATOM      1  C   UNL     1       1.087  10.398  18.857  0.00  0.00    +0.000 C 
ATOM      2  O   UNL     1       1.753  11.331  18.413  0.00  0.00    +0.000 OA
ATOM      3  N   UNL     1      -0.215  10.535  19.337  0.00  0.00    +0.000 N 
ATOM      4  H   UNL     1      -0.709   9.732  19.709  0.00  0.00    +0.000 HD
ENDROOT
BRANCH   1  10
ATOM      5  C   UNL     1       1.195   8.424  21.427  0.00  0.00    +0.000 C 
ATOM      6  C   UNL     1       1.687   8.179  20.051  0.00  0.00    +0.000 A 
ATOM      7  N   UNL     1       2.273   7.019  19.722  0.00  0.00    +0.000 NA
ATOM      8  N   UNL     1       2.628   7.223  18.428  0.00  0.00    +0.000 N 
ATOM      9  N   UNL     1       2.181   8.391  17.867  0.00  0.00    +0.000 NA
ATOM     10  C   UNL     1       1.621   9.028  18.916  0.00  0.00    +0.000 A 
BRANCH   8  11
ATOM     11  C   UNL     1       3.443   6.298  17.712  0.00  0.00    +0.000 A 
ATOM     12  C   UNL     1       4.521   6.739  16.928  0.00  0.00    +0.000 A 
ATOM     13  C   UNL     1       5.304   5.809  16.229  0.00  0.00    +0.000 A 
ATOM     14  C   UNL     1       5.005   4.448  16.297  0.00  0.00    +0.000 A 
ATOM     15  C   UNL     1       3.927   4.009  17.063  0.00  0.00    +0.000 A 
ATOM     16  C   UNL     1       3.150   4.928  17.774  0.00  0.00    +0.000 A 
ENDBRANCH   8  11
ENDBRANCH   1  10
BRANCH   3  17
ATOM     17  N   UNL     1      -0.908  11.761  19.132  0.00  0.00    +0.000 N 
BRANCH  17  18
ATOM     18  C   UNL     1      -2.099  11.618  18.363  0.00  0.00    +0.000 A 
ATOM     19  N   UNL     1      -1.983  11.104  17.112  0.00  0.00    +0.000 NA
ATOM     20  C   UNL     1      -3.111  10.978  16.386  0.00  0.00    +0.000 A 
ATOM     21  N   UNL     1      -4.348  11.329  16.775  0.00  0.00    +0.000 NA
ATOM     22  C   UNL     1      -4.437  11.822  18.025  0.00  0.00    +0.000 A 
ATOM     23  C   UNL     1      -3.352  11.986  18.868  0.00  0.00    +0.000 A 
ATOM     24 BR   UNL     1      -3.695  12.628  20.614  0.00  0.00    +0.000 Br
BRANCH  20  25
ATOM     25  C   UNL     1      -2.973  10.452  15.056  0.00  0.00    +0.000 C 
ATOM     26  N   UNL     1      -2.851  10.030  13.976  0.00  0.00    +0.000 NA
ENDBRANCH  20  25
ENDBRANCH  17  18
BRANCH  17  27
ATOM     27  C   UNL     1      -0.144  12.995  18.828  0.00  0.00    +0.000 C 
BRANCH  27  28
ATOM     28  C   UNL     1       0.128  13.978  19.981  0.00  0.00    +0.000 C 
ATOM     29  C   UNL     1      -0.885  15.136  19.905  0.00  0.00    +0.000 C 
ATOM     30  C   UNL     1       0.005  13.345  21.369  0.00  0.00    +0.000 C 
ENDBRANCH  27  28
ENDBRANCH  17  27
ENDBRANCH   3  17
TORSDOF 7
ENDMDL
MODEL 8
REMARK VINA RESULT:      -7.1      3.361      9.004
REMARK  Name = 
REMARK  10 active torsions:
REMARK  status: ('A' for Active; 'I' for Inactive)
REMARK    1  A    between atoms: C_1  and  C_2
REMARK    2  A    between atoms: N_4  and  C_5
REMARK    3  A    between atoms: C_12  and  C_13
REMARK    4  A    between atoms: N_15  and  N_16
REMARK    5  A    between atoms: N_16  and  C_17
REMARK    6  A    between atoms: N_16  and  C_21
REMARK    7  A    between atoms: C_17  and  C_18
REMARK    8  A    between atoms: C_18  and  C_19
REMARK    9  A    between atoms: C_18  and  C_20
REMARK   10  A    between atoms: C_23  and  C_24
REMARK                            x       y       z     vdW  Elec       q    Type
REMARK                         _______ _______ _______ _____ _____    ______ ____
ROOT
ATOM      1  C   UNL     1       1.705   8.570  19.594  0.00  0.00    +0.000 C 
ATOM      2  O   UNL     1       1.391   8.726  20.772  0.00  0.00    +0.000 OA
ATOM      3  N   UNL     1       1.455   9.508  18.593  0.00  0.00    +0.000 N 
ATOM      4  H   UNL     1       1.720   9.315  17.634  0.00  0.00    +0.000 HD
ENDROOT
BRANCH   1  10
ATOM      5  C   UNL     1       1.459   5.577  20.818  0.00  0.00    +0.000 C 
ATOM      6  C   UNL     1       2.295   6.049  19.688  0.00  0.00    +0.000 A 
ATOM      7  N   UNL     1       3.094   5.205  19.019  0.00  0.00    +0.000 NA
ATOM      8  N   UNL     1       3.718   6.026  18.137  0.00  0.00    +0.000 N 
ATOM      9  N   UNL     1       3.265   7.320  18.107  0.00  0.00    +0.000 NA
ATOM     10  C   UNL     1       2.389   7.350  19.132  0.00  0.00    +0.000 A 
BRANCH   8  11
ATOM     11  C   UNL     1       4.798   5.579  17.321  0.00  0.00    +0.000 A 
ATOM     12  C   UNL     1       4.678   4.427  16.528  0.00  0.00    +0.000 A 
ATOM     13  C   UNL     1       5.758   4.005  15.739  0.00  0.00    +0.000 A 
ATOM     14  C   UNL     1       6.958   4.718  15.752  0.00  0.00    +0.000 A 
ATOM     15  C   UNL     1       7.083   5.854  16.550  0.00  0.00    +0.000 A 
ATOM     16  C   UNL     1       6.008   6.289  17.328  0.00  0.00    +0.000 A 
ENDBRANCH   8  11
ENDBRANCH   1  10
BRANCH   3  17
ATOM     17  N   UNL     1       0.997  10.806  18.955  0.00  0.00    +0.000 N 
BRANCH  17  18
ATOM     18  C   UNL     1      -0.399  10.997  18.737  0.00  0.00    +0.000 A 
ATOM     19  N   UNL     1      -0.875  10.779  17.484  0.00  0.00    +0.000 NA
ATOM     20  C   UNL     1      -2.194  10.969  17.282  0.00  0.00    +0.000 A 
ATOM     21  N   UNL     1      -3.089  11.371  18.199  0.00  0.00    +0.000 NA
ATOM     22  C   UNL     1      -2.592  11.564  19.436  0.00  0.00    +0.000 A 
ATOM     23  C   UNL     1      -1.260  11.389  19.768  0.00  0.00    +0.000 A 
ATOM     24 BR   UNL     1      -0.774  11.643  21.579  0.00  0.00    +0.000 Br
BRANCH  20  25
ATOM     25  C   UNL     1      -2.683  10.756  15.948  0.00  0.00    +0.000 C 
ATOM     26  N   UNL     1      -3.083  10.572  14.867  0.00  0.00    +0.000 NA
ENDBRANCH  20  25
ENDBRANCH  17  18
BRANCH  17  27
ATOM     27  C   UNL     1       1.821  11.994  18.629  0.00  0.00    +0.000 C 
BRANCH  27  28
ATOM     28  C   UNL     1       1.562  13.291  19.417  0.00  0.00    +0.000 C 
ATOM     29  C   UNL     1       2.564  13.381  20.583  0.00  0.00    +0.000 C 
ATOM     30  C   UNL     1       1.716  14.560  18.575  0.00  0.00    +0.000 C 
ENDBRANCH  27  28
ENDBRANCH  17  27
ENDBRANCH   3  17
TORSDOF 7
ENDMDL
MODEL 9
REMARK VINA RESULT:      -7.1      1.883      8.393
REMARK  Name = 
REMARK  10 active torsions:
REMARK  status: ('A' for Active; 'I' for Inactive)
REMARK    1  A    between atoms: C_1  and  C_2
REMARK    2  A    between atoms: N_4  and  C_5
REMARK    3  A    between atoms: C_12  and  C_13
REMARK    4  A    between atoms: N_15  and  N_16
REMARK    5  A    between atoms: N_16  and  C_17
REMARK    6  A    between atoms: N_16  and  C_21
REMARK    7  A    between atoms: C_17  and  C_18
REMARK    8  A    between atoms: C_18  and  C_19
REMARK    9  A    between atoms: C_18  and  C_20
REMARK   10  A    between atoms: C_23  and  C_24
REMARK                            x       y       z     vdW  Elec       q    Type
REMARK                         _______ _______ _______ _____ _____    ______ ____
ROOT
ATOM      1  C   UNL     1       4.402   4.594  18.761  0.00  0.00    +0.000 C 
ATOM      2  O   UNL     1       4.484   3.870  19.751  0.00  0.00    +0.000 OA
ATOM      3  N   UNL     1       3.321   5.436  18.504  0.00  0.00    +0.000 N 
ATOM      4  H   UNL     1       3.300   5.997  17.661  0.00  0.00    +0.000 HD
ENDROOT
BRANCH   1  10
ATOM      5  C   UNL     1       7.451   5.638  19.119  0.00  0.00    +0.000 C 
ATOM      6  C   UNL     1       6.790   5.114  17.900  0.00  0.00    +0.000 A 
ATOM      7  N   UNL     1       7.452   5.021  16.739  0.00  0.00    +0.000 NA
ATOM      8  N   UNL     1       6.495   4.574  15.887  0.00  0.00    +0.000 N 
ATOM      9  N   UNL     1       5.296   4.242  16.463  0.00  0.00    +0.000 NA
ATOM     10  C   UNL     1       5.465   4.633  17.743  0.00  0.00    +0.000 A 
BRANCH   8  11
ATOM     11  C   UNL     1       6.713   4.490  14.481  0.00  0.00    +0.000 A 
ATOM     12  C   UNL     1       6.028   3.548  13.696  0.00  0.00    +0.000 A 
ATOM     13  C   UNL     1       6.265   3.483  12.316  0.00  0.00    +0.000 A 
ATOM     14  C   UNL     1       7.192   4.340  11.721  0.00  0.00    +0.000 A 
ATOM     15  C   UNL     1       7.883   5.265  12.500  0.00  0.00    +0.000 A 
ATOM     16  C   UNL     1       7.644   5.347  13.874  0.00  0.00    +0.000 A 
ENDBRANCH   8  11
ENDBRANCH   1  10
BRANCH   3  17
ATOM     17  N   UNL     1       2.343   5.642  19.518  0.00  0.00    +0.000 N 
BRANCH  17  18
ATOM     18  C   UNL     1       1.989   7.012  19.695  0.00  0.00    +0.000 A 
ATOM     19  N   UNL     1       1.398   7.362  20.866  0.00  0.00    +0.000 NA
ATOM     20  C   UNL     1       1.058   8.657  21.024  0.00  0.00    +0.000 A 
ATOM     21  N   UNL     1       1.232   9.639  20.125  0.00  0.00    +0.000 NA
ATOM     22  C   UNL     1       1.834   9.266  18.980  0.00  0.00    +0.000 A 
ATOM     23  C   UNL     1       2.239   7.972  18.708  0.00  0.00    +0.000 A 
ATOM     24 BR   UNL     1       3.131   7.665  17.068  0.00  0.00    +0.000 Br
BRANCH  20  25
ATOM     25  C   UNL     1       0.415   9.013  22.259  0.00  0.00    +0.000 C 
ATOM     26  N   UNL     1      -0.099   9.296  23.267  0.00  0.00    +0.000 NA
ENDBRANCH  20  25
ENDBRANCH  17  18
BRANCH  17  27
ATOM     27  C   UNL     1       2.425   4.877  20.785  0.00  0.00    +0.000 C 
BRANCH  27  28
ATOM     28  C   UNL     1       1.371   3.784  21.038  0.00  0.00    +0.000 C 
ATOM     29  C   UNL     1       0.843   3.269  19.686  0.00  0.00    +0.000 C 
ATOM     30  C   UNL     1       1.911   2.580  21.813  0.00  0.00    +0.000 C 
ENDBRANCH  27  28
ENDBRANCH  17  27
ENDBRANCH   3  17
TORSDOF 7
ENDMDL
