MODEL 1
REMARK VINA RESULT:      -9.2      0.000      0.000
REMARK  Name = 
REMARK  11 active torsions:
REMARK  status: ('A' for Active; 'I' for Inactive)
REMARK    1  A    between atoms: C_1  and  C_2
REMARK    2  A    between atoms: N_4  and  C_5
REMARK    3  A    between atoms: C_6  and  C_7
REMARK    4  A    between atoms: C_8  and  C_9
REMARK    5  A    between atoms: C_9  and  C_10
REMARK    6  A    between atoms: C_9  and  N_11
REMARK    7  A    between atoms: C_12  and  C_14
REMARK    8  A    between atoms: C_17  and  O_18
REMARK    9  A    between atoms: O_18  and  C_19
REMARK   10  A    between atoms: N_22  and  C_23
REMARK   11  A    between atoms: C_23  and  C_24
REMARK                            x       y       z     vdW  Elec       q    Type
REMARK                         _______ _______ _______ _____ _____    ______ ____
ROOT
ATOM      1  C   UNL     1       0.791   9.582  19.428  0.00  0.00    +0.000 A 
ATOM      2  C   UNL     1       0.756   8.883  20.637  0.00  0.00    +0.000 A 
ATOM      3  C   UNL     1       1.497   7.683  20.794  0.00  0.00    +0.000 A 
ATOM      4  C   UNL     1       2.268   7.150  19.748  0.00  0.00    +0.000 A 
ATOM      5  C   UNL     1       2.334   7.876  18.562  0.00  0.00    +0.000 A 
ATOM      6  C   UNL     1       1.608   9.068  18.407  0.00  0.00    +0.000 A 
ENDROOT
BRANCH   1   8
ATOM      7  N   UNL     1      -1.358  10.871  19.260  0.00  0.00    +0.000 N 
ATOM      8  C   UNL     1       0.022  10.840  19.113  0.00  0.00    +0.000 C 
ATOM      9  O   UNL     1       0.651  11.826  18.722  0.00  0.00    +0.000 OA
ATOM     10  H   UNL     1      -1.859  10.086  19.648  0.00  0.00    +0.000 HD
BRANCH   7  11
ATOM     11  C   UNL     1      -2.079  12.125  19.049  0.00  0.00    +0.000 C 
ATOM     12  C   UNL     1      -2.217  12.926  20.347  0.00  0.00    +0.000 C 
BRANCH  11  20
ATOM     13  C   UNL     1      -2.767  10.916  16.011  0.00  0.00    +0.000 C 
ATOM     14  C   UNL     1      -3.696  11.350  17.084  0.00  0.00    +0.000 A 
ATOM     15  N   UNL     1      -5.010  11.228  16.870  0.00  0.00    +0.000 NA
ATOM     16  N   UNL     1      -5.579  11.644  18.008  0.00  0.00    +0.000 N 
ATOM     17  C   UNL     1      -7.018  11.585  18.127  0.00  0.00    +0.000 C 
ATOM     18  C   UNL     1      -4.672  12.052  18.950  0.00  0.00    +0.000 A 
ATOM     19  C   UNL     1      -5.061  12.524  20.307  0.00  0.00    +0.000 C 
ATOM     20  C   UNL     1      -3.410  11.884  18.378  0.00  0.00    +0.000 A 
ENDBRANCH  11  20
ENDBRANCH   7  11
ENDBRANCH   1   8
BRANCH   4  21
ATOM     21  O   UNL     1       2.903   5.951  19.991  0.00  0.00    +0.000 OA
BRANCH  21  22
ATOM     22  C   UNL     1       2.266   4.735  19.538  0.00  0.00    +0.000 C 
ATOM     23  C   UNL     1       3.108   3.499  19.872  0.00  0.00    +0.000 C 
ATOM     24  C   UNL     1       4.398   3.440  19.056  0.00  0.00    +0.000 C 
ATOM     25  N   UNL     1       4.202   3.527  17.597  0.00  0.00    +0.000 NA
ATOM     26  C   UNL     1       3.313   4.632  17.205  0.00  0.00    +0.000 C 
ATOM     27  C   UNL     1       2.031   4.751  18.025  0.00  0.00    +0.000 C 
BRANCH  25  28
ATOM     28  C   UNL     1       5.518   3.737  16.920  0.00  0.00    +0.000 C 
BRANCH  28  29
ATOM     29  C   UNL     1       6.352   4.891  17.451  0.00  0.00    +0.000 A 
ATOM     30  C   UNL     1       6.263   6.152  16.868  0.00  0.00    +0.000 A 
ATOM     31  C   UNL     1       7.089   7.169  17.340  0.00  0.00    +0.000 A 
ATOM     32  C   UNL     1       7.963   6.907  18.389  0.00  0.00    +0.000 A 
ATOM     33  C   UNL     1       7.966   5.636  18.935  0.00  0.00    +0.000 A 
ATOM     34  N   UNL     1       7.187   4.626  18.492  0.00  0.00    +0.000 NA
ENDBRANCH  28  29
ENDBRANCH  25  28
ENDBRANCH  21  22
ENDBRANCH   4  21
TORSDOF 7
ENDMDL
MODEL 2
REMARK VINA RESULT:      -9.0      1.683      2.480
REMARK  Name = 
REMARK  11 active torsions:
REMARK  status: ('A' for Active; 'I' for Inactive)
REMARK    1  A    between atoms: C_1  and  C_2
REMARK    2  A    between atoms: N_4  and  C_5
REMARK    3  A    between atoms: C_6  and  C_7
REMARK    4  A    between atoms: C_8  and  C_9
REMARK    5  A    between atoms: C_9  and  C_10
REMARK    6  A    between atoms: C_9  and  N_11
REMARK    7  A    between atoms: C_12  and  C_14
REMARK    8  A    between atoms: C_17  and  O_18
REMARK    9  A    between atoms: O_18  and  C_19
REMARK   10  A    between atoms: N_22  and  C_23
REMARK   11  A    between atoms: C_23  and  C_24
REMARK                            x       y       z     vdW  Elec       q    Type
REMARK                         _______ _______ _______ _____ _____    ______ ____
ROOT
ATOM      1  C   UNL     1       0.124  10.127  19.388  0.00  0.00    +0.000 A 
ATOM      2  C   UNL     1       0.374   9.416  20.564  0.00  0.00    +0.000 A 
ATOM      3  C   UNL     1       1.304   8.344  20.571  0.00  0.00    +0.000 A 
ATOM      4  C   UNL     1       1.986   7.951  19.408  0.00  0.00    +0.000 A 
ATOM      5  C   UNL     1       1.766   8.693  18.251  0.00  0.00    +0.000 A 
ATOM      6  C   UNL     1       0.851   9.759  18.242  0.00  0.00    +0.000 A 
ENDROOT
BRANCH   1   8
ATOM      7  N   UNL     1      -1.581  11.713  20.326  0.00  0.00    +0.000 N 
ATOM      8  C   UNL     1      -0.865  11.253  19.230  0.00  0.00    +0.000 C 
ATOM      9  O   UNL     1      -1.019  11.743  18.108  0.00  0.00    +0.000 OA
ATOM     10  H   UNL     1      -1.400  11.359  21.253  0.00  0.00    +0.000 HD
BRANCH   7  11
ATOM     11  C   UNL     1      -2.462  12.871  20.180  0.00  0.00    +0.000 C 
ATOM     12  C   UNL     1      -1.750  14.176  20.552  0.00  0.00    +0.000 C 
BRANCH  11  20
ATOM     13  C   UNL     1      -3.008  12.783  23.475  0.00  0.00    +0.000 C 
ATOM     14  C   UNL     1      -3.976  12.659  22.357  0.00  0.00    +0.000 A 
ATOM     15  N   UNL     1      -5.272  12.528  22.655  0.00  0.00    +0.000 NA
ATOM     16  N   UNL     1      -5.891  12.490  21.468  0.00  0.00    +0.000 N 
ATOM     17  C   UNL     1      -7.333  12.406  21.439  0.00  0.00    +0.000 C 
ATOM     18  C   UNL     1      -5.030  12.575  20.406  0.00  0.00    +0.000 A 
ATOM     19  C   UNL     1      -5.483  12.589  18.987  0.00  0.00    +0.000 C 
ATOM     20  C   UNL     1      -3.748  12.679  20.947  0.00  0.00    +0.000 A 
ENDBRANCH  11  20
ENDBRANCH   7  11
ENDBRANCH   1   8
BRANCH   4  21
ATOM     21  O   UNL     1       2.825   6.863  19.516  0.00  0.00    +0.000 OA
BRANCH  21  22
ATOM     22  C   UNL     1       2.242   5.541  19.456  0.00  0.00    +0.000 C 
ATOM     23  C   UNL     1       3.118   4.507  20.171  0.00  0.00    +0.000 C 
ATOM     24  C   UNL     1       4.430   4.249  19.431  0.00  0.00    +0.000 C 
ATOM     25  N   UNL     1       4.268   3.869  18.016  0.00  0.00    +0.000 NA
ATOM     26  C   UNL     1       3.352   4.760  17.286  0.00  0.00    +0.000 C 
ATOM     27  C   UNL     1       2.046   5.075  18.011  0.00  0.00    +0.000 C 
BRANCH  25  28
ATOM     28  C   UNL     1       5.593   3.912  17.325  0.00  0.00    +0.000 C 
BRANCH  28  29
ATOM     29  C   UNL     1       6.434   5.148  17.594  0.00  0.00    +0.000 A 
ATOM     30  C   UNL     1       7.395   5.141  18.602  0.00  0.00    +0.000 A 
ATOM     31  C   UNL     1       8.103   6.312  18.862  0.00  0.00    +0.000 A 
ATOM     32  C   UNL     1       7.848   7.447  18.101  0.00  0.00    +0.000 A 
ATOM     33  C   UNL     1       6.901   7.360  17.095  0.00  0.00    +0.000 A 
ATOM     34  N   UNL     1       6.190   6.244  16.827  0.00  0.00    +0.000 NA
ENDBRANCH  28  29
ENDBRANCH  25  28
ENDBRANCH  21  22
ENDBRANCH   4  21
TORSDOF 7
ENDMDL
MODEL 3
REMARK VINA RESULT:      -9.0      0.837      1.776
REMARK  Name = 
REMARK  11 active torsions:
REMARK  status: ('A' for Active; 'I' for Inactive)
REMARK    1  A    between atoms: C_1  and  C_2
REMARK    2  A    between atoms: N_4  and  C_5
REMARK    3  A    between atoms: C_6  and  C_7
REMARK    4  A    between atoms: C_8  and  C_9
REMARK    5  A    between atoms: C_9  and  C_10
REMARK    6  A    between atoms: C_9  and  N_11
REMARK    7  A    between atoms: C_12  and  C_14
REMARK    8  A    between atoms: C_17  and  O_18
REMARK    9  A    between atoms: O_18  and  C_19
REMARK   10  A    between atoms: N_22  and  C_23
REMARK   11  A    between atoms: C_23  and  C_24
REMARK                            x       y       z     vdW  Elec       q    Type
REMARK                         _______ _______ _______ _____ _____    ______ ____
ROOT
ATOM      1  C   UNL     1       0.364  10.010  19.510  0.00  0.00    +0.000 A 
ATOM      2  C   UNL     1       0.458   9.268  20.690  0.00  0.00    +0.000 A 
ATOM      3  C   UNL     1       1.312   8.137  20.760  0.00  0.00    +0.000 A 
ATOM      4  C   UNL     1       2.070   7.715  19.656  0.00  0.00    +0.000 A 
ATOM      5  C   UNL     1       2.006   8.485  18.499  0.00  0.00    +0.000 A 
ATOM      6  C   UNL     1       1.168   9.610  18.429  0.00  0.00    +0.000 A 
ENDROOT
BRANCH   1   8
ATOM      7  N   UNL     1      -1.525  11.512  20.202  0.00  0.00    +0.000 N 
ATOM      8  C   UNL     1      -0.531  11.202  19.285  0.00  0.00    +0.000 C 
ATOM      9  O   UNL     1      -0.355  11.881  18.270  0.00  0.00    +0.000 OA
ATOM     10  H   UNL     1      -1.618  10.998  21.065  0.00  0.00    +0.000 HD
BRANCH   7  11
ATOM     11  C   UNL     1      -2.319  12.728  20.024  0.00  0.00    +0.000 C 
ATOM     12  C   UNL     1      -2.032  13.758  21.120  0.00  0.00    +0.000 C 
BRANCH  11  20
ATOM     13  C   UNL     1      -4.801  13.187  22.213  0.00  0.00    +0.000 C 
ATOM     14  C   UNL     1      -4.848  12.622  20.842  0.00  0.00    +0.000 A 
ATOM     15  N   UNL     1      -6.036  12.261  20.347  0.00  0.00    +0.000 NA
ATOM     16  N   UNL     1      -5.773  11.844  19.103  0.00  0.00    +0.000 N 
ATOM     17  C   UNL     1      -6.874  11.429  18.263  0.00  0.00    +0.000 C 
ATOM     18  C   UNL     1      -4.443  11.905  18.780  0.00  0.00    +0.000 A 
ATOM     19  C   UNL     1      -3.909  11.528  17.443  0.00  0.00    +0.000 C 
ATOM     20  C   UNL     1      -3.790  12.407  19.907  0.00  0.00    +0.000 A 
ENDBRANCH  11  20
ENDBRANCH   7  11
ENDBRANCH   1   8
BRANCH   4  21
ATOM     21  O   UNL     1       2.822   6.571  19.819  0.00  0.00    +0.000 OA
BRANCH  21  22
ATOM     22  C   UNL     1       2.194   5.296  19.559  0.00  0.00    +0.000 C 
ATOM     23  C   UNL     1       3.016   4.136  20.130  0.00  0.00    +0.000 C 
ATOM     24  C   UNL     1       4.334   3.936  19.384  0.00  0.00    +0.000 C 
ATOM     25  N   UNL     1       4.190   3.771  17.925  0.00  0.00    +0.000 NA
ATOM     26  C   UNL     1       3.322   4.793  17.318  0.00  0.00    +0.000 C 
ATOM     27  C   UNL     1       2.013   5.051  18.058  0.00  0.00    +0.000 C 
BRANCH  25  28
ATOM     28  C   UNL     1       5.530   3.861  17.270  0.00  0.00    +0.000 C 
BRANCH  28  29
ATOM     29  C   UNL     1       6.396   5.030  17.706  0.00  0.00    +0.000 A 
ATOM     30  C   UNL     1       6.369   6.230  16.999  0.00  0.00    +0.000 A 
ATOM     31  C   UNL     1       7.222   7.259  17.390  0.00  0.00    +0.000 A 
ATOM     32  C   UNL     1       8.063   7.071  18.481  0.00  0.00    +0.000 A 
ATOM     33  C   UNL     1       8.004   5.861  19.150  0.00  0.00    +0.000 A 
ATOM     34  N   UNL     1       7.197   4.840  18.789  0.00  0.00    +0.000 NA
ENDBRANCH  28  29
ENDBRANCH  25  28
ENDBRANCH  21  22
ENDBRANCH   4  21
TORSDOF 7
ENDMDL
MODEL 4
REMARK VINA RESULT:      -9.0      1.827      2.651
REMARK  Name = 
REMARK  11 active torsions:
REMARK  status: ('A' for Active; 'I' for Inactive)
REMARK    1  A    between atoms: C_1  and  C_2
REMARK    2  A    between atoms: N_4  and  C_5
REMARK    3  A    between atoms: C_6  and  C_7
REMARK    4  A    between atoms: C_8  and  C_9
REMARK    5  A    between atoms: C_9  and  C_10
REMARK    6  A    between atoms: C_9  and  N_11
REMARK    7  A    between atoms: C_12  and  C_14
REMARK    8  A    between atoms: C_17  and  O_18
REMARK    9  A    between atoms: O_18  and  C_19
REMARK   10  A    between atoms: N_22  and  C_23
REMARK   11  A    between atoms: C_23  and  C_24
REMARK                            x       y       z     vdW  Elec       q    Type
REMARK                         _______ _______ _______ _____ _____    ______ ____
ROOT
ATOM      1  C   UNL     1       0.205   9.848  19.496  0.00  0.00    +0.000 A 
ATOM      2  C   UNL     1       0.500   9.117  20.650  0.00  0.00    +0.000 A 
ATOM      3  C   UNL     1       1.479   8.090  20.618  0.00  0.00    +0.000 A 
ATOM      4  C   UNL     1       2.164   7.761  19.437  0.00  0.00    +0.000 A 
ATOM      5  C   UNL     1       1.897   8.523  18.304  0.00  0.00    +0.000 A 
ATOM      6  C   UNL     1       0.935   9.545  18.334  0.00  0.00    +0.000 A 
ENDROOT
BRANCH   1   8
ATOM      7  N   UNL     1      -0.897  11.947  20.323  0.00  0.00    +0.000 N 
ATOM      8  C   UNL     1      -0.837  10.931  19.380  0.00  0.00    +0.000 C 
ATOM      9  O   UNL     1      -1.626  10.883  18.432  0.00  0.00    +0.000 OA
ATOM     10  H   UNL     1      -0.205  12.022  21.053  0.00  0.00    +0.000 HD
BRANCH   7  11
ATOM     11  C   UNL     1      -1.845  13.046  20.143  0.00  0.00    +0.000 C 
ATOM     12  C   UNL     1      -1.153  14.410  20.215  0.00  0.00    +0.000 C 
BRANCH  11  20
ATOM     13  C   UNL     1      -5.090  12.496  19.563  0.00  0.00    +0.000 C 
ATOM     14  C   UNL     1      -4.383  12.683  20.854  0.00  0.00    +0.000 A 
ATOM     15  N   UNL     1      -5.093  12.592  21.983  0.00  0.00    +0.000 NA
ATOM     16  N   UNL     1      -4.195  12.752  22.963  0.00  0.00    +0.000 N 
ATOM     17  C   UNL     1      -4.640  12.651  24.335  0.00  0.00    +0.000 C 
ATOM     18  C   UNL     1      -2.923  12.963  22.503  0.00  0.00    +0.000 A 
ATOM     19  C   UNL     1      -1.748  13.133  23.401  0.00  0.00    +0.000 C 
ATOM     20  C   UNL     1      -3.000  12.935  21.109  0.00  0.00    +0.000 A 
ENDBRANCH  11  20
ENDBRANCH   7  11
ENDBRANCH   1   8
BRANCH   4  21
ATOM     21  O   UNL     1       3.053   6.709  19.507  0.00  0.00    +0.000 OA
BRANCH  21  22
ATOM     22  C   UNL     1       2.546   5.370  19.307  0.00  0.00    +0.000 C 
ATOM     23  C   UNL     1       3.469   4.319  19.934  0.00  0.00    +0.000 C 
ATOM     24  C   UNL     1       4.804   4.208  19.199  0.00  0.00    +0.000 C 
ATOM     25  N   UNL     1       4.684   3.962  17.750  0.00  0.00    +0.000 NA
ATOM     26  C   UNL     1       3.730   4.869  17.093  0.00  0.00    +0.000 C 
ATOM     27  C   UNL     1       2.397   5.039  17.819  0.00  0.00    +0.000 C 
BRANCH  25  28
ATOM     28  C   UNL     1       6.014   4.144  17.093  0.00  0.00    +0.000 C 
BRANCH  28  29
ATOM     29  C   UNL     1       6.766   5.409  17.473  0.00  0.00    +0.000 A 
ATOM     30  C   UNL     1       7.618   5.417  18.574  0.00  0.00    +0.000 A 
ATOM     31  C   UNL     1       8.242   6.610  18.931  0.00  0.00    +0.000 A 
ATOM     32  C   UNL     1       8.014   7.752  18.172  0.00  0.00    +0.000 A 
ATOM     33  C   UNL     1       7.179   7.651  17.073  0.00  0.00    +0.000 A 
ATOM     34  N   UNL     1       6.551   6.512  16.709  0.00  0.00    +0.000 NA
ENDBRANCH  28  29
ENDBRANCH  25  28
ENDBRANCH  21  22
ENDBRANCH   4  21
TORSDOF 7
ENDMDL
MODEL 5
REMARK VINA RESULT:      -8.9      1.845      2.845
REMARK  Name = 
REMARK  11 active torsions:
REMARK  status: ('A' for Active; 'I' for Inactive)
REMARK    1  A    between atoms: C_1  and  C_2
REMARK    2  A    between atoms: N_4  and  C_5
REMARK    3  A    between atoms: C_6  and  C_7
REMARK    4  A    between atoms: C_8  and  C_9
REMARK    5  A    between atoms: C_9  and  C_10
REMARK    6  A    between atoms: C_9  and  N_11
REMARK    7  A    between atoms: C_12  and  C_14
REMARK    8  A    between atoms: C_17  and  O_18
REMARK    9  A    between atoms: O_18  and  C_19
REMARK   10  A    between atoms: N_22  and  C_23
REMARK   11  A    between atoms: C_23  and  C_24
REMARK                            x       y       z     vdW  Elec       q    Type
REMARK                         _______ _______ _______ _____ _____    ______ ____
ROOT
ATOM      1  C   UNL     1       0.167  10.373  20.174  0.00  0.00    +0.000 A 
ATOM      2  C   UNL     1       0.888  10.128  19.003  0.00  0.00    +0.000 A 
ATOM      3  C   UNL     1       1.670   8.951  18.873  0.00  0.00    +0.000 A 
ATOM      4  C   UNL     1       1.761   8.008  19.910  0.00  0.00    +0.000 A 
ATOM      5  C   UNL     1       1.005   8.236  21.056  0.00  0.00    +0.000 A 
ATOM      6  C   UNL     1       0.225   9.397  21.185  0.00  0.00    +0.000 A 
ENDROOT
BRANCH   1   8
ATOM      7  N   UNL     1      -1.296  11.741  21.687  0.00  0.00    +0.000 N 
ATOM      8  C   UNL     1      -0.664  11.597  20.460  0.00  0.00    +0.000 C 
ATOM      9  O   UNL     1      -0.765  12.453  19.577  0.00  0.00    +0.000 OA
ATOM     10  H   UNL     1      -1.152  11.075  22.430  0.00  0.00    +0.000 HD
BRANCH   7  11
ATOM     11  C   UNL     1      -2.016  12.979  21.989  0.00  0.00    +0.000 C 
ATOM     12  C   UNL     1      -1.465  13.663  23.243  0.00  0.00    +0.000 C 
BRANCH  11  20
ATOM     13  C   UNL     1      -4.012  12.738  24.657  0.00  0.00    +0.000 C 
ATOM     14  C   UNL     1      -4.353  12.654  23.215  0.00  0.00    +0.000 A 
ATOM     15  N   UNL     1      -5.637  12.495  22.878  0.00  0.00    +0.000 NA
ATOM     16  N   UNL     1      -5.640  12.503  21.539  0.00  0.00    +0.000 N 
ATOM     17  C   UNL     1      -6.905  12.406  20.847  0.00  0.00    +0.000 C 
ATOM     18  C   UNL     1      -4.390  12.645  20.996  0.00  0.00    +0.000 A 
ATOM     19  C   UNL     1      -4.141  12.717  19.530  0.00  0.00    +0.000 C 
ATOM     20  C   UNL     1      -3.504  12.739  22.070  0.00  0.00    +0.000 A 
ENDBRANCH  11  20
ENDBRANCH   7  11
ENDBRANCH   1   8
BRANCH   4  21
ATOM     21  O   UNL     1       2.593   6.929  19.699  0.00  0.00    +0.000 OA
BRANCH  21  22
ATOM     22  C   UNL     1       2.003   5.611  19.646  0.00  0.00    +0.000 C 
ATOM     23  C   UNL     1       2.902   4.564  20.312  0.00  0.00    +0.000 C 
ATOM     24  C   UNL     1       4.183   4.311  19.520  0.00  0.00    +0.000 C 
ATOM     25  N   UNL     1       3.965   3.950  18.106  0.00  0.00    +0.000 NA
ATOM     26  C   UNL     1       3.025   4.853  17.425  0.00  0.00    +0.000 C 
ATOM     27  C   UNL     1       1.749   5.164  18.203  0.00  0.00    +0.000 C 
BRANCH  25  28
ATOM     28  C   UNL     1       5.263   3.997  17.365  0.00  0.00    +0.000 C 
BRANCH  28  29
ATOM     29  C   UNL     1       6.221   5.097  17.788  0.00  0.00    +0.000 A 
ATOM     30  C   UNL     1       6.262   6.302  17.091  0.00  0.00    +0.000 A 
ATOM     31  C   UNL     1       7.197   7.263  17.468  0.00  0.00    +0.000 A 
ATOM     32  C   UNL     1       8.047   7.006  18.537  0.00  0.00    +0.000 A 
ATOM     33  C   UNL     1       7.918   5.797  19.199  0.00  0.00    +0.000 A 
ATOM     34  N   UNL     1       7.031   4.840  18.849  0.00  0.00    +0.000 NA
ENDBRANCH  28  29
ENDBRANCH  25  28
ENDBRANCH  21  22
ENDBRANCH   4  21
TORSDOF 7
ENDMDL
MODEL 6
REMARK VINA RESULT:      -8.8      3.029     11.498
REMARK  Name = 
REMARK  11 active torsions:
REMARK  status: ('A' for Active; 'I' for Inactive)
REMARK    1  A    between atoms: C_1  and  C_2
REMARK    2  A    between atoms: N_4  and  C_5
REMARK    3  A    between atoms: C_6  and  C_7
REMARK    4  A    between atoms: C_8  and  C_9
REMARK    5  A    between atoms: C_9  and  C_10
REMARK    6  A    between atoms: C_9  and  N_11
REMARK    7  A    between atoms: C_12  and  C_14
REMARK    8  A    between atoms: C_17  and  O_18
REMARK    9  A    between atoms: O_18  and  C_19
REMARK   10  A    between atoms: N_22  and  C_23
REMARK   11  A    between atoms: C_23  and  C_24
REMARK                            x       y       z     vdW  Elec       q    Type
REMARK                         _______ _______ _______ _____ _____    ______ ____
ROOT
ATOM      1  C   UNL     1       1.522   8.991  19.401  0.00  0.00    +0.000 A 
ATOM      2  C   UNL     1       1.154   8.743  20.726  0.00  0.00    +0.000 A 
ATOM      3  C   UNL     1       0.669   9.796  21.545  0.00  0.00    +0.000 A 
ATOM      4  C   UNL     1       0.560  11.112  21.068  0.00  0.00    +0.000 A 
ATOM      5  C   UNL     1       0.886  11.342  19.734  0.00  0.00    +0.000 A 
ATOM      6  C   UNL     1       1.359  10.301  18.919  0.00  0.00    +0.000 A 
ENDROOT
BRANCH   1   8
ATOM      7  N   UNL     1       2.228   6.653  18.820  0.00  0.00    +0.000 N 
ATOM      8  C   UNL     1       2.090   7.980  18.439  0.00  0.00    +0.000 C 
ATOM      9  O   UNL     1       2.428   8.367  17.317  0.00  0.00    +0.000 OA
ATOM     10  H   UNL     1       1.885   6.327  19.711  0.00  0.00    +0.000 HD
BRANCH   7  11
ATOM     11  C   UNL     1       2.685   5.664  17.844  0.00  0.00    +0.000 C 
ATOM     12  C   UNL     1       1.670   4.530  17.667  0.00  0.00    +0.000 C 
BRANCH  11  20
ATOM     13  C   UNL     1       3.631   3.382  20.094  0.00  0.00    +0.000 C 
ATOM     14  C   UNL     1       4.458   4.164  19.142  0.00  0.00    +0.000 A 
ATOM     15  N   UNL     1       5.775   3.936  19.113  0.00  0.00    +0.000 NA
ATOM     16  N   UNL     1       6.237   4.736  18.143  0.00  0.00    +0.000 N 
ATOM     17  C   UNL     1       7.643   4.688  17.815  0.00  0.00    +0.000 C 
ATOM     18  C   UNL     1       5.258   5.491  17.553  0.00  0.00    +0.000 A 
ATOM     19  C   UNL     1       5.520   6.430  16.427  0.00  0.00    +0.000 C 
ATOM     20  C   UNL     1       4.064   5.153  18.189  0.00  0.00    +0.000 A 
ENDBRANCH  11  20
ENDBRANCH   7  11
ENDBRANCH   1   8
BRANCH   4  21
ATOM     21  O   UNL     1       0.130  12.066  21.965  0.00  0.00    +0.000 OA
BRANCH  21  22
ATOM     22  C   UNL     1      -0.350  13.327  21.447  0.00  0.00    +0.000 C 
ATOM     23  C   UNL     1      -0.306  14.427  22.513  0.00  0.00    +0.000 C 
ATOM     24  C   UNL     1      -1.326  14.195  23.626  0.00  0.00    +0.000 C 
ATOM     25  N   UNL     1      -2.712  14.014  23.156  0.00  0.00    +0.000 NA
ATOM     26  C   UNL     1      -2.820  13.045  22.055  0.00  0.00    +0.000 C 
ATOM     27  C   UNL     1      -1.791  13.217  20.940  0.00  0.00    +0.000 C 
BRANCH  25  28
ATOM     28  C   UNL     1      -3.569  13.526  24.280  0.00  0.00    +0.000 C 
BRANCH  28  29
ATOM     29  C   UNL     1      -5.062  13.751  24.112  0.00  0.00    +0.000 A 
ATOM     30  C   UNL     1      -5.947  12.678  24.172  0.00  0.00    +0.000 A 
ATOM     31  C   UNL     1      -7.302  12.913  23.951  0.00  0.00    +0.000 A 
ATOM     32  C   UNL     1      -7.737  14.209  23.697  0.00  0.00    +0.000 A 
ATOM     33  C   UNL     1      -6.797  15.225  23.689  0.00  0.00    +0.000 A 
ATOM     34  N   UNL     1      -5.476  15.027  23.887  0.00  0.00    +0.000 NA
ENDBRANCH  28  29
ENDBRANCH  25  28
ENDBRANCH  21  22
ENDBRANCH   4  21
TORSDOF 7
ENDMDL
MODEL 7
REMARK VINA RESULT:      -8.7      0.736      1.880
REMARK  Name = 
REMARK  11 active torsions:
REMARK  status: ('A' for Active; 'I' for Inactive)
REMARK    1  A    between atoms: C_1  and  C_2
REMARK    2  A    between atoms: N_4  and  C_5
REMARK    3  A    between atoms: C_6  and  C_7
REMARK    4  A    between atoms: C_8  and  C_9
REMARK    5  A    between atoms: C_9  and  C_10
REMARK    6  A    between atoms: C_9  and  N_11
REMARK    7  A    between atoms: C_12  and  C_14
REMARK    8  A    between atoms: C_17  and  O_18
REMARK    9  A    between atoms: O_18  and  C_19
REMARK   10  A    between atoms: N_22  and  C_23
REMARK   11  A    between atoms: C_23  and  C_24
REMARK                            x       y       z     vdW  Elec       q    Type
REMARK                         _______ _______ _______ _____ _____    ______ ____
ROOT
ATOM      1  C   UNL     1       0.859   9.477  19.525  0.00  0.00    +0.000 A 
ATOM      2  C   UNL     1       1.637   8.921  18.506  0.00  0.00    +0.000 A 
ATOM      3  C   UNL     1       2.299   7.681  18.704  0.00  0.00    +0.000 A 
ATOM      4  C   UNL     1       2.213   6.985  19.921  0.00  0.00    +0.000 A 
ATOM      5  C   UNL     1       1.400   7.523  20.914  0.00  0.00    +0.000 A 
ATOM      6  C   UNL     1       0.738   8.746  20.719  0.00  0.00    +0.000 A 
ENDROOT
BRANCH   1   8
ATOM      7  N   UNL     1      -0.983  11.023  20.247  0.00  0.00    +0.000 N 
ATOM      8  C   UNL     1       0.141  10.801  19.465  0.00  0.00    +0.000 C 
ATOM      9  O   UNL     1       0.578  11.668  18.703  0.00  0.00    +0.000 OA
ATOM     10  H   UNL     1      -1.293  10.338  20.920  0.00  0.00    +0.000 HD
BRANCH   7  11
ATOM     11  C   UNL     1      -1.610  12.344  20.255  0.00  0.00    +0.000 C 
ATOM     12  C   UNL     1      -1.443  13.043  21.607  0.00  0.00    +0.000 C 
BRANCH  11  20
ATOM     13  C   UNL     1      -4.392  13.227  21.880  0.00  0.00    +0.000 C 
ATOM     14  C   UNL     1      -4.238  12.661  20.517  0.00  0.00    +0.000 A 
ATOM     15  N   UNL     1      -5.336  12.493  19.774  0.00  0.00    +0.000 NA
ATOM     16  N   UNL     1      -4.885  12.024  18.603  0.00  0.00    +0.000 N 
ATOM     17  C   UNL     1      -5.835  11.785  17.540  0.00  0.00    +0.000 C 
ATOM     18  C   UNL     1      -3.525  11.865  18.571  0.00  0.00    +0.000 A 
ATOM     19  C   UNL     1      -2.788  11.391  17.368  0.00  0.00    +0.000 C 
ATOM     20  C   UNL     1      -3.054  12.266  19.822  0.00  0.00    +0.000 A 
ENDBRANCH  11  20
ENDBRANCH   7  11
ENDBRANCH   1   8
BRANCH   4  21
ATOM     21  O   UNL     1       2.940   5.819  20.023  0.00  0.00    +0.000 OA
BRANCH  21  22
ATOM     22  C   UNL     1       2.330   4.589  19.570  0.00  0.00    +0.000 C 
ATOM     23  C   UNL     1       3.200   3.372  19.902  0.00  0.00    +0.000 C 
ATOM     24  C   UNL     1       4.491   3.342  19.086  0.00  0.00    +0.000 C 
ATOM     25  N   UNL     1       4.292   3.426  17.627  0.00  0.00    +0.000 NA
ATOM     26  C   UNL     1       3.378   4.511  17.236  0.00  0.00    +0.000 C 
ATOM     27  C   UNL     1       2.094   4.601  18.056  0.00  0.00    +0.000 C 
BRANCH  25  28
ATOM     28  C   UNL     1       5.603   3.665  16.949  0.00  0.00    +0.000 C 
BRANCH  28  29
ATOM     29  C   UNL     1       6.403   4.847  17.468  0.00  0.00    +0.000 A 
ATOM     30  C   UNL     1       6.305   6.090  16.848  0.00  0.00    +0.000 A 
ATOM     31  C   UNL     1       7.100   7.136  17.311  0.00  0.00    +0.000 A 
ATOM     32  C   UNL     1       7.954   6.918  18.387  0.00  0.00    +0.000 A 
ATOM     33  C   UNL     1       7.966   5.662  18.968  0.00  0.00    +0.000 A 
ATOM     34  N   UNL     1       7.217   4.626  18.534  0.00  0.00    +0.000 NA
ENDBRANCH  28  29
ENDBRANCH  25  28
ENDBRANCH  21  22
ENDBRANCH   4  21
TORSDOF 7
ENDMDL
MODEL 8
REMARK VINA RESULT:      -8.7      2.394      3.478
REMARK  Name = 
REMARK  11 active torsions:
REMARK  status: ('A' for Active; 'I' for Inactive)
REMARK    1  A    between atoms: C_1  and  C_2
REMARK    2  A    between atoms: N_4  and  C_5
REMARK    3  A    between atoms: C_6  and  C_7
REMARK    4  A    between atoms: C_8  and  C_9
REMARK    5  A    between atoms: C_9  and  C_10
REMARK    6  A    between atoms: C_9  and  N_11
REMARK    7  A    between atoms: C_12  and  C_14
REMARK    8  A    between atoms: C_17  and  O_18
REMARK    9  A    between atoms: O_18  and  C_19
REMARK   10  A    between atoms: N_22  and  C_23
REMARK   11  A    between atoms: C_23  and  C_24
REMARK                            x       y       z     vdW  Elec       q    Type
REMARK                         _______ _______ _______ _____ _____    ______ ____
ROOT
ATOM      1  C   UNL     1       0.172   9.929  19.454  0.00  0.00    +0.000 A 
ATOM      2  C   UNL     1       0.905   9.617  18.307  0.00  0.00    +0.000 A 
ATOM      3  C   UNL     1       1.892   8.599  18.341  0.00  0.00    +0.000 A 
ATOM      4  C   UNL     1       2.178   7.887  19.517  0.00  0.00    +0.000 A 
ATOM      5  C   UNL     1       1.412   8.172  20.644  0.00  0.00    +0.000 A 
ATOM      6  C   UNL     1       0.430   9.175  20.612  0.00  0.00    +0.000 A 
ENDROOT
BRANCH   1   8
ATOM      7  N   UNL     1      -0.695  12.059  20.462  0.00  0.00    +0.000 N 
ATOM      8  C   UNL     1      -0.870  11.012  19.569  0.00  0.00    +0.000 C 
ATOM      9  O   UNL     1      -1.874  10.935  18.854  0.00  0.00    +0.000 OA
ATOM     10  H   UNL     1       0.159  12.156  20.991  0.00  0.00    +0.000 HD
BRANCH   7  11
ATOM     11  C   UNL     1      -1.663  13.155  20.491  0.00  0.00    +0.000 C 
ATOM     12  C   UNL     1      -0.976  14.516  20.636  0.00  0.00    +0.000 C 
BRANCH  11  20
ATOM     13  C   UNL     1      -1.567  11.264  23.244  0.00  0.00    +0.000 C 
ATOM     14  C   UNL     1      -2.660  12.129  22.734  0.00  0.00    +0.000 A 
ATOM     15  N   UNL     1      -3.778  12.230  23.460  0.00  0.00    +0.000 NA
ATOM     16  N   UNL     1      -4.543  13.098  22.786  0.00  0.00    +0.000 N 
ATOM     17  C   UNL     1      -5.822  13.474  23.344  0.00  0.00    +0.000 C 
ATOM     18  C   UNL     1      -3.961  13.550  21.631  0.00  0.00    +0.000 A 
ATOM     19  C   UNL     1      -4.603  14.547  20.731  0.00  0.00    +0.000 C 
ATOM     20  C   UNL     1      -2.715  12.926  21.550  0.00  0.00    +0.000 A 
ENDBRANCH  11  20
ENDBRANCH   7  11
ENDBRANCH   1   8
BRANCH   4  21
ATOM     21  O   UNL     1       3.194   6.958  19.451  0.00  0.00    +0.000 OA
BRANCH  21  22
ATOM     22  C   UNL     1       2.848   5.585  19.159  0.00  0.00    +0.000 C 
ATOM     23  C   UNL     1       3.857   4.608  19.772  0.00  0.00    +0.000 C 
ATOM     24  C   UNL     1       5.224   4.684  19.095  0.00  0.00    +0.000 C 
ATOM     25  N   UNL     1       5.190   4.509  17.631  0.00  0.00    +0.000 NA
ATOM     26  C   UNL     1       4.168   5.342  16.979  0.00  0.00    +0.000 C 
ATOM     27  C   UNL     1       2.797   5.325  17.651  0.00  0.00    +0.000 C 
BRANCH  25  28
ATOM     28  C   UNL     1       6.517   4.872  17.046  0.00  0.00    +0.000 C 
BRANCH  28  29
ATOM     29  C   UNL     1       6.643   4.692  15.543  0.00  0.00    +0.000 A 
ATOM     30  C   UNL     1       5.882   3.731  14.883  0.00  0.00    +0.000 A 
ATOM     31  C   UNL     1       6.069   3.550  13.515  0.00  0.00    +0.000 A 
ATOM     32  C   UNL     1       6.993   4.342  12.843  0.00  0.00    +0.000 A 
ATOM     33  C   UNL     1       7.684   5.298  13.566  0.00  0.00    +0.000 A 
ATOM     34  N   UNL     1       7.534   5.488  14.895  0.00  0.00    +0.000 NA
ENDBRANCH  28  29
ENDBRANCH  25  28
ENDBRANCH  21  22
ENDBRANCH   4  21
TORSDOF 7
ENDMDL
MODEL 9
REMARK VINA RESULT:      -8.6      2.584      3.725
REMARK  Name = 
REMARK  11 active torsions:
REMARK  status: ('A' for Active; 'I' for Inactive)
REMARK    1  A    between atoms: C_1  and  C_2
REMARK    2  A    between atoms: N_4  and  C_5
REMARK    3  A    between atoms: C_6  and  C_7
REMARK    4  A    between atoms: C_8  and  C_9
REMARK    5  A    between atoms: C_9  and  C_10
REMARK    6  A    between atoms: C_9  and  N_11
REMARK    7  A    between atoms: C_12  and  C_14
REMARK    8  A    between atoms: C_17  and  O_18
REMARK    9  A    between atoms: O_18  and  C_19
REMARK   10  A    between atoms: N_22  and  C_23
REMARK   11  A    between atoms: C_23  and  C_24
REMARK                            x       y       z     vdW  Elec       q    Type
REMARK                         _______ _______ _______ _____ _____    ______ ____
ROOT
ATOM      1  C   UNL     1       0.538   9.935  19.906  0.00  0.00    +0.000 A 
ATOM      2  C   UNL     1       1.294   9.565  18.790  0.00  0.00    +0.000 A 
ATOM      3  C   UNL     1       2.030   8.353  18.792  0.00  0.00    +0.000 A 
ATOM      4  C   UNL     1       2.042   7.498  19.906  0.00  0.00    +0.000 A 
ATOM      5  C   UNL     1       1.252   7.850  20.996  0.00  0.00    +0.000 A 
ATOM      6  C   UNL     1       0.516   9.046  20.995  0.00  0.00    +0.000 A 
ENDROOT
BRANCH   1   8
ATOM      7  N   UNL     1       0.347  12.437  19.810  0.00  0.00    +0.000 N 
ATOM      8  C   UNL     1      -0.253  11.209  20.054  0.00  0.00    +0.000 C 
ATOM      9  O   UNL     1      -1.435  11.127  20.400  0.00  0.00    +0.000 OA
ATOM     10  H   UNL     1       1.291  12.495  19.458  0.00  0.00    +0.000 HD
BRANCH   7  11
ATOM     11  C   UNL     1      -0.457  13.657  19.859  0.00  0.00    +0.000 C 
ATOM     12  C   UNL     1      -0.005  14.677  18.809  0.00  0.00    +0.000 C 
BRANCH  11  20
ATOM     13  C   UNL     1       2.020  14.934  21.702  0.00  0.00    +0.000 C 
ATOM     14  C   UNL     1       0.578  14.798  22.027  0.00  0.00    +0.000 A 
ATOM     15  N   UNL     1       0.147  15.271  23.201  0.00  0.00    +0.000 NA
ATOM     16  N   UNL     1      -1.174  15.056  23.189  0.00  0.00    +0.000 N 
ATOM     17  C   UNL     1      -1.962  15.511  24.312  0.00  0.00    +0.000 C 
ATOM     18  C   UNL     1      -1.612  14.438  22.048  0.00  0.00    +0.000 A 
ATOM     19  C   UNL     1      -3.044  14.124  21.788  0.00  0.00    +0.000 C 
ATOM     20  C   UNL     1      -0.483  14.239  21.252  0.00  0.00    +0.000 A 
ENDBRANCH  11  20
ENDBRANCH   7  11
ENDBRANCH   1   8
BRANCH   4  21
ATOM     21  O   UNL     1       2.836   6.375  19.820  0.00  0.00    +0.000 OA
BRANCH  21  22
ATOM     22  C   UNL     1       2.208   5.117  19.485  0.00  0.00    +0.000 C 
ATOM     23  C   UNL     1       3.026   3.925  19.994  0.00  0.00    +0.000 C 
ATOM     24  C   UNL     1       4.348   3.767  19.244  0.00  0.00    +0.000 C 
ATOM     25  N   UNL     1       4.212   3.685  17.778  0.00  0.00    +0.000 NA
ATOM     26  C   UNL     1       3.349   4.741  17.225  0.00  0.00    +0.000 C 
ATOM     27  C   UNL     1       2.035   4.958  17.971  0.00  0.00    +0.000 C 
BRANCH  25  28
ATOM     28  C   UNL     1       5.556   3.811  17.136  0.00  0.00    +0.000 C 
BRANCH  28  29
ATOM     29  C   UNL     1       6.406   4.975  17.616  0.00  0.00    +0.000 A 
ATOM     30  C   UNL     1       6.379   6.192  16.941  0.00  0.00    +0.000 A 
ATOM     31  C   UNL     1       7.218   7.217  17.371  0.00  0.00    +0.000 A 
ATOM     32  C   UNL     1       8.043   7.007  18.470  0.00  0.00    +0.000 A 
ATOM     33  C   UNL     1       7.985   5.779  19.107  0.00  0.00    +0.000 A 
ATOM     34  N   UNL     1       7.191   4.763  18.706  0.00  0.00    +0.000 NA
ENDBRANCH  28  29
ENDBRANCH  25  28
ENDBRANCH  21  22
ENDBRANCH   4  21
TORSDOF 7
ENDMDL
