MODEL 1
REMARK VINA RESULT:      -9.5      0.000      0.000
REMARK  Name = 
REMARK  4 active torsions:
REMARK  status: ('A' for Active; 'I' for Inactive)
REMARK    1  A    between atoms: C_6  and  O_7
REMARK    2  A    between atoms: O_7  and  C_8
REMARK    3  A    between atoms: C_11  and  C_12
REMARK    4  A    between atoms: C_17  and  N_18
REMARK                            x       y       z     vdW  Elec       q    Type
REMARK                         _______ _______ _______ _____ _____    ______ ____
ROOT
ATOM      1  O   UNL     1       0.290   9.538  23.983  0.00  0.00    +0.000 OA
ATOM      2  C   UNL     1       0.301   9.655  22.765  0.00  0.00    +0.000 A 
ATOM      3  O   UNL     1       1.168   8.912  21.969  0.00  0.00    +0.000 OA
ATOM      4  C   UNL     1       1.200   9.046  20.566  0.00  0.00    +0.000 A 
ATOM      5  C   UNL     1       2.119   8.260  19.861  0.00  0.00    +0.000 A 
ATOM      6  C   UNL     1       2.147   8.331  18.464  0.00  0.00    +0.000 A 
ATOM      7  C   UNL     1       1.322   9.236  17.805  0.00  0.00    +0.000 A 
ATOM      8  C   UNL     1       0.424  10.021  18.526  0.00  0.00    +0.000 A 
ATOM      9  C   UNL     1       0.339   9.928  19.923  0.00  0.00    +0.000 A 
ATOM     10  C   UNL     1      -0.597  10.734  20.722  0.00  0.00    +0.000 A 
ATOM     11  C   UNL     1      -0.601  10.618  22.059  0.00  0.00    +0.000 A 
ATOM     12  C   UNL     1      -1.491  11.429  22.954  0.00  0.00    +0.000 C 
ATOM     13  C   UNL     1      -2.459  12.414  22.297  0.00  0.00    +0.000 C 
ATOM     14  C   UNL     1      -2.460  12.540  20.781  0.00  0.00    +0.000 C 
ATOM     15  C   UNL     1      -1.505  11.669  19.982  0.00  0.00    +0.000 C 
ENDROOT
BRANCH   6  16
ATOM     16  O   UNL     1       2.969   7.596  17.637  0.00  0.00    +0.000 OA
BRANCH  16  17
ATOM     17  C   UNL     1       3.017   6.228  17.752  0.00  0.00    +0.000 A 
ATOM     18  C   UNL     1       1.872   5.488  18.082  0.00  0.00    +0.000 A 
ATOM     19  C   UNL     1       1.961   4.128  18.376  0.00  0.00    +0.000 A 
ATOM     20  C   UNL     1       3.188   3.464  18.286  0.00  0.00    +0.000 A 
ATOM     21  C   UNL     1       4.302   4.164  17.795  0.00  0.00    +0.000 A 
ATOM     22  C   UNL     1       4.218   5.542  17.515  0.00  0.00    +0.000 A 
BRANCH  20  23
ATOM     23  C   UNL     1       3.323   2.027  18.731  0.00  0.00    +0.000 C 
ATOM     24  F   UNL     1       3.797   1.205  17.756  0.00  0.00    +0.000 F 
ATOM     25  F   UNL     1       4.161   1.885  19.791  0.00  0.00    +0.000 F 
ATOM     26  F   UNL     1       2.129   1.502  19.115  0.00  0.00    +0.000 F 
ENDBRANCH  20  23
BRANCH  22  27
ATOM     27  N   UNL     1       5.409   6.211  16.961  0.00  0.00    +0.000 N 
ATOM     28  O   UNL     1       5.460   6.448  15.748  0.00  0.00    +0.000 OA
ATOM     29  O   UNL     1       6.326   6.475  17.753  0.00  0.00    +0.000 OA
ENDBRANCH  22  27
ENDBRANCH  16  17
ENDBRANCH   6  16
TORSDOF 4
ENDMDL
MODEL 2
REMARK VINA RESULT:      -9.2      2.697      3.386
REMARK  Name = 
REMARK  4 active torsions:
REMARK  status: ('A' for Active; 'I' for Inactive)
REMARK    1  A    between atoms: C_6  and  O_7
REMARK    2  A    between atoms: O_7  and  C_8
REMARK    3  A    between atoms: C_11  and  C_12
REMARK    4  A    between atoms: C_17  and  N_18
REMARK                            x       y       z     vdW  Elec       q    Type
REMARK                         _______ _______ _______ _____ _____    ______ ____
ROOT
ATOM      1  O   UNL     1      -0.445  10.724  23.292  0.00  0.00    +0.000 OA
ATOM      2  C   UNL     1       0.060  10.261  22.278  0.00  0.00    +0.000 A 
ATOM      3  O   UNL     1       0.536   8.954  22.233  0.00  0.00    +0.000 OA
ATOM      4  C   UNL     1       1.131   8.412  21.076  0.00  0.00    +0.000 A 
ATOM      5  C   UNL     1       1.589   7.091  21.142  0.00  0.00    +0.000 A 
ATOM      6  C   UNL     1       2.143   6.503  19.999  0.00  0.00    +0.000 A 
ATOM      7  C   UNL     1       2.304   7.263  18.844  0.00  0.00    +0.000 A 
ATOM      8  C   UNL     1       1.856   8.582  18.805  0.00  0.00    +0.000 A 
ATOM      9  C   UNL     1       1.248   9.176  19.920  0.00  0.00    +0.000 A 
ATOM     10  C   UNL     1       0.758  10.563  19.919  0.00  0.00    +0.000 A 
ATOM     11  C   UNL     1       0.216  11.078  21.034  0.00  0.00    +0.000 A 
ATOM     12  C   UNL     1      -0.272  12.492  21.135  0.00  0.00    +0.000 C 
ATOM     13  C   UNL     1      -0.168  13.376  19.891  0.00  0.00    +0.000 C 
ATOM     14  C   UNL     1       0.438  12.790  18.625  0.00  0.00    +0.000 C 
ATOM     15  C   UNL     1       0.905  11.344  18.648  0.00  0.00    +0.000 C 
ENDROOT
BRANCH   6  16
ATOM     16  O   UNL     1       2.602   5.207  19.902  0.00  0.00    +0.000 OA
BRANCH  16  17
ATOM     17  C   UNL     1       3.576   4.887  18.988  0.00  0.00    +0.000 A 
ATOM     18  C   UNL     1       4.905   5.294  19.174  0.00  0.00    +0.000 A 
ATOM     19  C   UNL     1       5.851   5.128  18.164  0.00  0.00    +0.000 A 
ATOM     20  C   UNL     1       5.502   4.496  16.967  0.00  0.00    +0.000 A 
ATOM     21  C   UNL     1       4.219   3.940  16.843  0.00  0.00    +0.000 A 
ATOM     22  C   UNL     1       3.257   4.122  17.857  0.00  0.00    +0.000 A 
BRANCH  20  23
ATOM     23  C   UNL     1       6.477   4.430  15.814  0.00  0.00    +0.000 C 
ATOM     24  F   UNL     1       6.405   5.507  14.987  0.00  0.00    +0.000 F 
ATOM     25  F   UNL     1       7.770   4.353  16.228  0.00  0.00    +0.000 F 
ATOM     26  F   UNL     1       6.261   3.340  15.030  0.00  0.00    +0.000 F 
ENDBRANCH  20  23
BRANCH  22  27
ATOM     27  N   UNL     1       1.942   3.478  17.688  0.00  0.00    +0.000 N 
ATOM     28  O   UNL     1       0.997   4.141  17.243  0.00  0.00    +0.000 OA
ATOM     29  O   UNL     1       1.846   2.292  18.037  0.00  0.00    +0.000 OA
ENDBRANCH  22  27
ENDBRANCH  16  17
ENDBRANCH   6  16
TORSDOF 4
ENDMDL
MODEL 3
REMARK VINA RESULT:      -8.9      1.472      2.367
REMARK  Name = 
REMARK  4 active torsions:
REMARK  status: ('A' for Active; 'I' for Inactive)
REMARK    1  A    between atoms: C_6  and  O_7
REMARK    2  A    between atoms: O_7  and  C_8
REMARK    3  A    between atoms: C_11  and  C_12
REMARK    4  A    between atoms: C_17  and  N_18
REMARK                            x       y       z     vdW  Elec       q    Type
REMARK                         _______ _______ _______ _____ _____    ______ ____
ROOT
ATOM      1  O   UNL     1      -1.606  12.558  18.489  0.00  0.00    +0.000 OA
ATOM      2  C   UNL     1      -0.927  11.655  18.959  0.00  0.00    +0.000 A 
ATOM      3  O   UNL     1      -0.073  10.896  18.165  0.00  0.00    +0.000 OA
ATOM      4  C   UNL     1       0.705   9.845  18.690  0.00  0.00    +0.000 A 
ATOM      5  C   UNL     1       1.521   9.136  17.801  0.00  0.00    +0.000 A 
ATOM      6  C   UNL     1       2.343   8.116  18.294  0.00  0.00    +0.000 A 
ATOM      7  C   UNL     1       2.277   7.770  19.640  0.00  0.00    +0.000 A 
ATOM      8  C   UNL     1       1.446   8.479  20.506  0.00  0.00    +0.000 A 
ATOM      9  C   UNL     1       0.653   9.540  20.046  0.00  0.00    +0.000 A 
ATOM     10  C   UNL     1      -0.234  10.316  20.927  0.00  0.00    +0.000 A 
ATOM     11  C   UNL     1      -0.989  11.298  20.411  0.00  0.00    +0.000 A 
ATOM     12  C   UNL     1      -1.951  12.111  21.226  0.00  0.00    +0.000 C 
ATOM     13  C   UNL     1      -2.045  11.818  22.725  0.00  0.00    +0.000 C 
ATOM     14  C   UNL     1      -1.183  10.710  23.309  0.00  0.00    +0.000 C 
ATOM     15  C   UNL     1      -0.252   9.950  22.380  0.00  0.00    +0.000 C 
ENDROOT
BRANCH   6  16
ATOM     16  O   UNL     1       3.221   7.359  17.549  0.00  0.00    +0.000 OA
BRANCH  16  17
ATOM     17  C   UNL     1       3.255   5.995  17.701  0.00  0.00    +0.000 A 
ATOM     18  C   UNL     1       2.078   5.258  17.901  0.00  0.00    +0.000 A 
ATOM     19  C   UNL     1       2.130   3.906  18.237  0.00  0.00    +0.000 A 
ATOM     20  C   UNL     1       3.359   3.245  18.319  0.00  0.00    +0.000 A 
ATOM     21  C   UNL     1       4.526   3.938  17.957  0.00  0.00    +0.000 A 
ATOM     22  C   UNL     1       4.477   5.308  17.636  0.00  0.00    +0.000 A 
BRANCH  20  23
ATOM     23  C   UNL     1       3.439   1.819  18.812  0.00  0.00    +0.000 C 
ATOM     24  F   UNL     1       2.255   1.348  19.288  0.00  0.00    +0.000 F 
ATOM     25  F   UNL     1       3.833   0.953  17.842  0.00  0.00    +0.000 F 
ATOM     26  F   UNL     1       4.331   1.685  19.830  0.00  0.00    +0.000 F 
ENDBRANCH  20  23
BRANCH  22  27
ATOM     27  N   UNL     1       5.729   5.968  17.222  0.00  0.00    +0.000 N 
ATOM     28  O   UNL     1       6.586   6.227  18.076  0.00  0.00    +0.000 OA
ATOM     29  O   UNL     1       5.842   6.262  16.023  0.00  0.00    +0.000 OA
ENDBRANCH  22  27
ENDBRANCH  16  17
ENDBRANCH   6  16
TORSDOF 4
ENDMDL
MODEL 4
REMARK VINA RESULT:      -8.6      4.854      8.610
REMARK  Name = 
REMARK  4 active torsions:
REMARK  status: ('A' for Active; 'I' for Inactive)
REMARK    1  A    between atoms: C_6  and  O_7
REMARK    2  A    between atoms: O_7  and  C_8
REMARK    3  A    between atoms: C_11  and  C_12
REMARK    4  A    between atoms: C_17  and  N_18
REMARK                            x       y       z     vdW  Elec       q    Type
REMARK                         _______ _______ _______ _____ _____    ______ ____
ROOT
ATOM      1  O   UNL     1       4.634   4.471  16.951  0.00  0.00    +0.000 OA
ATOM      2  C   UNL     1       3.920   5.048  17.761  0.00  0.00    +0.000 A 
ATOM      3  O   UNL     1       3.476   6.349  17.544  0.00  0.00    +0.000 OA
ATOM      4  C   UNL     1       2.665   7.030  18.473  0.00  0.00    +0.000 A 
ATOM      5  C   UNL     1       2.284   8.341  18.162  0.00  0.00    +0.000 A 
ATOM      6  C   UNL     1       1.440   9.032  19.038  0.00  0.00    +0.000 A 
ATOM      7  C   UNL     1       1.059   8.439  20.238  0.00  0.00    +0.000 A 
ATOM      8  C   UNL     1       1.462   7.138  20.536  0.00  0.00    +0.000 A 
ATOM      9  C   UNL     1       2.263   6.405  19.649  0.00  0.00    +0.000 A 
ATOM     10  C   UNL     1       2.706   5.029  19.922  0.00  0.00    +0.000 A 
ATOM     11  C   UNL     1       3.500   4.399  19.042  0.00  0.00    +0.000 A 
ATOM     12  C   UNL     1       4.032   3.013  19.258  0.00  0.00    +0.000 C 
ATOM     13  C   UNL     1       3.619   2.280  20.536  0.00  0.00    +0.000 C 
ATOM     14  C   UNL     1       2.713   2.991  21.528  0.00  0.00    +0.000 C 
ATOM     15  C   UNL     1       2.245   4.399  21.201  0.00  0.00    +0.000 C 
ENDROOT
BRANCH   6  16
ATOM     16  O   UNL     1       0.956  10.309  18.850  0.00  0.00    +0.000 OA
BRANCH  16  17
ATOM     17  C   UNL     1      -0.392  10.518  18.689  0.00  0.00    +0.000 A 
ATOM     18  C   UNL     1      -1.113   9.857  17.684  0.00  0.00    +0.000 A 
ATOM     19  C   UNL     1      -2.433  10.205  17.406  0.00  0.00    +0.000 A 
ATOM     20  C   UNL     1      -3.082  11.181  18.168  0.00  0.00    +0.000 A 
ATOM     21  C   UNL     1      -2.419  11.725  19.279  0.00  0.00    +0.000 A 
ATOM     22  C   UNL     1      -1.078  11.387  19.551  0.00  0.00    +0.000 A 
BRANCH  20  23
ATOM     23  C   UNL     1      -4.464  11.663  17.792  0.00  0.00    +0.000 C 
ATOM     24  F   UNL     1      -5.411  10.689  17.862  0.00  0.00    +0.000 F 
ATOM     25  F   UNL     1      -4.898  12.676  18.587  0.00  0.00    +0.000 F 
ATOM     26  F   UNL     1      -4.506  12.135  16.517  0.00  0.00    +0.000 F 
ENDBRANCH  20  23
BRANCH  22  27
ATOM     27  N   UNL     1      -0.450  11.958  20.756  0.00  0.00    +0.000 N 
ATOM     28  O   UNL     1      -0.419  11.288  21.796  0.00  0.00    +0.000 OA
ATOM     29  O   UNL     1      -0.008  13.113  20.668  0.00  0.00    +0.000 OA
ENDBRANCH  22  27
ENDBRANCH  16  17
ENDBRANCH   6  16
TORSDOF 4
ENDMDL
MODEL 5
REMARK VINA RESULT:      -8.5      2.947      3.948
REMARK  Name = 
REMARK  4 active torsions:
REMARK  status: ('A' for Active; 'I' for Inactive)
REMARK    1  A    between atoms: C_6  and  O_7
REMARK    2  A    between atoms: O_7  and  C_8
REMARK    3  A    between atoms: C_11  and  C_12
REMARK    4  A    between atoms: C_17  and  N_18
REMARK                            x       y       z     vdW  Elec       q    Type
REMARK                         _______ _______ _______ _____ _____    ______ ____
ROOT
ATOM      1  O   UNL     1       1.751  11.765  17.810  0.00  0.00    +0.000 OA
ATOM      2  C   UNL     1       1.568  10.862  18.615  0.00  0.00    +0.000 A 
ATOM      3  O   UNL     1       2.106   9.593  18.422  0.00  0.00    +0.000 OA
ATOM      4  C   UNL     1       1.892   8.540  19.334  0.00  0.00    +0.000 A 
ATOM      5  C   UNL     1       2.469   7.299  19.037  0.00  0.00    +0.000 A 
ATOM      6  C   UNL     1       2.317   6.243  19.943  0.00  0.00    +0.000 A 
ATOM      7  C   UNL     1       1.532   6.418  21.078  0.00  0.00    +0.000 A 
ATOM      8  C   UNL     1       0.953   7.657  21.347  0.00  0.00    +0.000 A 
ATOM      9  C   UNL     1       1.136   8.746  20.483  0.00  0.00    +0.000 A 
ATOM     10  C   UNL     1       0.547  10.071  20.731  0.00  0.00    +0.000 A 
ATOM     11  C   UNL     1       0.736  11.060  19.843  0.00  0.00    +0.000 A 
ATOM     12  C   UNL     1       0.140  12.428  19.994  0.00  0.00    +0.000 C 
ATOM     13  C   UNL     1      -0.700  12.708  21.242  0.00  0.00    +0.000 C 
ATOM     14  C   UNL     1      -0.906  11.590  22.252  0.00  0.00    +0.000 C 
ATOM     15  C   UNL     1      -0.258  10.243  21.984  0.00  0.00    +0.000 C 
ENDROOT
BRANCH   6  16
ATOM     16  O   UNL     1       2.854   4.981  19.805  0.00  0.00    +0.000 OA
BRANCH  16  17
ATOM     17  C   UNL     1       3.753   4.721  18.800  0.00  0.00    +0.000 A 
ATOM     18  C   UNL     1       5.100   5.094  18.917  0.00  0.00    +0.000 A 
ATOM     19  C   UNL     1       5.966   4.995  17.830  0.00  0.00    +0.000 A 
ATOM     20  C   UNL     1       5.519   4.463  16.617  0.00  0.00    +0.000 A 
ATOM     21  C   UNL     1       4.220   3.935  16.546  0.00  0.00    +0.000 A 
ATOM     22  C   UNL     1       3.338   4.050  17.639  0.00  0.00    +0.000 A 
BRANCH  20  23
ATOM     23  C   UNL     1       6.406   4.475  15.394  0.00  0.00    +0.000 C 
ATOM     24  F   UNL     1       7.731   4.555  15.691  0.00  0.00    +0.000 F 
ATOM     25  F   UNL     1       6.254   3.363  14.627  0.00  0.00    +0.000 F 
ATOM     26  F   UNL     1       6.139   5.536  14.586  0.00  0.00    +0.000 F 
ENDBRANCH  20  23
BRANCH  22  27
ATOM     27  N   UNL     1       2.002   3.439  17.519  0.00  0.00    +0.000 N 
ATOM     28  O   UNL     1       1.878   2.220  17.691  0.00  0.00    +0.000 OA
ATOM     29  O   UNL     1       1.064   4.190  17.215  0.00  0.00    +0.000 OA
ENDBRANCH  22  27
ENDBRANCH  16  17
ENDBRANCH   6  16
TORSDOF 4
ENDMDL
MODEL 6
REMARK VINA RESULT:      -8.5      5.148      8.641
REMARK  Name = 
REMARK  4 active torsions:
REMARK  status: ('A' for Active; 'I' for Inactive)
REMARK    1  A    between atoms: C_6  and  O_7
REMARK    2  A    between atoms: O_7  and  C_8
REMARK    3  A    between atoms: C_11  and  C_12
REMARK    4  A    between atoms: C_17  and  N_18
REMARK                            x       y       z     vdW  Elec       q    Type
REMARK                         _______ _______ _______ _____ _____    ______ ____
ROOT
ATOM      1  O   UNL     1       2.249   4.350  21.521  0.00  0.00    +0.000 OA
ATOM      2  C   UNL     1       2.359   5.221  20.668  0.00  0.00    +0.000 A 
ATOM      3  O   UNL     1       1.688   6.435  20.776  0.00  0.00    +0.000 OA
ATOM      4  C   UNL     1       1.795   7.441  19.796  0.00  0.00    +0.000 A 
ATOM      5  C   UNL     1       1.066   8.620  19.995  0.00  0.00    +0.000 A 
ATOM      6  C   UNL     1       1.184   9.660  19.067  0.00  0.00    +0.000 A 
ATOM      7  C   UNL     1       1.957   9.478  17.924  0.00  0.00    +0.000 A 
ATOM      8  C   UNL     1       2.662   8.290  17.736  0.00  0.00    +0.000 A 
ATOM      9  C   UNL     1       2.603   7.254  18.679  0.00  0.00    +0.000 A 
ATOM     10  C   UNL     1       3.334   5.987  18.523  0.00  0.00    +0.000 A 
ATOM     11  C   UNL     1       3.205   5.025  19.449  0.00  0.00    +0.000 A 
ATOM     12  C   UNL     1       3.879   3.690  19.350  0.00  0.00    +0.000 C 
ATOM     13  C   UNL     1       4.782   3.432  18.141  0.00  0.00    +0.000 C 
ATOM     14  C   UNL     1       4.934   4.526  17.096  0.00  0.00    +0.000 C 
ATOM     15  C   UNL     1       4.193   5.835  17.303  0.00  0.00    +0.000 C 
ENDROOT
BRANCH   6  16
ATOM     16  O   UNL     1       0.560  10.886  19.148  0.00  0.00    +0.000 OA
BRANCH  16  17
ATOM     17  C   UNL     1      -0.792  10.987  18.925  0.00  0.00    +0.000 A 
ATOM     18  C   UNL     1      -1.410  10.279  17.883  0.00  0.00    +0.000 A 
ATOM     19  C   UNL     1      -2.740  10.522  17.546  0.00  0.00    +0.000 A 
ATOM     20  C   UNL     1      -3.501  11.434  18.282  0.00  0.00    +0.000 A 
ATOM     21  C   UNL     1      -2.935  12.020  19.426  0.00  0.00    +0.000 A 
ATOM     22  C   UNL     1      -1.586  11.789  19.758  0.00  0.00    +0.000 A 
BRANCH  20  23
ATOM     23  C   UNL     1      -4.898  11.806  17.844  0.00  0.00    +0.000 C 
ATOM     24  F   UNL     1      -5.433  12.828  18.564  0.00  0.00    +0.000 F 
ATOM     25  F   UNL     1      -4.954  12.187  16.541  0.00  0.00    +0.000 F 
ATOM     26  F   UNL     1      -5.763  10.764  17.975  0.00  0.00    +0.000 F 
ENDBRANCH  20  23
BRANCH  22  27
ATOM     27  N   UNL     1      -1.063  12.398  20.995  0.00  0.00    +0.000 N 
ATOM     28  O   UNL     1      -0.955  11.702  22.012  0.00  0.00    +0.000 OA
ATOM     29  O   UNL     1      -0.784  13.605  20.955  0.00  0.00    +0.000 OA
ENDBRANCH  22  27
ENDBRANCH  16  17
ENDBRANCH   6  16
TORSDOF 4
ENDMDL
MODEL 7
REMARK VINA RESULT:      -8.5      3.421      4.908
REMARK  Name = 
REMARK  4 active torsions:
REMARK  status: ('A' for Active; 'I' for Inactive)
REMARK    1  A    between atoms: C_6  and  O_7
REMARK    2  A    between atoms: O_7  and  C_8
REMARK    3  A    between atoms: C_11  and  C_12
REMARK    4  A    between atoms: C_17  and  N_18
REMARK                            x       y       z     vdW  Elec       q    Type
REMARK                         _______ _______ _______ _____ _____    ______ ____
ROOT
ATOM      1  O   UNL     1       1.879  10.852  17.486  0.00  0.00    +0.000 OA
ATOM      2  C   UNL     1       2.037   9.773  18.042  0.00  0.00    +0.000 A 
ATOM      3  O   UNL     1       2.854   8.786  17.498  0.00  0.00    +0.000 OA
ATOM      4  C   UNL     1       3.034   7.535  18.120  0.00  0.00    +0.000 A 
ATOM      5  C   UNL     1       3.867   6.608  17.481  0.00  0.00    +0.000 A 
ATOM      6  C   UNL     1       4.108   5.372  18.092  0.00  0.00    +0.000 A 
ATOM      7  C   UNL     1       3.456   5.053  19.279  0.00  0.00    +0.000 A 
ATOM      8  C   UNL     1       2.618   5.984  19.891  0.00  0.00    +0.000 A 
ATOM      9  C   UNL     1       2.404   7.250  19.326  0.00  0.00    +0.000 A 
ATOM     10  C   UNL     1       1.532   8.263  19.941  0.00  0.00    +0.000 A 
ATOM     11  C   UNL     1       1.346   9.441  19.327  0.00  0.00    +0.000 A 
ATOM     12  C   UNL     1       0.443  10.514  19.859  0.00  0.00    +0.000 C 
ATOM     13  C   UNL     1      -0.274  10.253  21.185  0.00  0.00    +0.000 C 
ATOM     14  C   UNL     1      -0.057   8.920  21.884  0.00  0.00    +0.000 C 
ATOM     15  C   UNL     1       0.876   7.908  21.241  0.00  0.00    +0.000 C 
ENDROOT
BRANCH   6  16
ATOM     16  O   UNL     1       4.928   4.379  17.603  0.00  0.00    +0.000 OA
BRANCH  16  17
ATOM     17  C   UNL     1       5.314   4.390  16.285  0.00  0.00    +0.000 A 
ATOM     18  C   UNL     1       4.437   3.985  15.269  0.00  0.00    +0.000 A 
ATOM     19  C   UNL     1       4.886   3.824  13.960  0.00  0.00    +0.000 A 
ATOM     20  C   UNL     1       6.210   4.123  13.625  0.00  0.00    +0.000 A 
ATOM     21  C   UNL     1       7.045   4.686  14.603  0.00  0.00    +0.000 A 
ATOM     22  C   UNL     1       6.598   4.833  15.931  0.00  0.00    +0.000 A 
BRANCH  20  23
ATOM     23  C   UNL     1       6.744   3.825  12.243  0.00  0.00    +0.000 C 
ATOM     24  F   UNL     1       5.783   3.839  11.281  0.00  0.00    +0.000 F 
ATOM     25  F   UNL     1       7.694   4.712  11.848  0.00  0.00    +0.000 F 
ATOM     26  F   UNL     1       7.320   2.594  12.178  0.00  0.00    +0.000 F 
ENDBRANCH  20  23
BRANCH  22  27
ATOM     27  N   UNL     1       7.506   5.470  16.901  0.00  0.00    +0.000 N 
ATOM     28  O   UNL     1       8.052   4.773  17.765  0.00  0.00    +0.000 OA
ATOM     29  O   UNL     1       7.651   6.698  16.816  0.00  0.00    +0.000 OA
ENDBRANCH  22  27
ENDBRANCH  16  17
ENDBRANCH   6  16
TORSDOF 4
ENDMDL
MODEL 8
REMARK VINA RESULT:      -8.5      1.925      2.863
REMARK  Name = 
REMARK  4 active torsions:
REMARK  status: ('A' for Active; 'I' for Inactive)
REMARK    1  A    between atoms: C_6  and  O_7
REMARK    2  A    between atoms: O_7  and  C_8
REMARK    3  A    between atoms: C_11  and  C_12
REMARK    4  A    between atoms: C_17  and  N_18
REMARK                            x       y       z     vdW  Elec       q    Type
REMARK                         _______ _______ _______ _____ _____    ______ ____
ROOT
ATOM      1  O   UNL     1      -2.443  12.188  18.133  0.00  0.00    +0.000 OA
ATOM      2  C   UNL     1      -1.844  11.681  19.071  0.00  0.00    +0.000 A 
ATOM      3  O   UNL     1      -0.880  10.697  18.874  0.00  0.00    +0.000 OA
ATOM      4  C   UNL     1      -0.191  10.094  19.945  0.00  0.00    +0.000 A 
ATOM      5  C   UNL     1       0.750   9.105  19.637  0.00  0.00    +0.000 A 
ATOM      6  C   UNL     1       1.487   8.518  20.671  0.00  0.00    +0.000 A 
ATOM      7  C   UNL     1       1.218   8.866  21.991  0.00  0.00    +0.000 A 
ATOM      8  C   UNL     1       0.266   9.843  22.278  0.00  0.00    +0.000 A 
ATOM      9  C   UNL     1      -0.447  10.485  21.256  0.00  0.00    +0.000 A 
ATOM     10  C   UNL     1      -1.457  11.523  21.514  0.00  0.00    +0.000 A 
ATOM     11  C   UNL     1      -2.125  12.072  20.488  0.00  0.00    +0.000 A 
ATOM     12  C   UNL     1      -3.198  13.105  20.662  0.00  0.00    +0.000 C 
ATOM     13  C   UNL     1      -3.518  13.571  22.083  0.00  0.00    +0.000 C 
ATOM     14  C   UNL     1      -2.755  12.956  23.245  0.00  0.00    +0.000 C 
ATOM     15  C   UNL     1      -1.695  11.910  22.943  0.00  0.00    +0.000 C 
ENDROOT
BRANCH   6  16
ATOM     16  O   UNL     1       2.467   7.561  20.519  0.00  0.00    +0.000 OA
BRANCH  16  17
ATOM     17  C   UNL     1       2.164   6.348  19.950  0.00  0.00    +0.000 A 
ATOM     18  C   UNL     1       1.271   5.460  20.567  0.00  0.00    +0.000 A 
ATOM     19  C   UNL     1       1.106   4.163  20.086  0.00  0.00    +0.000 A 
ATOM     20  C   UNL     1       1.785   3.743  18.938  0.00  0.00    +0.000 A 
ATOM     21  C   UNL     1       2.549   4.679  18.223  0.00  0.00    +0.000 A 
ATOM     22  C   UNL     1       2.731   5.986  18.719  0.00  0.00    +0.000 A 
BRANCH  20  23
ATOM     23  C   UNL     1       1.720   2.304  18.485  0.00  0.00    +0.000 C 
ATOM     24  F   UNL     1       2.153   2.122  17.209  0.00  0.00    +0.000 F 
ATOM     25  F   UNL     1       2.466   1.477  19.264  0.00  0.00    +0.000 F 
ATOM     26  F   UNL     1       0.449   1.819  18.521  0.00  0.00    +0.000 F 
ENDBRANCH  20  23
BRANCH  22  27
ATOM     27  N   UNL     1       3.509   6.935  17.901  0.00  0.00    +0.000 N 
ATOM     28  O   UNL     1       2.937   7.911  17.400  0.00  0.00    +0.000 OA
ATOM     29  O   UNL     1       4.710   6.679  17.732  0.00  0.00    +0.000 OA
ENDBRANCH  22  27
ENDBRANCH  16  17
ENDBRANCH   6  16
TORSDOF 4
ENDMDL
MODEL 9
REMARK VINA RESULT:      -8.4      5.144      8.637
REMARK  Name = 
REMARK  4 active torsions:
REMARK  status: ('A' for Active; 'I' for Inactive)
REMARK    1  A    between atoms: C_6  and  O_7
REMARK    2  A    between atoms: O_7  and  C_8
REMARK    3  A    between atoms: C_11  and  C_12
REMARK    4  A    between atoms: C_17  and  N_18
REMARK                            x       y       z     vdW  Elec       q    Type
REMARK                         _______ _______ _______ _____ _____    ______ ____
ROOT
ATOM      1  O   UNL     1       2.061   4.233  21.558  0.00  0.00    +0.000 OA
ATOM      2  C   UNL     1       2.212   5.086  20.694  0.00  0.00    +0.000 A 
ATOM      3  O   UNL     1       1.682   6.365  20.832  0.00  0.00    +0.000 OA
ATOM      4  C   UNL     1       1.837   7.353  19.838  0.00  0.00    +0.000 A 
ATOM      5  C   UNL     1       1.252   8.603  20.072  0.00  0.00    +0.000 A 
ATOM      6  C   UNL     1       1.425   9.624  19.130  0.00  0.00    +0.000 A 
ATOM      7  C   UNL     1       2.103   9.357  17.944  0.00  0.00    +0.000 A 
ATOM      8  C   UNL     1       2.664   8.100  17.724  0.00  0.00    +0.000 A 
ATOM      9  C   UNL     1       2.551   7.078  18.677  0.00  0.00    +0.000 A 
ATOM     10  C   UNL     1       3.132   5.740  18.487  0.00  0.00    +0.000 A 
ATOM     11  C   UNL     1       2.956   4.799  19.427  0.00  0.00    +0.000 A 
ATOM     12  C   UNL     1       3.476   3.398  19.298  0.00  0.00    +0.000 C 
ATOM     13  C   UNL     1       4.270   3.043  18.040  0.00  0.00    +0.000 C 
ATOM     14  C   UNL     1       4.476   4.112  16.978  0.00  0.00    +0.000 C 
ATOM     15  C   UNL     1       3.893   5.494  17.220  0.00  0.00    +0.000 C 
ENDROOT
BRANCH   6  16
ATOM     16  O   UNL     1       0.942  10.910  19.238  0.00  0.00    +0.000 OA
BRANCH  16  17
ATOM     17  C   UNL     1      -0.410  11.132  19.336  0.00  0.00    +0.000 A 
ATOM     18  C   UNL     1      -1.286  10.731  18.316  0.00  0.00    +0.000 A 
ATOM     19  C   UNL     1      -2.625  11.117  18.332  0.00  0.00    +0.000 A 
ATOM     20  C   UNL     1      -3.133  11.863  19.400  0.00  0.00    +0.000 A 
ATOM     21  C   UNL     1      -2.300  12.123  20.501  0.00  0.00    +0.000 A 
ATOM     22  C   UNL     1      -0.942  11.748  20.478  0.00  0.00    +0.000 A 
BRANCH  20  23
ATOM     23  C   UNL     1      -4.543  12.402  19.366  0.00  0.00    +0.000 C 
ATOM     24  F   UNL     1      -5.446  11.586  19.973  0.00  0.00    +0.000 F 
ATOM     25  F   UNL     1      -4.655  13.613  19.971  0.00  0.00    +0.000 F 
ATOM     26  F   UNL     1      -4.989  12.570  18.091  0.00  0.00    +0.000 F 
ENDBRANCH  20  23
BRANCH  22  27
ATOM     27  N   UNL     1      -0.131  12.011  21.681  0.00  0.00    +0.000 N 
ATOM     28  O   UNL     1       0.411  13.115  21.815  0.00  0.00    +0.000 OA
ATOM     29  O   UNL     1      -0.008  11.081  22.492  0.00  0.00    +0.000 OA
ENDBRANCH  22  27
ENDBRANCH  16  17
ENDBRANCH   6  16
TORSDOF 4
ENDMDL
