MODEL 1
REMARK VINA RESULT:      -7.0      0.000      0.000
REMARK  Name = 
REMARK  4 active torsions:
REMARK  status: ('A' for Active; 'I' for Inactive)
REMARK    1  A    between atoms: C_1  and  C_2
REMARK    2  A    between atoms: C_4  and  C_5
REMARK    3  A    between atoms: CA_12  and  C_13
REMARK    4  A    between atoms: C_13  and  OXT_15
REMARK                            x       y       z     vdW  Elec       q    Type
REMARK                         _______ _______ _______ _____ _____    ______ ____
ROOT
ATOM      1  C   UNL     1       5.707   4.315  14.691  0.00  0.00    +0.000 C 
ATOM      2  C   UNL     1       5.345   4.284  16.125  0.00  0.00    +0.000 A 
ATOM      3  N   UNL     1       4.106   3.909  16.572  0.00  0.00    +0.000 N 
ATOM      4  C   UNL     1       4.075   4.012  17.945  0.00  0.00    +0.000 A 
ATOM      5  N   UNL     1       5.244   4.437  18.392  0.00  0.00    +0.000 NA
ATOM      6  CA  UNL     1       6.052   4.597  17.269  0.00  0.00    +0.000 A 
ATOM      7  H   UNL     1       3.322   3.646  15.994  0.00  0.00    +0.000 HD
ENDROOT
BRANCH   4   8
ATOM      8  C   UNL     1       2.867   3.741  18.732  0.00  0.00    +0.000 A 
ATOM      9  C   UNL     1       2.649   4.356  19.975  0.00  0.00    +0.000 A 
ATOM     10  C   UNL     1       1.527   4.034  20.743  0.00  0.00    +0.000 A 
ATOM     11  C   UNL     1       0.607   3.100  20.274  0.00  0.00    +0.000 A 
ATOM     12  C   UNL     1       0.798   2.500  19.031  0.00  0.00    +0.000 A 
ATOM     13  C   UNL     1       1.920   2.824  18.261  0.00  0.00    +0.000 A 
ENDBRANCH   4   8
BRANCH   6  14
ATOM     14  C   UNL     1       7.434   5.053  17.386  0.00  0.00    +0.000 C 
ATOM     15  O   UNL     1       7.809   6.209  17.244  0.00  0.00    +0.000 OA
BRANCH  14  16
ATOM     16  OXT UNL     1       8.279   4.027  17.675  0.00  0.00    +0.000 OA
ATOM     17  HXT UNL     1       8.564   3.647  16.811  0.00  0.00    +0.000 HD
ENDBRANCH  14  16
ENDBRANCH   6  14
TORSDOF 3
ENDMDL
MODEL 2
REMARK VINA RESULT:      -6.9      1.356      1.619
REMARK  Name = 
REMARK  4 active torsions:
REMARK  status: ('A' for Active; 'I' for Inactive)
REMARK    1  A    between atoms: C_1  and  C_2
REMARK    2  A    between atoms: C_4  and  C_5
REMARK    3  A    between atoms: CA_12  and  C_13
REMARK    4  A    between atoms: C_13  and  OXT_15
REMARK                            x       y       z     vdW  Elec       q    Type
REMARK                         _______ _______ _______ _____ _____    ______ ____
ROOT
ATOM      1  C   UNL     1       5.032   6.713  15.845  0.00  0.00    +0.000 C 
ATOM      2  C   UNL     1       4.956   5.624  16.844  0.00  0.00    +0.000 A 
ATOM      3  N   UNL     1       3.823   5.352  17.563  0.00  0.00    +0.000 N 
ATOM      4  C   UNL     1       4.077   4.307  18.423  0.00  0.00    +0.000 A 
ATOM      5  N   UNL     1       5.327   3.901  18.281  0.00  0.00    +0.000 NA
ATOM      6  CA  UNL     1       5.884   4.703  17.289  0.00  0.00    +0.000 A 
ATOM      7  H   UNL     1       2.953   5.861  17.513  0.00  0.00    +0.000 HD
ENDROOT
BRANCH   4   8
ATOM      8  C   UNL     1       3.084   3.810  19.380  0.00  0.00    +0.000 A 
ATOM      9  C   UNL     1       1.726   4.147  19.269  0.00  0.00    +0.000 A 
ATOM     10  C   UNL     1       0.804   3.722  20.228  0.00  0.00    +0.000 A 
ATOM     11  C   UNL     1       1.227   2.949  21.306  0.00  0.00    +0.000 A 
ATOM     12  C   UNL     1       2.568   2.587  21.417  0.00  0.00    +0.000 A 
ATOM     13  C   UNL     1       3.490   3.010  20.455  0.00  0.00    +0.000 A 
ENDBRANCH   4   8
BRANCH   6  14
ATOM     14  C   UNL     1       7.269   4.530  16.859  0.00  0.00    +0.000 C 
ATOM     15  O   UNL     1       7.688   4.742  15.730  0.00  0.00    +0.000 OA
BRANCH  14  16
ATOM     16  OXT UNL     1       8.060   4.095  17.877  0.00  0.00    +0.000 OA
ATOM     17  HXT UNL     1       8.385   3.201  17.617  0.00  0.00    +0.000 HD
ENDBRANCH  14  16
ENDBRANCH   6  14
TORSDOF 3
ENDMDL
MODEL 3
REMARK VINA RESULT:      -6.9      0.891      1.422
REMARK  Name = 
REMARK  4 active torsions:
REMARK  status: ('A' for Active; 'I' for Inactive)
REMARK    1  A    between atoms: C_1  and  C_2
REMARK    2  A    between atoms: C_4  and  C_5
REMARK    3  A    between atoms: CA_12  and  C_13
REMARK    4  A    between atoms: C_13  and  OXT_15
REMARK                            x       y       z     vdW  Elec       q    Type
REMARK                         _______ _______ _______ _____ _____    ______ ____
ROOT
ATOM      1  C   UNL     1       5.178   4.257  14.752  0.00  0.00    +0.000 C 
ATOM      2  C   UNL     1       5.095   4.174  16.227  0.00  0.00    +0.000 A 
ATOM      3  N   UNL     1       3.957   3.798  16.889  0.00  0.00    +0.000 N 
ATOM      4  C   UNL     1       4.189   3.846  18.245  0.00  0.00    +0.000 A 
ATOM      5  N   UNL     1       5.431   4.238  18.475  0.00  0.00    +0.000 NA
ATOM      6  CA  UNL     1       6.013   4.433  17.226  0.00  0.00    +0.000 A 
ATOM      7  H   UNL     1       3.072   3.567  16.462  0.00  0.00    +0.000 HD
ENDROOT
BRANCH   4   8
ATOM      8  C   UNL     1       3.149   3.560  19.237  0.00  0.00    +0.000 A 
ATOM      9  C   UNL     1       1.853   4.088  19.114  0.00  0.00    +0.000 A 
ATOM     10  C   UNL     1       0.894   3.862  20.104  0.00  0.00    +0.000 A 
ATOM     11  C   UNL     1       1.215   3.099  21.224  0.00  0.00    +0.000 A 
ATOM     12  C   UNL     1       2.489   2.549  21.347  0.00  0.00    +0.000 A 
ATOM     13  C   UNL     1       3.448   2.773  20.356  0.00  0.00    +0.000 A 
ENDBRANCH   4   8
BRANCH   6  14
ATOM     14  C   UNL     1       7.401   4.866  17.093  0.00  0.00    +0.000 C 
ATOM     15  O   UNL     1       8.379   4.207  17.419  0.00  0.00    +0.000 OA
BRANCH  14  16
ATOM     16  OXT UNL     1       7.489   6.113  16.558  0.00  0.00    +0.000 OA
ATOM     17  HXT UNL     1       6.605   6.316  16.174  0.00  0.00    +0.000 HD
ENDBRANCH  14  16
ENDBRANCH   6  14
TORSDOF 3
ENDMDL
MODEL 4
REMARK VINA RESULT:      -6.9      1.269      1.982
REMARK  Name = 
REMARK  4 active torsions:
REMARK  status: ('A' for Active; 'I' for Inactive)
REMARK    1  A    between atoms: C_1  and  C_2
REMARK    2  A    between atoms: C_4  and  C_5
REMARK    3  A    between atoms: CA_12  and  C_13
REMARK    4  A    between atoms: C_13  and  OXT_15
REMARK                            x       y       z     vdW  Elec       q    Type
REMARK                         _______ _______ _______ _____ _____    ______ ____
ROOT
ATOM      1  C   UNL     1       7.766   5.329  18.366  0.00  0.00    +0.000 C 
ATOM      2  C   UNL     1       6.439   4.863  17.908  0.00  0.00    +0.000 A 
ATOM      3  N   UNL     1       5.379   4.685  18.757  0.00  0.00    +0.000 N 
ATOM      4  C   UNL     1       4.300   4.222  18.037  0.00  0.00    +0.000 A 
ATOM      5  N   UNL     1       4.629   4.097  16.762  0.00  0.00    +0.000 NA
ATOM      6  CA  UNL     1       5.956   4.507  16.664  0.00  0.00    +0.000 A 
ATOM      7  H   UNL     1       5.391   4.823  19.756  0.00  0.00    +0.000 HD
ENDROOT
BRANCH   4   8
ATOM      8  C   UNL     1       3.022   3.871  18.664  0.00  0.00    +0.000 A 
ATOM      9  C   UNL     1       2.616   4.452  19.876  0.00  0.00    +0.000 A 
ATOM     10  C   UNL     1       1.428   4.055  20.495  0.00  0.00    +0.000 A 
ATOM     11  C   UNL     1       0.628   3.080  19.906  0.00  0.00    +0.000 A 
ATOM     12  C   UNL     1       1.006   2.512  18.691  0.00  0.00    +0.000 A 
ATOM     13  C   UNL     1       2.194   2.910  18.070  0.00  0.00    +0.000 A 
ENDBRANCH   4   8
BRANCH   6  14
ATOM     14  C   UNL     1       6.657   4.510  15.383  0.00  0.00    +0.000 C 
ATOM     15  O   UNL     1       7.463   5.357  15.023  0.00  0.00    +0.000 OA
BRANCH  14  16
ATOM     16  OXT UNL     1       6.306   3.443  14.616  0.00  0.00    +0.000 OA
ATOM     17  HXT UNL     1       5.442   3.670  14.199  0.00  0.00    +0.000 HD
ENDBRANCH  14  16
ENDBRANCH   6  14
TORSDOF 3
ENDMDL
MODEL 5
REMARK VINA RESULT:      -6.9      1.392      1.563
REMARK  Name = 
REMARK  4 active torsions:
REMARK  status: ('A' for Active; 'I' for Inactive)
REMARK    1  A    between atoms: C_1  and  C_2
REMARK    2  A    between atoms: C_4  and  C_5
REMARK    3  A    between atoms: CA_12  and  C_13
REMARK    4  A    between atoms: C_13  and  OXT_15
REMARK                            x       y       z     vdW  Elec       q    Type
REMARK                         _______ _______ _______ _____ _____    ______ ____
ROOT
ATOM      1  C   UNL     1       5.028   6.754  15.795  0.00  0.00    +0.000 C 
ATOM      2  C   UNL     1       4.959   5.671  16.801  0.00  0.00    +0.000 A 
ATOM      3  N   UNL     1       3.848   5.435  17.566  0.00  0.00    +0.000 N 
ATOM      4  C   UNL     1       4.105   4.385  18.419  0.00  0.00    +0.000 A 
ATOM      5  N   UNL     1       5.336   3.942  18.229  0.00  0.00    +0.000 NA
ATOM      6  CA  UNL     1       5.876   4.724  17.212  0.00  0.00    +0.000 A 
ATOM      7  H   UNL     1       2.992   5.969  17.548  0.00  0.00    +0.000 HD
ENDROOT
BRANCH   4   8
ATOM      8  C   UNL     1       3.136   3.921  19.416  0.00  0.00    +0.000 A 
ATOM      9  C   UNL     1       3.472   2.940  20.363  0.00  0.00    +0.000 A 
ATOM     10  C   UNL     1       2.516   2.460  21.262  0.00  0.00    +0.000 A 
ATOM     11  C   UNL     1       1.217   2.959  21.231  0.00  0.00    +0.000 A 
ATOM     12  C   UNL     1       0.876   3.950  20.312  0.00  0.00    +0.000 A 
ATOM     13  C   UNL     1       1.832   4.433  19.414  0.00  0.00    +0.000 A 
ENDBRANCH   4   8
BRANCH   6  14
ATOM     14  C   UNL     1       7.237   4.508  16.729  0.00  0.00    +0.000 C 
ATOM     15  O   UNL     1       7.593   4.604  15.563  0.00  0.00    +0.000 OA
BRANCH  14  16
ATOM     16  OXT UNL     1       8.083   4.179  17.741  0.00  0.00    +0.000 OA
ATOM     17  HXT UNL     1       7.533   4.108  18.556  0.00  0.00    +0.000 HD
ENDBRANCH  14  16
ENDBRANCH   6  14
TORSDOF 3
ENDMDL
MODEL 6
REMARK VINA RESULT:      -6.8      1.285      2.343
REMARK  Name = 
REMARK  4 active torsions:
REMARK  status: ('A' for Active; 'I' for Inactive)
REMARK    1  A    between atoms: C_1  and  C_2
REMARK    2  A    between atoms: C_4  and  C_5
REMARK    3  A    between atoms: CA_12  and  C_13
REMARK    4  A    between atoms: C_13  and  OXT_15
REMARK                            x       y       z     vdW  Elec       q    Type
REMARK                         _______ _______ _______ _____ _____    ______ ____
ROOT
ATOM      1  C   UNL     1       7.804   5.186  18.332  0.00  0.00    +0.000 C 
ATOM      2  C   UNL     1       6.471   4.734  17.876  0.00  0.00    +0.000 A 
ATOM      3  N   UNL     1       5.426   4.513  18.734  0.00  0.00    +0.000 N 
ATOM      4  C   UNL     1       4.338   4.077  18.012  0.00  0.00    +0.000 A 
ATOM      5  N   UNL     1       4.646   4.011  16.728  0.00  0.00    +0.000 NA
ATOM      6  CA  UNL     1       5.969   4.432  16.626  0.00  0.00    +0.000 A 
ATOM      7  H   UNL     1       5.455   4.606  19.738  0.00  0.00    +0.000 HD
ENDROOT
BRANCH   4   8
ATOM      8  C   UNL     1       3.072   3.692  18.644  0.00  0.00    +0.000 A 
ATOM      9  C   UNL     1       2.282   2.652  18.128  0.00  0.00    +0.000 A 
ATOM     10  C   UNL     1       1.046   2.344  18.701  0.00  0.00    +0.000 A 
ATOM     11  C   UNL     1       0.589   3.065  19.801  0.00  0.00    +0.000 A 
ATOM     12  C   UNL     1       1.374   4.083  20.338  0.00  0.00    +0.000 A 
ATOM     13  C   UNL     1       2.612   4.390  19.767  0.00  0.00    +0.000 A 
ENDBRANCH   4   8
BRANCH   6  14
ATOM     14  C   UNL     1       6.649   4.496  15.335  0.00  0.00    +0.000 C 
ATOM     15  O   UNL     1       7.420   5.379  14.988  0.00  0.00    +0.000 OA
BRANCH  14  16
ATOM     16  OXT UNL     1       6.320   3.441  14.542  0.00  0.00    +0.000 OA
ATOM     17  HXT UNL     1       5.476   3.076  14.896  0.00  0.00    +0.000 HD
ENDBRANCH  14  16
ENDBRANCH   6  14
TORSDOF 3
ENDMDL
MODEL 7
REMARK VINA RESULT:      -6.7      1.503      2.296
REMARK  Name = 
REMARK  4 active torsions:
REMARK  status: ('A' for Active; 'I' for Inactive)
REMARK    1  A    between atoms: C_1  and  C_2
REMARK    2  A    between atoms: C_4  and  C_5
REMARK    3  A    between atoms: CA_12  and  C_13
REMARK    4  A    between atoms: C_13  and  OXT_15
REMARK                            x       y       z     vdW  Elec       q    Type
REMARK                         _______ _______ _______ _____ _____    ______ ____
ROOT
ATOM      1  C   UNL     1       7.742   5.960  18.599  0.00  0.00    +0.000 C 
ATOM      2  C   UNL     1       6.489   5.227  18.313  0.00  0.00    +0.000 A 
ATOM      3  N   UNL     1       5.524   5.007  19.260  0.00  0.00    +0.000 N 
ATOM      4  C   UNL     1       4.500   4.279  18.695  0.00  0.00    +0.000 A 
ATOM      5  N   UNL     1       4.773   4.027  17.427  0.00  0.00    +0.000 NA
ATOM      6  CA  UNL     1       6.004   4.624  17.170  0.00  0.00    +0.000 A 
ATOM      7  H   UNL     1       5.569   5.287  20.228  0.00  0.00    +0.000 HD
ENDROOT
BRANCH   4   8
ATOM      8  C   UNL     1       3.337   3.823  19.463  0.00  0.00    +0.000 A 
ATOM      9  C   UNL     1       2.042   4.284  19.175  0.00  0.00    +0.000 A 
ATOM     10  C   UNL     1       0.955   3.893  19.960  0.00  0.00    +0.000 A 
ATOM     11  C   UNL     1       1.147   3.030  21.037  0.00  0.00    +0.000 A 
ATOM     12  C   UNL     1       2.423   2.547  21.319  0.00  0.00    +0.000 A 
ATOM     13  C   UNL     1       3.511   2.936  20.532  0.00  0.00    +0.000 A 
ENDBRANCH   4   8
BRANCH   6  14
ATOM     14  C   UNL     1       6.621   4.555  15.848  0.00  0.00    +0.000 C 
ATOM     15  O   UNL     1       7.365   5.401  15.373  0.00  0.00    +0.000 OA
BRANCH  14  16
ATOM     16  OXT UNL     1       6.268   3.419  15.188  0.00  0.00    +0.000 OA
ATOM     17  HXT UNL     1       6.726   2.675  15.646  0.00  0.00    +0.000 HD
ENDBRANCH  14  16
ENDBRANCH   6  14
TORSDOF 3
ENDMDL
MODEL 8
REMARK VINA RESULT:      -6.7      2.890      6.066
REMARK  Name = 
REMARK  4 active torsions:
REMARK  status: ('A' for Active; 'I' for Inactive)
REMARK    1  A    between atoms: C_1  and  C_2
REMARK    2  A    between atoms: C_4  and  C_5
REMARK    3  A    between atoms: CA_12  and  C_13
REMARK    4  A    between atoms: C_13  and  OXT_15
REMARK                            x       y       z     vdW  Elec       q    Type
REMARK                         _______ _______ _______ _____ _____    ______ ____
ROOT
ATOM      1  C   UNL     1       7.843   5.740  19.201  0.00  0.00    +0.000 C 
ATOM      2  C   UNL     1       7.073   5.140  18.089  0.00  0.00    +0.000 A 
ATOM      3  N   UNL     1       7.497   5.171  16.788  0.00  0.00    +0.000 N 
ATOM      4  C   UNL     1       6.555   4.557  15.993  0.00  0.00    +0.000 A 
ATOM      5  N   UNL     1       5.546   4.135  16.736  0.00  0.00    +0.000 NA
ATOM      6  CA  UNL     1       5.861   4.479  18.048  0.00  0.00    +0.000 A 
ATOM      7  H   UNL     1       8.340   5.612  16.449  0.00  0.00    +0.000 HD
ENDROOT
BRANCH   4   8
ATOM      8  C   UNL     1       6.679   4.477  14.535  0.00  0.00    +0.000 A 
ATOM      9  C   UNL     1       5.904   3.582  13.780  0.00  0.00    +0.000 A 
ATOM     10  C   UNL     1       6.084   3.471  12.399  0.00  0.00    +0.000 A 
ATOM     11  C   UNL     1       7.036   4.257  11.756  0.00  0.00    +0.000 A 
ATOM     12  C   UNL     1       7.796   5.166  12.488  0.00  0.00    +0.000 A 
ATOM     13  C   UNL     1       7.614   5.280  13.869  0.00  0.00    +0.000 A 
ENDBRANCH   4   8
BRANCH   6  14
ATOM     14  C   UNL     1       4.965   4.156  19.155  0.00  0.00    +0.000 C 
ATOM     15  O   UNL     1       4.116   4.907  19.615  0.00  0.00    +0.000 OA
BRANCH  14  16
ATOM     16  OXT UNL     1       5.185   2.900  19.629  0.00  0.00    +0.000 OA
ATOM     17  HXT UNL     1       4.326   2.585  19.997  0.00  0.00    +0.000 HD
ENDBRANCH  14  16
ENDBRANCH   6  14
TORSDOF 3
ENDMDL
MODEL 9
REMARK VINA RESULT:      -6.7      1.335      1.416
REMARK  Name = 
REMARK  4 active torsions:
REMARK  status: ('A' for Active; 'I' for Inactive)
REMARK    1  A    between atoms: C_1  and  C_2
REMARK    2  A    between atoms: C_4  and  C_5
REMARK    3  A    between atoms: CA_12  and  C_13
REMARK    4  A    between atoms: C_13  and  OXT_15
REMARK                            x       y       z     vdW  Elec       q    Type
REMARK                         _______ _______ _______ _____ _____    ______ ____
ROOT
ATOM      1  C   UNL     1       7.033   4.236  15.817  0.00  0.00    +0.000 C 
ATOM      2  C   UNL     1       6.278   4.614  17.031  0.00  0.00    +0.000 A 
ATOM      3  N   UNL     1       5.163   3.941  17.454  0.00  0.00    +0.000 N 
ATOM      4  C   UNL     1       4.676   4.548  18.590  0.00  0.00    +0.000 A 
ATOM      5  N   UNL     1       5.437   5.581  18.910  0.00  0.00    +0.000 NA
ATOM      6  CA  UNL     1       6.449   5.626  17.955  0.00  0.00    +0.000 A 
ATOM      7  H   UNL     1       4.732   3.156  16.988  0.00  0.00    +0.000 HD
ENDROOT
BRANCH   4   8
ATOM      8  C   UNL     1       3.450   4.106  19.260  0.00  0.00    +0.000 A 
ATOM      9  C   UNL     1       2.679   4.988  20.035  0.00  0.00    +0.000 A 
ATOM     10  C   UNL     1       1.551   4.533  20.723  0.00  0.00    +0.000 A 
ATOM     11  C   UNL     1       1.175   3.195  20.638  0.00  0.00    +0.000 A 
ATOM     12  C   UNL     1       1.917   2.314  19.854  0.00  0.00    +0.000 A 
ATOM     13  C   UNL     1       3.045   2.769  19.164  0.00  0.00    +0.000 A 
ENDBRANCH   4   8
BRANCH   6  14
ATOM     14  C   UNL     1       7.490   6.649  17.998  0.00  0.00    +0.000 C 
ATOM     15  O   UNL     1       7.679   7.499  17.140  0.00  0.00    +0.000 OA
BRANCH  14  16
ATOM     16  OXT UNL     1       8.246   6.548  19.125  0.00  0.00    +0.000 OA
ATOM     17  HXT UNL     1       9.032   7.127  18.988  0.00  0.00    +0.000 HD
ENDBRANCH  14  16
ENDBRANCH   6  14
TORSDOF 3
ENDMDL
