MODEL 1
REMARK VINA RESULT:      -8.9      0.000      0.000
REMARK  Name = 
REMARK  10 active torsions:
REMARK  status: ('A' for Active; 'I' for Inactive)
REMARK    1  A    between atoms: C_1  and  C_2
REMARK    2  A    between atoms: C_4  and  N_5
REMARK    3  A    between atoms: C_9  and  C_10
REMARK    4  A    between atoms: C_19  and  N_20
REMARK    5  A    between atoms: N_20  and  C_21
REMARK    6  A    between atoms: C_23  and  C_24
REMARK    7  A    between atoms: C_24  and  O_25
REMARK    8  A    between atoms: C_26  and  O_27
REMARK    9  A    between atoms: C_28  and  O_29
REMARK   10  A    between atoms: C_32  and  C_33
REMARK                            x       y       z     vdW  Elec       q    Type
REMARK                         _______ _______ _______ _____ _____    ______ ____
ROOT
ATOM      1  N   UNL     1       0.530   9.446  19.946  0.00  0.00    +0.000 N 
ATOM      2  C   UNL     1       1.561   8.594  19.518  0.00  0.00    +0.000 A 
ATOM      3  N   UNL     1       2.230   8.883  18.402  0.00  0.00    +0.000 NA
ATOM      4  C   UNL     1       3.099   7.967  17.944  0.00  0.00    +0.000 A 
ATOM      5  C   UNL     1       3.364   6.748  18.541  0.00  0.00    +0.000 A 
ATOM      6  C   UNL     1       2.709   6.570  19.767  0.00  0.00    +0.000 A 
ATOM      7  N   UNL     1       1.822   7.490  20.245  0.00  0.00    +0.000 NA
ATOM      8  H   UNL     1       0.138   9.108  20.811  0.00  0.00    +0.000 HD
ENDROOT
BRANCH   5   9
ATOM      9  C   UNL     1       4.187   5.802  17.754  0.00  0.00    +0.000 A 
ATOM     10  N   UNL     1       5.485   5.984  17.559  0.00  0.00    +0.000 NA
ATOM     11  C   UNL     1       5.909   5.305  16.428  0.00  0.00    +0.000 A 
ATOM     12  C   UNL     1       7.155   5.452  15.781  0.00  0.00    +0.000 A 
ATOM     13  C   UNL     1       7.358   4.854  14.532  0.00  0.00    +0.000 A 
ATOM     14  C   UNL     1       6.374   4.049  13.968  0.00  0.00    +0.000 A 
ATOM     15  C   UNL     1       5.177   3.796  14.647  0.00  0.00    +0.000 A 
ATOM     16  C   UNL     1       4.952   4.467  15.860  0.00  0.00    +0.000 A 
ATOM     17  S   UNL     1       3.547   4.485  16.854  0.00  0.00    +0.000 S 
ENDBRANCH   5   9
BRANCH   1  21
ATOM     18  C   UNL     1      -3.097  10.441  16.677  0.00  0.00    +0.000 C 
ATOM     19  C   UNL     1      -2.000  10.879  17.594  0.00  0.00    +0.000 A 
ATOM     20  C   UNL     1      -1.268   9.944  18.322  0.00  0.00    +0.000 A 
ATOM     21  C   UNL     1      -0.266  10.358  19.202  0.00  0.00    +0.000 A 
ATOM     22  C   UNL     1      -0.002  11.733  19.260  0.00  0.00    +0.000 A 
ATOM     23  C   UNL     1      -0.761  12.617  18.485  0.00  0.00    +0.000 A 
ATOM     24  C   UNL     1      -0.542  14.100  18.523  0.00  0.00    +0.000 C 
ATOM     25  N   UNL     1      -1.754  12.202  17.667  0.00  0.00    +0.000 NA
ENDBRANCH   1  21
BRANCH   6  26
ATOM     26  N   UNL     1       2.977   5.463  20.575  0.00  0.00    +0.000 N 
ATOM     27  H   UNL     1       3.916   5.085  20.462  0.00  0.00    +0.000 HD
BRANCH  26  28
ATOM     28  C   UNL     1       1.925   4.485  20.880  0.00  0.00    +0.000 C 
ATOM     29  C   UNL     1       2.557   3.295  21.630  0.00  0.00    +0.000 C 
ATOM     30  C   UNL     1       2.867   2.206  20.579  0.00  0.00    +0.000 C 
ATOM     31  C   UNL     1       2.388   2.794  19.238  0.00  0.00    +0.000 C 
ATOM     32  C   UNL     1       1.308   3.807  19.653  0.00  0.00    +0.000 C 
BRANCH  31  33
ATOM     33  O   UNL     1       1.794   1.774  18.429  0.00  0.00    +0.000 OA
ATOM     34  H   UNL     1       2.012   0.912  18.836  0.00  0.00    +0.000 HD
ENDBRANCH  31  33
BRANCH  32  35
ATOM     35  O   UNL     1       0.107   3.102  20.031  0.00  0.00    +0.000 OA
ATOM     36  H   UNL     1      -0.155   2.549  19.268  0.00  0.00    +0.000 HD
ENDBRANCH  32  35
BRANCH  30  37
ATOM     37  C   UNL     1       4.320   1.735  20.632  0.00  0.00    +0.000 C 
BRANCH  37  38
ATOM     38  O   UNL     1       5.166   2.526  19.806  0.00  0.00    +0.000 OA
ATOM     39  H   UNL     1       4.810   3.438  19.813  0.00  0.00    +0.000 HD
ENDBRANCH  37  38
ENDBRANCH  30  37
ENDBRANCH  26  28
ENDBRANCH   6  26
TORSDOF 8
ENDMDL
MODEL 2
REMARK VINA RESULT:      -8.9      0.161      1.429
REMARK  Name = 
REMARK  10 active torsions:
REMARK  status: ('A' for Active; 'I' for Inactive)
REMARK    1  A    between atoms: C_1  and  C_2
REMARK    2  A    between atoms: C_4  and  N_5
REMARK    3  A    between atoms: C_9  and  C_10
REMARK    4  A    between atoms: C_19  and  N_20
REMARK    5  A    between atoms: N_20  and  C_21
REMARK    6  A    between atoms: C_23  and  C_24
REMARK    7  A    between atoms: C_24  and  O_25
REMARK    8  A    between atoms: C_26  and  O_27
REMARK    9  A    between atoms: C_28  and  O_29
REMARK   10  A    between atoms: C_32  and  C_33
REMARK                            x       y       z     vdW  Elec       q    Type
REMARK                         _______ _______ _______ _____ _____    ______ ____
ROOT
ATOM      1  N   UNL     1       0.606   9.447  19.881  0.00  0.00    +0.000 N 
ATOM      2  C   UNL     1       1.629   8.588  19.451  0.00  0.00    +0.000 A 
ATOM      3  N   UNL     1       2.308   8.880  18.342  0.00  0.00    +0.000 NA
ATOM      4  C   UNL     1       3.170   7.959  17.880  0.00  0.00    +0.000 A 
ATOM      5  C   UNL     1       3.418   6.731  18.466  0.00  0.00    +0.000 A 
ATOM      6  C   UNL     1       2.754   6.549  19.687  0.00  0.00    +0.000 A 
ATOM      7  N   UNL     1       1.875   7.474  20.169  0.00  0.00    +0.000 NA
ATOM      8  H   UNL     1       0.205   9.105  20.741  0.00  0.00    +0.000 HD
ENDROOT
BRANCH   5   9
ATOM      9  C   UNL     1       4.234   5.784  17.675  0.00  0.00    +0.000 A 
ATOM     10  N   UNL     1       5.522   5.986  17.435  0.00  0.00    +0.000 NA
ATOM     11  C   UNL     1       5.924   5.290  16.307  0.00  0.00    +0.000 A 
ATOM     12  C   UNL     1       7.146   5.447  15.618  0.00  0.00    +0.000 A 
ATOM     13  C   UNL     1       7.323   4.826  14.376  0.00  0.00    +0.000 A 
ATOM     14  C   UNL     1       6.337   3.989  13.861  0.00  0.00    +0.000 A 
ATOM     15  C   UNL     1       5.168   3.729  14.583  0.00  0.00    +0.000 A 
ATOM     16  C   UNL     1       4.967   4.422  15.788  0.00  0.00    +0.000 A 
ATOM     17  S   UNL     1       3.593   4.435  16.824  0.00  0.00    +0.000 S 
ENDBRANCH   5   9
BRANCH   1  21
ATOM     18  C   UNL     1      -0.516  14.094  18.476  0.00  0.00    +0.000 C 
ATOM     19  C   UNL     1      -0.771  12.621  18.461  0.00  0.00    +0.000 A 
ATOM     20  C   UNL     1       0.045  11.752  19.182  0.00  0.00    +0.000 A 
ATOM     21  C   UNL     1      -0.176  10.374  19.142  0.00  0.00    +0.000 A 
ATOM     22  C   UNL     1      -1.280   9.931  18.401  0.00  0.00    +0.000 A 
ATOM     23  C   UNL     1      -2.072  10.860  17.716  0.00  0.00    +0.000 A 
ATOM     24  C   UNL     1      -3.251  10.443  16.887  0.00  0.00    +0.000 C 
ATOM     25  N   UNL     1      -1.821  12.188  17.736  0.00  0.00    +0.000 NA
ENDBRANCH   1  21
BRANCH   6  26
ATOM     26  N   UNL     1       3.005   5.431  20.486  0.00  0.00    +0.000 N 
ATOM     27  H   UNL     1       3.921   5.012  20.334  0.00  0.00    +0.000 HD
BRANCH  26  28
ATOM     28  C   UNL     1       1.924   4.503  20.837  0.00  0.00    +0.000 C 
ATOM     29  C   UNL     1       2.504   3.379  21.721  0.00  0.00    +0.000 C 
ATOM     30  C   UNL     1       2.834   2.191  20.789  0.00  0.00    +0.000 C 
ATOM     31  C   UNL     1       2.420   2.658  19.380  0.00  0.00    +0.000 C 
ATOM     32  C   UNL     1       1.343   3.722  19.654  0.00  0.00    +0.000 C 
BRANCH  31  33
ATOM     33  O   UNL     1       1.839   1.575  18.646  0.00  0.00    +0.000 OA
ATOM     34  H   UNL     1       2.374   1.447  17.839  0.00  0.00    +0.000 HD
ENDBRANCH  31  33
BRANCH  32  35
ATOM     35  O   UNL     1       0.115   3.073  20.047  0.00  0.00    +0.000 OA
ATOM     36  H   UNL     1      -0.110   2.432  19.343  0.00  0.00    +0.000 HD
ENDBRANCH  32  35
BRANCH  30  37
ATOM     37  C   UNL     1       4.275   1.705  20.946  0.00  0.00    +0.000 C 
BRANCH  37  38
ATOM     38  O   UNL     1       5.076   2.047  19.820  0.00  0.00    +0.000 OA
ATOM     39  H   UNL     1       5.207   3.016  19.840  0.00  0.00    +0.000 HD
ENDBRANCH  37  38
ENDBRANCH  30  37
ENDBRANCH  26  28
ENDBRANCH   6  26
TORSDOF 8
ENDMDL
MODEL 3
REMARK VINA RESULT:      -8.5      1.467      2.081
REMARK  Name = 
REMARK  10 active torsions:
REMARK  status: ('A' for Active; 'I' for Inactive)
REMARK    1  A    between atoms: C_1  and  C_2
REMARK    2  A    between atoms: C_4  and  N_5
REMARK    3  A    between atoms: C_9  and  C_10
REMARK    4  A    between atoms: C_19  and  N_20
REMARK    5  A    between atoms: N_20  and  C_21
REMARK    6  A    between atoms: C_23  and  C_24
REMARK    7  A    between atoms: C_24  and  O_25
REMARK    8  A    between atoms: C_26  and  O_27
REMARK    9  A    between atoms: C_28  and  O_29
REMARK   10  A    between atoms: C_32  and  C_33
REMARK                            x       y       z     vdW  Elec       q    Type
REMARK                         _______ _______ _______ _____ _____    ______ ____
ROOT
ATOM      1  N   UNL     1       0.094   9.635  20.964  0.00  0.00    +0.000 N 
ATOM      2  C   UNL     1       1.073   8.954  20.224  0.00  0.00    +0.000 A 
ATOM      3  N   UNL     1       1.572   9.516  19.123  0.00  0.00    +0.000 NA
ATOM      4  C   UNL     1       2.390   8.771  18.360  0.00  0.00    +0.000 A 
ATOM      5  C   UNL     1       2.764   7.467  18.628  0.00  0.00    +0.000 A 
ATOM      6  C   UNL     1       2.292   6.990  19.858  0.00  0.00    +0.000 A 
ATOM      7  N   UNL     1       1.460   7.733  20.643  0.00  0.00    +0.000 NA
ATOM      8  H   UNL     1      -0.165   9.094  21.775  0.00  0.00    +0.000 HD
ENDROOT
BRANCH   5   9
ATOM      9  C   UNL     1       3.490   6.761  17.548  0.00  0.00    +0.000 A 
ATOM     10  N   UNL     1       3.387   5.453  17.361  0.00  0.00    +0.000 NA
ATOM     11  C   UNL     1       4.491   4.969  16.678  0.00  0.00    +0.000 A 
ATOM     12  C   UNL     1       4.841   3.612  16.509  0.00  0.00    +0.000 A 
ATOM     13  C   UNL     1       6.094   3.284  15.976  0.00  0.00    +0.000 A 
ATOM     14  C   UNL     1       6.956   4.284  15.536  0.00  0.00    +0.000 A 
ATOM     15  C   UNL     1       6.578   5.630  15.589  0.00  0.00    +0.000 A 
ATOM     16  C   UNL     1       5.355   5.951  16.200  0.00  0.00    +0.000 A 
ATOM     17  S   UNL     1       4.678   7.495  16.546  0.00  0.00    +0.000 S 
ENDBRANCH   5   9
BRANCH   1  21
ATOM     18  C   UNL     1      -2.528  13.783  21.824  0.00  0.00    +0.000 C 
ATOM     19  C   UNL     1      -2.133  12.638  20.947  0.00  0.00    +0.000 A 
ATOM     20  C   UNL     1      -1.210  11.693  21.387  0.00  0.00    +0.000 A 
ATOM     21  C   UNL     1      -0.819  10.642  20.555  0.00  0.00    +0.000 A 
ATOM     22  C   UNL     1      -1.443  10.561  19.303  0.00  0.00    +0.000 A 
ATOM     23  C   UNL     1      -2.379  11.533  18.930  0.00  0.00    +0.000 A 
ATOM     24  C   UNL     1      -3.061  11.513  17.594  0.00  0.00    +0.000 C 
ATOM     25  N   UNL     1      -2.717  12.566  19.735  0.00  0.00    +0.000 NA
ENDBRANCH   1  21
BRANCH   6  26
ATOM     26  N   UNL     1       2.697   5.748  20.355  0.00  0.00    +0.000 N 
ATOM     27  H   UNL     1       3.564   5.402  19.948  0.00  0.00    +0.000 HD
BRANCH  26  28
ATOM     28  C   UNL     1       1.706   4.727  20.717  0.00  0.00    +0.000 C 
ATOM     29  C   UNL     1       2.385   3.677  21.621  0.00  0.00    +0.000 C 
ATOM     30  C   UNL     1       2.831   2.511  20.710  0.00  0.00    +0.000 C 
ATOM     31  C   UNL     1       2.382   2.914  19.292  0.00  0.00    +0.000 C 
ATOM     32  C   UNL     1       1.208   3.876  19.545  0.00  0.00    +0.000 C 
BRANCH  31  33
ATOM     33  O   UNL     1       1.910   1.770  18.574  0.00  0.00    +0.000 OA
ATOM     34  H   UNL     1       2.373   0.987  18.932  0.00  0.00    +0.000 HD
ENDBRANCH  31  33
BRANCH  32  35
ATOM     35  O   UNL     1       0.045   3.120  19.944  0.00  0.00    +0.000 OA
ATOM     36  H   UNL     1      -0.444   2.892  19.128  0.00  0.00    +0.000 HD
ENDBRANCH  32  35
BRANCH  30  37
ATOM     37  C   UNL     1       4.311   2.167  20.879  0.00  0.00    +0.000 C 
BRANCH  37  38
ATOM     38  O   UNL     1       4.964   1.999  19.627  0.00  0.00    +0.000 OA
ATOM     39  H   UNL     1       5.558   1.225  19.709  0.00  0.00    +0.000 HD
ENDBRANCH  37  38
ENDBRANCH  30  37
ENDBRANCH  26  28
ENDBRANCH   6  26
TORSDOF 8
ENDMDL
MODEL 4
REMARK VINA RESULT:      -8.4      1.405      1.628
REMARK  Name = 
REMARK  10 active torsions:
REMARK  status: ('A' for Active; 'I' for Inactive)
REMARK    1  A    between atoms: C_1  and  C_2
REMARK    2  A    between atoms: C_4  and  N_5
REMARK    3  A    between atoms: C_9  and  C_10
REMARK    4  A    between atoms: C_19  and  N_20
REMARK    5  A    between atoms: N_20  and  C_21
REMARK    6  A    between atoms: C_23  and  C_24
REMARK    7  A    between atoms: C_24  and  O_25
REMARK    8  A    between atoms: C_26  and  O_27
REMARK    9  A    between atoms: C_28  and  O_29
REMARK   10  A    between atoms: C_32  and  C_33
REMARK                            x       y       z     vdW  Elec       q    Type
REMARK                         _______ _______ _______ _____ _____    ______ ____
ROOT
ATOM      1  N   UNL     1       0.136   9.602  20.909  0.00  0.00    +0.000 N 
ATOM      2  C   UNL     1       1.131   8.935  20.176  0.00  0.00    +0.000 A 
ATOM      3  N   UNL     1       1.619   9.499  19.071  0.00  0.00    +0.000 NA
ATOM      4  C   UNL     1       2.453   8.765  18.315  0.00  0.00    +0.000 A 
ATOM      5  C   UNL     1       2.854   7.471  18.594  0.00  0.00    +0.000 A 
ATOM      6  C   UNL     1       2.391   6.994  19.828  0.00  0.00    +0.000 A 
ATOM      7  N   UNL     1       1.543   7.726  20.606  0.00  0.00    +0.000 NA
ATOM      8  H   UNL     1      -0.113   9.063  21.724  0.00  0.00    +0.000 HD
ENDROOT
BRANCH   5   9
ATOM      9  C   UNL     1       3.596   6.772  17.521  0.00  0.00    +0.000 A 
ATOM     10  N   UNL     1       3.437   5.479  17.275  0.00  0.00    +0.000 NA
ATOM     11  C   UNL     1       4.548   4.966  16.625  0.00  0.00    +0.000 A 
ATOM     12  C   UNL     1       4.838   3.600  16.416  0.00  0.00    +0.000 A 
ATOM     13  C   UNL     1       6.098   3.230  15.929  0.00  0.00    +0.000 A 
ATOM     14  C   UNL     1       7.028   4.200  15.572  0.00  0.00    +0.000 A 
ATOM     15  C   UNL     1       6.716   5.561  15.663  0.00  0.00    +0.000 A 
ATOM     16  C   UNL     1       5.482   5.920  16.229  0.00  0.00    +0.000 A 
ATOM     17  S   UNL     1       4.867   7.482  16.607  0.00  0.00    +0.000 S 
ENDBRANCH   5   9
BRANCH   1  21
ATOM     18  C   UNL     1      -3.022  11.504  17.557  0.00  0.00    +0.000 C 
ATOM     19  C   UNL     1      -2.317  11.559  18.875  0.00  0.00    +0.000 A 
ATOM     20  C   UNL     1      -1.431  10.550  19.247  0.00  0.00    +0.000 A 
ATOM     21  C   UNL     1      -0.797  10.587  20.491  0.00  0.00    +0.000 A 
ATOM     22  C   UNL     1      -1.050  11.705  21.297  0.00  0.00    +0.000 A 
ATOM     23  C   UNL     1      -1.935  12.693  20.853  0.00  0.00    +0.000 A 
ATOM     24  C   UNL     1      -2.264  13.900  21.682  0.00  0.00    +0.000 C 
ATOM     25  N   UNL     1      -2.570  12.622  19.661  0.00  0.00    +0.000 NA
ENDBRANCH   1  21
BRANCH   6  26
ATOM     26  N   UNL     1       2.821   5.765  20.335  0.00  0.00    +0.000 N 
ATOM     27  H   UNL     1       3.681   5.422  19.913  0.00  0.00    +0.000 HD
BRANCH  26  28
ATOM     28  C   UNL     1       1.850   4.741  20.740  0.00  0.00    +0.000 C 
ATOM     29  C   UNL     1       2.591   3.642  21.530  0.00  0.00    +0.000 C 
ATOM     30  C   UNL     1       2.933   2.514  20.531  0.00  0.00    +0.000 C 
ATOM     31  C   UNL     1       2.364   2.988  19.179  0.00  0.00    +0.000 C 
ATOM     32  C   UNL     1       1.234   3.951  19.581  0.00  0.00    +0.000 C 
BRANCH  31  33
ATOM     33  O   UNL     1       1.810   1.885  18.456  0.00  0.00    +0.000 OA
ATOM     34  H   UNL     1       2.022   1.071  18.954  0.00  0.00    +0.000 HD
ENDBRANCH  31  33
BRANCH  32  35
ATOM     35  O   UNL     1       0.099   3.193  20.050  0.00  0.00    +0.000 OA
ATOM     36  H   UNL     1       0.097   2.346  19.560  0.00  0.00    +0.000 HD
ENDBRANCH  32  35
BRANCH  30  37
ATOM     37  C   UNL     1       4.416   2.144  20.549  0.00  0.00    +0.000 C 
BRANCH  37  38
ATOM     38  O   UNL     1       5.176   2.952  19.658  0.00  0.00    +0.000 OA
ATOM     39  H   UNL     1       5.866   3.400  20.188  0.00  0.00    +0.000 HD
ENDBRANCH  37  38
ENDBRANCH  30  37
ENDBRANCH  26  28
ENDBRANCH   6  26
TORSDOF 8
ENDMDL
MODEL 5
REMARK VINA RESULT:      -8.1      1.017      1.069
REMARK  Name = 
REMARK  10 active torsions:
REMARK  status: ('A' for Active; 'I' for Inactive)
REMARK    1  A    between atoms: C_1  and  C_2
REMARK    2  A    between atoms: C_4  and  N_5
REMARK    3  A    between atoms: C_9  and  C_10
REMARK    4  A    between atoms: C_19  and  N_20
REMARK    5  A    between atoms: N_20  and  C_21
REMARK    6  A    between atoms: C_23  and  C_24
REMARK    7  A    between atoms: C_24  and  O_25
REMARK    8  A    between atoms: C_26  and  O_27
REMARK    9  A    between atoms: C_28  and  O_29
REMARK   10  A    between atoms: C_32  and  C_33
REMARK                            x       y       z     vdW  Elec       q    Type
REMARK                         _______ _______ _______ _____ _____    ______ ____
ROOT
ATOM      1  N   UNL     1      -0.057   9.290  20.217  0.00  0.00    +0.000 N 
ATOM      2  C   UNL     1       1.121   8.658  19.788  0.00  0.00    +0.000 A 
ATOM      3  N   UNL     1       1.852   9.219  18.826  0.00  0.00    +0.000 NA
ATOM      4  C   UNL     1       2.884   8.512  18.336  0.00  0.00    +0.000 A 
ATOM      5  C   UNL     1       3.257   7.248  18.755  0.00  0.00    +0.000 A 
ATOM      6  C   UNL     1       2.513   6.778  19.846  0.00  0.00    +0.000 A 
ATOM      7  N   UNL     1       1.461   7.483  20.353  0.00  0.00    +0.000 NA
ATOM      8  H   UNL     1      -0.484   8.758  20.961  0.00  0.00    +0.000 HD
ENDROOT
BRANCH   5   9
ATOM      9  C   UNL     1       4.280   6.563  17.934  0.00  0.00    +0.000 A 
ATOM     10  N   UNL     1       4.547   6.925  16.687  0.00  0.00    +0.000 NA
ATOM     11  C   UNL     1       5.120   5.876  15.986  0.00  0.00    +0.000 A 
ATOM     12  C   UNL     1       5.320   5.813  14.591  0.00  0.00    +0.000 A 
ATOM     13  C   UNL     1       5.718   4.605  14.005  0.00  0.00    +0.000 A 
ATOM     14  C   UNL     1       6.000   3.497  14.798  0.00  0.00    +0.000 A 
ATOM     15  C   UNL     1       5.920   3.574  16.193  0.00  0.00    +0.000 A 
ATOM     16  C   UNL     1       5.441   4.765  16.763  0.00  0.00    +0.000 A 
ATOM     17  S   UNL     1       5.094   5.126  18.409  0.00  0.00    +0.000 S 
ENDBRANCH   5   9
BRANCH   1  21
ATOM     18  C   UNL     1      -2.639  10.741  16.210  0.00  0.00    +0.000 C 
ATOM     19  C   UNL     1      -2.134  10.968  17.599  0.00  0.00    +0.000 A 
ATOM     20  C   UNL     1      -1.338  10.014  18.230  0.00  0.00    +0.000 A 
ATOM     21  C   UNL     1      -0.894  10.214  19.538  0.00  0.00    +0.000 A 
ATOM     22  C   UNL     1      -1.235  11.431  20.144  0.00  0.00    +0.000 A 
ATOM     23  C   UNL     1      -2.020  12.356  19.446  0.00  0.00    +0.000 A 
ATOM     24  C   UNL     1      -2.438  13.664  20.050  0.00  0.00    +0.000 C 
ATOM     25  N   UNL     1      -2.473  12.129  18.192  0.00  0.00    +0.000 NA
ENDBRANCH   1  21
BRANCH   6  26
ATOM     26  N   UNL     1       2.851   5.585  20.491  0.00  0.00    +0.000 N 
ATOM     27  H   UNL     1       3.770   5.225  20.240  0.00  0.00    +0.000 HD
BRANCH  26  28
ATOM     28  C   UNL     1       1.826   4.578  20.789  0.00  0.00    +0.000 C 
ATOM     29  C   UNL     1       2.464   3.458  21.637  0.00  0.00    +0.000 C 
ATOM     30  C   UNL     1       2.881   2.331  20.666  0.00  0.00    +0.000 C 
ATOM     31  C   UNL     1       2.456   2.826  19.270  0.00  0.00    +0.000 C 
ATOM     32  C   UNL     1       1.311   3.809  19.568  0.00  0.00    +0.000 C 
BRANCH  31  33
ATOM     33  O   UNL     1       1.955   1.739  18.486  0.00  0.00    +0.000 OA
ATOM     34  H   UNL     1       1.585   2.116  17.664  0.00  0.00    +0.000 HD
ENDBRANCH  31  33
BRANCH  32  35
ATOM     35  O   UNL     1       0.122   3.070  19.917  0.00  0.00    +0.000 OA
ATOM     36  H   UNL     1       0.104   2.270  19.354  0.00  0.00    +0.000 HD
ENDBRANCH  32  35
BRANCH  30  37
ATOM     37  C   UNL     1       4.348   1.931  20.826  0.00  0.00    +0.000 C 
BRANCH  37  38
ATOM     38  O   UNL     1       4.982   1.726  19.569  0.00  0.00    +0.000 OA
ATOM     39  H   UNL     1       5.224   0.779  19.516  0.00  0.00    +0.000 HD
ENDBRANCH  37  38
ENDBRANCH  30  37
ENDBRANCH  26  28
ENDBRANCH   6  26
TORSDOF 8
ENDMDL
MODEL 6
REMARK VINA RESULT:      -7.9      1.118      1.731
REMARK  Name = 
REMARK  10 active torsions:
REMARK  status: ('A' for Active; 'I' for Inactive)
REMARK    1  A    between atoms: C_1  and  C_2
REMARK    2  A    between atoms: C_4  and  N_5
REMARK    3  A    between atoms: C_9  and  C_10
REMARK    4  A    between atoms: C_19  and  N_20
REMARK    5  A    between atoms: N_20  and  C_21
REMARK    6  A    between atoms: C_23  and  C_24
REMARK    7  A    between atoms: C_24  and  O_25
REMARK    8  A    between atoms: C_26  and  O_27
REMARK    9  A    between atoms: C_28  and  O_29
REMARK   10  A    between atoms: C_32  and  C_33
REMARK                            x       y       z     vdW  Elec       q    Type
REMARK                         _______ _______ _______ _____ _____    ______ ____
ROOT
ATOM      1  N   UNL     1      -0.062   9.324  20.040  0.00  0.00    +0.000 N 
ATOM      2  C   UNL     1       1.143   8.760  19.593  0.00  0.00    +0.000 A 
ATOM      3  N   UNL     1       1.862   9.397  18.669  0.00  0.00    +0.000 NA
ATOM      4  C   UNL     1       2.924   8.754  18.155  0.00  0.00    +0.000 A 
ATOM      5  C   UNL     1       3.339   7.484  18.513  0.00  0.00    +0.000 A 
ATOM      6  C   UNL     1       2.603   6.931  19.569  0.00  0.00    +0.000 A 
ATOM      7  N   UNL     1       1.521   7.570  20.100  0.00  0.00    +0.000 NA
ATOM      8  H   UNL     1      -0.475   8.739  20.750  0.00  0.00    +0.000 HD
ENDROOT
BRANCH   5   9
ATOM      9  C   UNL     1       4.395   6.881  17.670  0.00  0.00    +0.000 A 
ATOM     10  N   UNL     1       4.352   6.918  16.345  0.00  0.00    +0.000 NA
ATOM     11  C   UNL     1       5.117   5.898  15.803  0.00  0.00    +0.000 A 
ATOM     12  C   UNL     1       5.122   5.483  14.454  0.00  0.00    +0.000 A 
ATOM     13  C   UNL     1       5.789   4.304  14.098  0.00  0.00    +0.000 A 
ATOM     14  C   UNL     1       6.515   3.591  15.047  0.00  0.00    +0.000 A 
ATOM     15  C   UNL     1       6.618   4.050  16.364  0.00  0.00    +0.000 A 
ATOM     16  C   UNL     1       5.878   5.187  16.728  0.00  0.00    +0.000 A 
ATOM     17  S   UNL     1       5.678   5.912  18.276  0.00  0.00    +0.000 S 
ENDBRANCH   5   9
BRANCH   1  21
ATOM     18  C   UNL     1      -2.934  13.395  20.095  0.00  0.00    +0.000 C 
ATOM     19  C   UNL     1      -2.356  12.206  19.396  0.00  0.00    +0.000 A 
ATOM     20  C   UNL     1      -1.490  11.343  20.064  0.00  0.00    +0.000 A 
ATOM     21  C   UNL     1      -0.926  10.252  19.400  0.00  0.00    +0.000 A 
ATOM     22  C   UNL     1      -1.323  10.044  18.073  0.00  0.00    +0.000 A 
ATOM     23  C   UNL     1      -2.214  10.938  17.468  0.00  0.00    +0.000 A 
ATOM     24  C   UNL     1      -2.656  10.782  16.043  0.00  0.00    +0.000 C 
ATOM     25  N   UNL     1      -2.721  12.012  18.114  0.00  0.00    +0.000 NA
ENDBRANCH   1  21
BRANCH   6  26
ATOM     26  N   UNL     1       2.979   5.720  20.156  0.00  0.00    +0.000 N 
ATOM     27  H   UNL     1       3.840   5.327  19.779  0.00  0.00    +0.000 HD
BRANCH  26  28
ATOM     28  C   UNL     1       1.965   4.749  20.587  0.00  0.00    +0.000 C 
ATOM     29  C   UNL     1       2.656   3.649  21.419  0.00  0.00    +0.000 C 
ATOM     30  C   UNL     1       2.960   2.475  20.461  0.00  0.00    +0.000 C 
ATOM     31  C   UNL     1       2.420   2.926  19.090  0.00  0.00    +0.000 C 
ATOM     32  C   UNL     1       1.326   3.946  19.450  0.00  0.00    +0.000 C 
BRANCH  31  33
ATOM     33  O   UNL     1       1.827   1.821  18.400  0.00  0.00    +0.000 OA
ATOM     34  H   UNL     1       1.610   1.140  19.067  0.00  0.00    +0.000 HD
ENDBRANCH  31  33
BRANCH  32  35
ATOM     35  O   UNL     1       0.159   3.249  19.935  0.00  0.00    +0.000 OA
ATOM     36  H   UNL     1      -0.052   2.552  19.282  0.00  0.00    +0.000 HD
ENDBRANCH  32  35
BRANCH  30  37
ATOM     37  C   UNL     1       4.427   2.047  20.504  0.00  0.00    +0.000 C 
BRANCH  37  38
ATOM     38  O   UNL     1       5.170   2.588  19.418  0.00  0.00    +0.000 OA
ATOM     39  H   UNL     1       4.686   3.376  19.097  0.00  0.00    +0.000 HD
ENDBRANCH  37  38
ENDBRANCH  30  37
ENDBRANCH  26  28
ENDBRANCH   6  26
TORSDOF 8
ENDMDL
MODEL 7
REMARK VINA RESULT:      -7.7      1.476      2.446
REMARK  Name = 
REMARK  10 active torsions:
REMARK  status: ('A' for Active; 'I' for Inactive)
REMARK    1  A    between atoms: C_1  and  C_2
REMARK    2  A    between atoms: C_4  and  N_5
REMARK    3  A    between atoms: C_9  and  C_10
REMARK    4  A    between atoms: C_19  and  N_20
REMARK    5  A    between atoms: N_20  and  C_21
REMARK    6  A    between atoms: C_23  and  C_24
REMARK    7  A    between atoms: C_24  and  O_25
REMARK    8  A    between atoms: C_26  and  O_27
REMARK    9  A    between atoms: C_28  and  O_29
REMARK   10  A    between atoms: C_32  and  C_33
REMARK                            x       y       z     vdW  Elec       q    Type
REMARK                         _______ _______ _______ _____ _____    ______ ____
ROOT
ATOM      1  N   UNL     1       0.104   9.309  19.903  0.00  0.00    +0.000 N 
ATOM      2  C   UNL     1       1.300   8.801  19.370  0.00  0.00    +0.000 A 
ATOM      3  N   UNL     1       1.989   9.532  18.496  0.00  0.00    +0.000 NA
ATOM      4  C   UNL     1       3.041   8.953  17.893  0.00  0.00    +0.000 A 
ATOM      5  C   UNL     1       3.473   7.657  18.112  0.00  0.00    +0.000 A 
ATOM      6  C   UNL     1       2.769   6.996  19.127  0.00  0.00    +0.000 A 
ATOM      7  N   UNL     1       1.698   7.570  19.748  0.00  0.00    +0.000 NA
ATOM      8  H   UNL     1      -0.286   8.653  20.563  0.00  0.00    +0.000 HD
ENDROOT
BRANCH   5   9
ATOM      9  C   UNL     1       4.509   7.149  17.185  0.00  0.00    +0.000 A 
ATOM     10  N   UNL     1       4.219   6.716  15.966  0.00  0.00    +0.000 NA
ATOM     11  C   UNL     1       5.201   5.852  15.509  0.00  0.00    +0.000 A 
ATOM     12  C   UNL     1       5.121   5.022  14.370  0.00  0.00    +0.000 A 
ATOM     13  C   UNL     1       6.107   4.052  14.153  0.00  0.00    +0.000 A 
ATOM     14  C   UNL     1       7.205   3.961  15.003  0.00  0.00    +0.000 A 
ATOM     15  C   UNL     1       7.362   4.852  16.070  0.00  0.00    +0.000 A 
ATOM     16  C   UNL     1       6.326   5.766  16.326  0.00  0.00    +0.000 A 
ATOM     17  S   UNL     1       6.149   6.881  17.625  0.00  0.00    +0.000 S 
ENDBRANCH   5   9
BRANCH   1  21
ATOM     18  C   UNL     1      -2.580  13.481  20.364  0.00  0.00    +0.000 C 
ATOM     19  C   UNL     1      -2.125  12.293  19.578  0.00  0.00    +0.000 A 
ATOM     20  C   UNL     1      -1.231  11.378  20.129  0.00  0.00    +0.000 A 
ATOM     21  C   UNL     1      -0.783  10.287  19.382  0.00  0.00    +0.000 A 
ATOM     22  C   UNL     1      -1.322  10.135  18.097  0.00  0.00    +0.000 A 
ATOM     23  C   UNL     1      -2.233  11.081  17.612  0.00  0.00    +0.000 A 
ATOM     24  C   UNL     1      -2.824  10.985  16.237  0.00  0.00    +0.000 C 
ATOM     25  N   UNL     1      -2.627  12.152  18.336  0.00  0.00    +0.000 NA
ENDBRANCH   1  21
BRANCH   6  26
ATOM     26  N   UNL     1       3.168   5.736  19.581  0.00  0.00    +0.000 N 
ATOM     27  H   UNL     1       3.891   5.765  20.298  0.00  0.00    +0.000 HD
BRANCH  26  28
ATOM     28  C   UNL     1       3.218   4.591  18.664  0.00  0.00    +0.000 C 
ATOM     29  C   UNL     1       2.060   3.631  19.009  0.00  0.00    +0.000 C 
ATOM     30  C   UNL     1       2.633   2.542  19.943  0.00  0.00    +0.000 C 
ATOM     31  C   UNL     1       4.125   2.896  20.106  0.00  0.00    +0.000 C 
ATOM     32  C   UNL     1       4.447   3.693  18.831  0.00  0.00    +0.000 C 
BRANCH  31  33
ATOM     33  O   UNL     1       4.919   1.706  20.135  0.00  0.00    +0.000 OA
ATOM     34  H   UNL     1       4.972   1.411  21.065  0.00  0.00    +0.000 HD
ENDBRANCH  31  33
BRANCH  32  35
ATOM     35  O   UNL     1       4.551   2.787  17.711  0.00  0.00    +0.000 OA
ATOM     36  H   UNL     1       4.104   3.214  16.953  0.00  0.00    +0.000 HD
ENDBRANCH  32  35
BRANCH  30  37
ATOM     37  C   UNL     1       1.828   2.393  21.234  0.00  0.00    +0.000 C 
BRANCH  37  38
ATOM     38  O   UNL     1       2.423   3.099  22.317  0.00  0.00    +0.000 OA
ATOM     39  H   UNL     1       3.324   3.357  22.036  0.00  0.00    +0.000 HD
ENDBRANCH  37  38
ENDBRANCH  30  37
ENDBRANCH  26  28
ENDBRANCH   6  26
TORSDOF 8
ENDMDL
MODEL 8
REMARK VINA RESULT:      -7.6      1.458      2.108
REMARK  Name = 
REMARK  10 active torsions:
REMARK  status: ('A' for Active; 'I' for Inactive)
REMARK    1  A    between atoms: C_1  and  C_2
REMARK    2  A    between atoms: C_4  and  N_5
REMARK    3  A    between atoms: C_9  and  C_10
REMARK    4  A    between atoms: C_19  and  N_20
REMARK    5  A    between atoms: N_20  and  C_21
REMARK    6  A    between atoms: C_23  and  C_24
REMARK    7  A    between atoms: C_24  and  O_25
REMARK    8  A    between atoms: C_26  and  O_27
REMARK    9  A    between atoms: C_28  and  O_29
REMARK   10  A    between atoms: C_32  and  C_33
REMARK                            x       y       z     vdW  Elec       q    Type
REMARK                         _______ _______ _______ _____ _____    ______ ____
ROOT
ATOM      1  N   UNL     1       0.096   9.270  19.970  0.00  0.00    +0.000 N 
ATOM      2  C   UNL     1       1.291   8.771  19.430  0.00  0.00    +0.000 A 
ATOM      3  N   UNL     1       1.967   9.504  18.546  0.00  0.00    +0.000 NA
ATOM      4  C   UNL     1       3.019   8.930  17.938  0.00  0.00    +0.000 A 
ATOM      5  C   UNL     1       3.465   7.640  18.160  0.00  0.00    +0.000 A 
ATOM      6  C   UNL     1       2.775   6.978  19.185  0.00  0.00    +0.000 A 
ATOM      7  N   UNL     1       1.704   7.546  19.811  0.00  0.00    +0.000 NA
ATOM      8  H   UNL     1      -0.284   8.615  20.636  0.00  0.00    +0.000 HD
ENDROOT
BRANCH   5   9
ATOM      9  C   UNL     1       4.498   7.136  17.228  0.00  0.00    +0.000 A 
ATOM     10  N   UNL     1       4.201   6.690  16.015  0.00  0.00    +0.000 NA
ATOM     11  C   UNL     1       5.189   5.834  15.555  0.00  0.00    +0.000 A 
ATOM     12  C   UNL     1       5.107   4.994  14.424  0.00  0.00    +0.000 A 
ATOM     13  C   UNL     1       6.102   4.033  14.205  0.00  0.00    +0.000 A 
ATOM     14  C   UNL     1       7.209   3.961  15.045  0.00  0.00    +0.000 A 
ATOM     15  C   UNL     1       7.365   4.862  16.104  0.00  0.00    +0.000 A 
ATOM     16  C   UNL     1       6.322   5.766  16.363  0.00  0.00    +0.000 A 
ATOM     17  S   UNL     1       6.144   6.889  17.654  0.00  0.00    +0.000 S 
ENDBRANCH   5   9
BRANCH   1  21
ATOM     18  C   UNL     1      -2.794  11.055  16.325  0.00  0.00    +0.000 C 
ATOM     19  C   UNL     1      -2.194  11.154  17.691  0.00  0.00    +0.000 A 
ATOM     20  C   UNL     1      -1.339  10.161  18.163  0.00  0.00    +0.000 A 
ATOM     21  C   UNL     1      -0.805  10.238  19.450  0.00  0.00    +0.000 A 
ATOM     22  C   UNL     1      -1.122  11.379  20.200  0.00  0.00    +0.000 A 
ATOM     23  C   UNL     1      -1.971  12.350  19.657  0.00  0.00    +0.000 A 
ATOM     24  C   UNL     1      -2.367  13.579  20.420  0.00  0.00    +0.000 C 
ATOM     25  N   UNL     1      -2.510  12.240  18.422  0.00  0.00    +0.000 NA
ENDBRANCH   1  21
BRANCH   6  26
ATOM     26  N   UNL     1       3.189   5.725  19.642  0.00  0.00    +0.000 N 
ATOM     27  H   UNL     1       3.919   5.764  20.352  0.00  0.00    +0.000 HD
BRANCH  26  28
ATOM     28  C   UNL     1       3.239   4.574  18.732  0.00  0.00    +0.000 C 
ATOM     29  C   UNL     1       2.095   3.605  19.097  0.00  0.00    +0.000 C 
ATOM     30  C   UNL     1       2.689   2.528  20.031  0.00  0.00    +0.000 C 
ATOM     31  C   UNL     1       4.179   2.897  20.174  0.00  0.00    +0.000 C 
ATOM     32  C   UNL     1       4.479   3.688  18.889  0.00  0.00    +0.000 C 
BRANCH  31  33
ATOM     33  O   UNL     1       4.985   1.715  20.201  0.00  0.00    +0.000 OA
ATOM     34  H   UNL     1       4.398   0.955  20.020  0.00  0.00    +0.000 HD
ENDBRANCH  31  33
BRANCH  32  35
ATOM     35  O   UNL     1       4.578   2.777  17.775  0.00  0.00    +0.000 OA
ATOM     36  H   UNL     1       4.074   1.974  18.014  0.00  0.00    +0.000 HD
ENDBRANCH  32  35
BRANCH  30  37
ATOM     37  C   UNL     1       1.901   2.380  21.332  0.00  0.00    +0.000 C 
BRANCH  37  38
ATOM     38  O   UNL     1       2.381   3.254  22.347  0.00  0.00    +0.000 OA
ATOM     39  H   UNL     1       2.863   3.980  21.902  0.00  0.00    +0.000 HD
ENDBRANCH  37  38
ENDBRANCH  30  37
ENDBRANCH  26  28
ENDBRANCH   6  26
TORSDOF 8
ENDMDL
MODEL 9
REMARK VINA RESULT:      -7.6      4.597     10.289
REMARK  Name = 
REMARK  10 active torsions:
REMARK  status: ('A' for Active; 'I' for Inactive)
REMARK    1  A    between atoms: C_1  and  C_2
REMARK    2  A    between atoms: C_4  and  N_5
REMARK    3  A    between atoms: C_9  and  C_10
REMARK    4  A    between atoms: C_19  and  N_20
REMARK    5  A    between atoms: N_20  and  C_21
REMARK    6  A    between atoms: C_23  and  C_24
REMARK    7  A    between atoms: C_24  and  O_25
REMARK    8  A    between atoms: C_26  and  O_27
REMARK    9  A    between atoms: C_28  and  O_29
REMARK   10  A    between atoms: C_32  and  C_33
REMARK                            x       y       z     vdW  Elec       q    Type
REMARK                         _______ _______ _______ _____ _____    ______ ____
ROOT
ATOM      1  N   UNL     1       1.474   8.792  17.784  0.00  0.00    +0.000 N 
ATOM      2  C   UNL     1       0.906   9.791  18.591  0.00  0.00    +0.000 A 
ATOM      3  N   UNL     1       1.540  10.181  19.695  0.00  0.00    +0.000 NA
ATOM      4  C   UNL     1       0.894  11.022  20.519  0.00  0.00    +0.000 A 
ATOM      5  C   UNL     1      -0.377  11.526  20.311  0.00  0.00    +0.000 A 
ATOM      6  C   UNL     1      -0.928  11.161  19.075  0.00  0.00    +0.000 A 
ATOM      7  N   UNL     1      -0.286  10.307  18.228  0.00  0.00    +0.000 NA
ATOM      8  H   UNL     1       0.890   8.624  16.978  0.00  0.00    +0.000 HD
ENDROOT
BRANCH   5   9
ATOM      9  C   UNL     1      -0.984  12.256  21.446  0.00  0.00    +0.000 A 
ATOM     10  N   UNL     1      -1.698  11.647  22.382  0.00  0.00    +0.000 NA
ATOM     11  C   UNL     1      -2.551  12.542  23.006  0.00  0.00    +0.000 A 
ATOM     12  C   UNL     1      -3.615  12.217  23.875  0.00  0.00    +0.000 A 
ATOM     13  C   UNL     1      -4.520  13.214  24.261  0.00  0.00    +0.000 A 
ATOM     14  C   UNL     1      -4.325  14.533  23.864  0.00  0.00    +0.000 A 
ATOM     15  C   UNL     1      -3.212  14.895  23.098  0.00  0.00    +0.000 A 
ATOM     16  C   UNL     1      -2.358  13.874  22.649  0.00  0.00    +0.000 A 
ATOM     17  S   UNL     1      -1.005  13.969  21.589  0.00  0.00    +0.000 S 
ENDBRANCH   5   9
BRANCH   1  21
ATOM     18  C   UNL     1       5.772   6.377  17.064  0.00  0.00    +0.000 C 
ATOM     19  C   UNL     1       4.469   6.554  17.777  0.00  0.00    +0.000 A 
ATOM     20  C   UNL     1       3.606   7.589  17.429  0.00  0.00    +0.000 A 
ATOM     21  C   UNL     1       2.405   7.772  18.116  0.00  0.00    +0.000 A 
ATOM     22  C   UNL     1       2.096   6.836  19.112  0.00  0.00    +0.000 A 
ATOM     23  C   UNL     1       3.000   5.806  19.398  0.00  0.00    +0.000 A 
ATOM     24  C   UNL     1       2.737   4.789  20.469  0.00  0.00    +0.000 C 
ATOM     25  N   UNL     1       4.177   5.667  18.747  0.00  0.00    +0.000 NA
ENDBRANCH   1  21
BRANCH   6  26
ATOM     26  N   UNL     1      -2.141  11.701  18.637  0.00  0.00    +0.000 N 
ATOM     27  H   UNL     1      -2.208  12.711  18.748  0.00  0.00    +0.000 HD
BRANCH  26  28
ATOM     28  C   UNL     1      -3.394  10.952  18.795  0.00  0.00    +0.000 C 
ATOM     29  C   UNL     1      -3.492   9.909  17.663  0.00  0.00    +0.000 C 
ATOM     30  C   UNL     1      -4.343  10.536  16.536  0.00  0.00    +0.000 C 
ATOM     31  C   UNL     1      -4.729  11.935  17.056  0.00  0.00    +0.000 C 
ATOM     32  C   UNL     1      -4.664  11.782  18.585  0.00  0.00    +0.000 C 
BRANCH  31  33
ATOM     33  O   UNL     1      -6.068  12.258  16.669  0.00  0.00    +0.000 OA
ATOM     34  H   UNL     1      -6.038  12.582  15.748  0.00  0.00    +0.000 HD
ENDBRANCH  31  33
BRANCH  32  35
ATOM     35  O   UNL     1      -5.816  11.045  19.044  0.00  0.00    +0.000 OA
ATOM     36  H   UNL     1      -6.103  10.469  18.307  0.00  0.00    +0.000 HD
ENDBRANCH  32  35
BRANCH  30  37
ATOM     37  C   UNL     1      -3.644  10.488  15.177  0.00  0.00    +0.000 C 
BRANCH  37  38
ATOM     38  O   UNL     1      -2.282  10.891  15.265  0.00  0.00    +0.000 OA
ATOM     39  H   UNL     1      -2.193  11.728  14.764  0.00  0.00    +0.000 HD
ENDBRANCH  37  38
ENDBRANCH  30  37
ENDBRANCH  26  28
ENDBRANCH   6  26
TORSDOF 8
ENDMDL
