MODEL 1
REMARK VINA RESULT:      -6.7      0.000      0.000
REMARK  Name = 
REMARK  4 active torsions:
REMARK  status: ('A' for Active; 'I' for Inactive)
REMARK    1  A    between atoms: C_2  and  C_3
REMARK    2  A    between atoms: C_8  and  N_9
REMARK    3  A    between atoms: C_13  and  C_14
REMARK    4  A    between atoms: C_14  and  N_15
REMARK                            x       y       z     vdW  Elec       q    Type
REMARK                         _______ _______ _______ _____ _____    ______ ____
ROOT
ATOM      1  N   UNL     1       4.422   4.978  18.520  0.00  0.00    +0.000 N 
ATOM      2  C   UNL     1       4.066   3.675  17.960  0.00  0.00    +0.000 C 
ATOM      3  C   UNL     1       2.613   3.703  17.477  0.00  0.00    +0.000 C 
ATOM      4  C   UNL     1       1.660   4.202  18.562  0.00  0.00    +0.000 C 
ATOM      5  C   UNL     1       2.125   5.529  19.183  0.00  0.00    +0.000 C 
ATOM      6  C   UNL     1       3.586   5.421  19.636  0.00  0.00    +0.000 C 
ENDROOT
BRANCH   1  12
ATOM      7  C   UNL     1       6.311   6.257  17.541  0.00  0.00    +0.000 A 
ATOM      8  C   UNL     1       7.648   6.655  17.698  0.00  0.00    +0.000 A 
ATOM      9  C   UNL     1       8.346   6.328  18.850  0.00  0.00    +0.000 A 
ATOM     10  C   UNL     1       7.678   5.609  19.815  0.00  0.00    +0.000 A 
ATOM     11  N   UNL     1       6.399   5.187  19.677  0.00  0.00    +0.000 NA
ATOM     12  C   UNL     1       5.701   5.494  18.546  0.00  0.00    +0.000 A 
BRANCH   7  14
ATOM     13  N   UNL     1       5.132   6.861  15.319  0.00  0.00    +0.000 NA
ATOM     14  C   UNL     1       5.662   6.608  16.318  0.00  0.00    +0.000 C 
ENDBRANCH   7  14
ENDBRANCH   1  12
BRANCH   5  15
ATOM     15  C   UNL     1       1.967   6.746  18.239  0.00  0.00    +0.000 C 
BRANCH  15  16
ATOM     16  N   UNL     1       1.348   7.941  18.851  0.00  0.00    +0.000 NA
ATOM     17  C   UNL     1       1.762   8.156  20.237  0.00  0.00    +0.000 C 
ATOM     18  C   UNL     1       0.634   8.809  21.036  0.00  0.00    +0.000 C 
ATOM     19  C   UNL     1       0.552  10.320  20.889  0.00  0.00    +0.000 C 
ATOM     20  C   UNL     1       0.354  10.808  19.458  0.00  0.00    +0.000 C 
ATOM     21  C   UNL     1       1.548  10.504  18.563  0.00  0.00    +0.000 C 
ATOM     22  C   UNL     1       1.550   9.096  17.959  0.00  0.00    +0.000 C 
ENDBRANCH  15  16
ENDBRANCH   5  15
TORSDOF 4
ENDMDL
MODEL 2
REMARK VINA RESULT:      -6.6      0.342      1.328
REMARK  Name = 
REMARK  4 active torsions:
REMARK  status: ('A' for Active; 'I' for Inactive)
REMARK    1  A    between atoms: C_2  and  C_3
REMARK    2  A    between atoms: C_8  and  N_9
REMARK    3  A    between atoms: C_13  and  C_14
REMARK    4  A    between atoms: C_14  and  N_15
REMARK                            x       y       z     vdW  Elec       q    Type
REMARK                         _______ _______ _______ _____ _____    ______ ____
ROOT
ATOM      1  N   UNL     1       4.369   5.094  18.582  0.00  0.00    +0.000 N 
ATOM      2  C   UNL     1       3.933   3.811  18.031  0.00  0.00    +0.000 C 
ATOM      3  C   UNL     1       2.466   3.910  17.600  0.00  0.00    +0.000 C 
ATOM      4  C   UNL     1       1.577   4.447  18.720  0.00  0.00    +0.000 C 
ATOM      5  C   UNL     1       2.126   5.747  19.329  0.00  0.00    +0.000 C 
ATOM      6  C   UNL     1       3.595   5.570  19.728  0.00  0.00    +0.000 C 
ENDROOT
BRANCH   1  12
ATOM      7  C   UNL     1       6.292   6.253  17.523  0.00  0.00    +0.000 A 
ATOM      8  C   UNL     1       7.649   6.592  17.639  0.00  0.00    +0.000 A 
ATOM      9  C   UNL     1       8.358   6.267  18.784  0.00  0.00    +0.000 A 
ATOM     10  C   UNL     1       7.680   5.609  19.785  0.00  0.00    +0.000 A 
ATOM     11  N   UNL     1       6.380   5.244  19.688  0.00  0.00    +0.000 NA
ATOM     12  C   UNL     1       5.671   5.550  18.564  0.00  0.00    +0.000 A 
BRANCH   7  14
ATOM     13  N   UNL     1       5.118   6.900  15.310  0.00  0.00    +0.000 NA
ATOM     14  C   UNL     1       5.632   6.598  16.305  0.00  0.00    +0.000 C 
ENDBRANCH   7  14
ENDBRANCH   1  12
BRANCH   5  15
ATOM     15  C   UNL     1       1.991   6.975  18.395  0.00  0.00    +0.000 C 
BRANCH  15  16
ATOM     16  N   UNL     1       1.778   8.267  19.080  0.00  0.00    +0.000 NA
ATOM     17  C   UNL     1       1.048   9.237  18.263  0.00  0.00    +0.000 C 
ATOM     18  C   UNL     1       1.502  10.660  18.591  0.00  0.00    +0.000 C 
ATOM     19  C   UNL     1       0.828  11.270  19.810  0.00  0.00    +0.000 C 
ATOM     20  C   UNL     1       1.026  10.487  21.103  0.00  0.00    +0.000 C 
ATOM     21  C   UNL     1       0.358   9.118  21.068  0.00  0.00    +0.000 C 
ATOM     22  C   UNL     1       1.194   8.016  20.409  0.00  0.00    +0.000 C 
ENDBRANCH  15  16
ENDBRANCH   5  15
TORSDOF 4
ENDMDL
MODEL 3
REMARK VINA RESULT:      -6.5      1.530      2.534
REMARK  Name = 
REMARK  4 active torsions:
REMARK  status: ('A' for Active; 'I' for Inactive)
REMARK    1  A    between atoms: C_2  and  C_3
REMARK    2  A    between atoms: C_8  and  N_9
REMARK    3  A    between atoms: C_13  and  C_14
REMARK    4  A    between atoms: C_14  and  N_15
REMARK                            x       y       z     vdW  Elec       q    Type
REMARK                         _______ _______ _______ _____ _____    ______ ____
ROOT
ATOM      1  N   UNL     1       4.584   4.423  18.014  0.00  0.00    +0.000 N 
ATOM      2  C   UNL     1       4.162   3.183  18.663  0.00  0.00    +0.000 C 
ATOM      3  C   UNL     1       2.794   3.388  19.321  0.00  0.00    +0.000 C 
ATOM      4  C   UNL     1       2.778   4.612  20.235  0.00  0.00    +0.000 C 
ATOM      5  C   UNL     1       3.316   5.870  19.536  0.00  0.00    +0.000 C 
ATOM      6  C   UNL     1       4.681   5.583  18.900  0.00  0.00    +0.000 C 
ENDROOT
BRANCH   1  12
ATOM      7  C   UNL     1       6.812   4.697  16.952  0.00  0.00    +0.000 A 
ATOM      8  C   UNL     1       7.516   4.797  15.742  0.00  0.00    +0.000 A 
ATOM      9  C   UNL     1       6.855   4.655  14.533  0.00  0.00    +0.000 A 
ATOM     10  C   UNL     1       5.500   4.415  14.573  0.00  0.00    +0.000 A 
ATOM     11  N   UNL     1       4.791   4.343  15.724  0.00  0.00    +0.000 NA
ATOM     12  C   UNL     1       5.426   4.487  16.923  0.00  0.00    +0.000 A 
BRANCH   7  14
ATOM     13  N   UNL     1       8.151   5.056  19.136  0.00  0.00    +0.000 NA
ATOM     14  C   UNL     1       7.553   4.877  18.159  0.00  0.00    +0.000 C 
ENDBRANCH   7  14
ENDBRANCH   1  12
BRANCH   5  15
ATOM     15  C   UNL     1       2.358   6.441  18.462  0.00  0.00    +0.000 C 
BRANCH  15  16
ATOM     16  N   UNL     1       1.632   7.668  18.854  0.00  0.00    +0.000 NA
ATOM     17  C   UNL     1       1.924   8.096  20.222  0.00  0.00    +0.000 C 
ATOM     18  C   UNL     1       0.705   8.780  20.840  0.00  0.00    +0.000 C 
ATOM     19  C   UNL     1       0.557  10.249  20.476  0.00  0.00    +0.000 C 
ATOM     20  C   UNL     1       0.446  10.525  18.980  0.00  0.00    +0.000 C 
ATOM     21  C   UNL     1       1.721  10.175  18.224  0.00  0.00    +0.000 C 
ATOM     22  C   UNL     1       1.844   8.701  17.825  0.00  0.00    +0.000 C 
ENDBRANCH  15  16
ENDBRANCH   5  15
TORSDOF 4
ENDMDL
MODEL 4
REMARK VINA RESULT:      -6.5      3.188      5.583
REMARK  Name = 
REMARK  4 active torsions:
REMARK  status: ('A' for Active; 'I' for Inactive)
REMARK    1  A    between atoms: C_2  and  C_3
REMARK    2  A    between atoms: C_8  and  N_9
REMARK    3  A    between atoms: C_13  and  C_14
REMARK    4  A    between atoms: C_14  and  N_15
REMARK                            x       y       z     vdW  Elec       q    Type
REMARK                         _______ _______ _______ _____ _____    ______ ____
ROOT
ATOM      1  N   UNL     1       6.303   4.659  15.168  0.00  0.00    +0.000 N 
ATOM      2  C   UNL     1       7.487   4.803  16.014  0.00  0.00    +0.000 C 
ATOM      3  C   UNL     1       7.093   4.622  17.484  0.00  0.00    +0.000 C 
ATOM      4  C   UNL     1       5.927   5.527  17.877  0.00  0.00    +0.000 C 
ATOM      5  C   UNL     1       4.742   5.408  16.906  0.00  0.00    +0.000 C 
ATOM      6  C   UNL     1       5.217   5.595  15.460  0.00  0.00    +0.000 C 
ENDROOT
BRANCH   1  12
ATOM      7  C   UNL     1       7.247   4.611  12.872  0.00  0.00    +0.000 A 
ATOM      8  C   UNL     1       7.092   4.126  11.565  0.00  0.00    +0.000 A 
ATOM      9  C   UNL     1       6.063   3.249  11.259  0.00  0.00    +0.000 A 
ATOM     10  C   UNL     1       5.216   2.884  12.280  0.00  0.00    +0.000 A 
ATOM     11  N   UNL     1       5.323   3.360  13.542  0.00  0.00    +0.000 NA
ATOM     12  C   UNL     1       6.326   4.228  13.858  0.00  0.00    +0.000 A 
BRANCH   7  14
ATOM     13  N   UNL     1       9.203   6.250  13.299  0.00  0.00    +0.000 NA
ATOM     14  C   UNL     1       8.315   5.529  13.110  0.00  0.00    +0.000 C 
ENDBRANCH   7  14
ENDBRANCH   1  12
BRANCH   5  15
ATOM     15  C   UNL     1       3.972   4.070  17.026  0.00  0.00    +0.000 C 
BRANCH  15  16
ATOM     16  N   UNL     1       3.133   3.932  18.234  0.00  0.00    +0.000 NA
ATOM     17  C   UNL     1       2.352   5.133  18.531  0.00  0.00    +0.000 C 
ATOM     18  C   UNL     1       2.156   5.283  20.040  0.00  0.00    +0.000 C 
ATOM     19  C   UNL     1       1.007   4.468  20.610  0.00  0.00    +0.000 C 
ATOM     20  C   UNL     1       1.118   2.965  20.377  0.00  0.00    +0.000 C 
ATOM     21  C   UNL     1       1.024   2.592  18.903  0.00  0.00    +0.000 C 
ATOM     22  C   UNL     1       2.344   2.692  18.133  0.00  0.00    +0.000 C 
ENDBRANCH  15  16
ENDBRANCH   5  15
TORSDOF 4
ENDMDL
MODEL 5
REMARK VINA RESULT:      -6.5      1.516      2.819
REMARK  Name = 
REMARK  4 active torsions:
REMARK  status: ('A' for Active; 'I' for Inactive)
REMARK    1  A    between atoms: C_2  and  C_3
REMARK    2  A    between atoms: C_8  and  N_9
REMARK    3  A    between atoms: C_13  and  C_14
REMARK    4  A    between atoms: C_14  and  N_15
REMARK                            x       y       z     vdW  Elec       q    Type
REMARK                         _______ _______ _______ _____ _____    ______ ____
ROOT
ATOM      1  N   UNL     1       4.513   4.405  18.202  0.00  0.00    +0.000 N 
ATOM      2  C   UNL     1       3.988   3.162  18.764  0.00  0.00    +0.000 C 
ATOM      3  C   UNL     1       2.635   3.429  19.430  0.00  0.00    +0.000 C 
ATOM      4  C   UNL     1       2.708   4.586  20.425  0.00  0.00    +0.000 C 
ATOM      5  C   UNL     1       3.350   5.842  19.815  0.00  0.00    +0.000 C 
ATOM      6  C   UNL     1       4.694   5.491  19.166  0.00  0.00    +0.000 C 
ENDROOT
BRANCH   1  12
ATOM      7  C   UNL     1       6.745   4.726  17.164  0.00  0.00    +0.000 A 
ATOM      8  C   UNL     1       7.462   4.827  15.961  0.00  0.00    +0.000 A 
ATOM      9  C   UNL     1       6.821   4.646  14.746  0.00  0.00    +0.000 A 
ATOM     10  C   UNL     1       5.473   4.367  14.774  0.00  0.00    +0.000 A 
ATOM     11  N   UNL     1       4.752   4.294  15.917  0.00  0.00    +0.000 NA
ATOM     12  C   UNL     1       5.367   4.476  17.121  0.00  0.00    +0.000 A 
BRANCH   7  14
ATOM     13  N   UNL     1       8.073   5.144  19.345  0.00  0.00    +0.000 NA
ATOM     14  C   UNL     1       7.466   4.947  18.377  0.00  0.00    +0.000 C 
ENDBRANCH   7  14
ENDBRANCH   1  12
BRANCH   5  15
ATOM     15  C   UNL     1       2.449   6.559  18.780  0.00  0.00    +0.000 C 
BRANCH  15  16
ATOM     16  N   UNL     1       2.151   7.975  19.078  0.00  0.00    +0.000 NA
ATOM     17  C   UNL     1       1.528   8.680  17.957  0.00  0.00    +0.000 C 
ATOM     18  C   UNL     1       1.935  10.153  17.960  0.00  0.00    +0.000 C 
ATOM     19  C   UNL     1       1.113  11.031  18.891  0.00  0.00    +0.000 C 
ATOM     20  C   UNL     1       1.149  10.611  20.356  0.00  0.00    +0.000 C 
ATOM     21  C   UNL     1       0.493   9.257  20.594  0.00  0.00    +0.000 C 
ATOM     22  C   UNL     1       1.406   8.052  20.347  0.00  0.00    +0.000 C 
ENDBRANCH  15  16
ENDBRANCH   5  15
TORSDOF 4
ENDMDL
MODEL 6
REMARK VINA RESULT:      -6.2      1.115      1.703
REMARK  Name = 
REMARK  4 active torsions:
REMARK  status: ('A' for Active; 'I' for Inactive)
REMARK    1  A    between atoms: C_2  and  C_3
REMARK    2  A    between atoms: C_8  and  N_9
REMARK    3  A    between atoms: C_13  and  C_14
REMARK    4  A    between atoms: C_14  and  N_15
REMARK                            x       y       z     vdW  Elec       q    Type
REMARK                         _______ _______ _______ _____ _____    ______ ____
ROOT
ATOM      1  N   UNL     1       4.268   4.653  18.548  0.00  0.00    +0.000 N 
ATOM      2  C   UNL     1       3.561   3.488  18.019  0.00  0.00    +0.000 C 
ATOM      3  C   UNL     1       2.139   3.890  17.615  0.00  0.00    +0.000 C 
ATOM      4  C   UNL     1       1.406   4.608  18.747  0.00  0.00    +0.000 C 
ATOM      5  C   UNL     1       2.229   5.767  19.332  0.00  0.00    +0.000 C 
ATOM      6  C   UNL     1       3.636   5.287  19.705  0.00  0.00    +0.000 C 
ENDROOT
BRANCH   1  12
ATOM      7  C   UNL     1       6.465   4.602  17.392  0.00  0.00    +0.000 A 
ATOM      8  C   UNL     1       7.852   4.766  17.530  0.00  0.00    +0.000 A 
ATOM      9  C   UNL     1       8.393   5.178  18.737  0.00  0.00    +0.000 A 
ATOM     10  C   UNL     1       7.522   5.415  19.776  0.00  0.00    +0.000 A 
ATOM     11  N   UNL     1       6.184   5.237  19.680  0.00  0.00    +0.000 NA
ATOM     12  C   UNL     1       5.636   4.825  18.501  0.00  0.00    +0.000 A 
BRANCH   7  14
ATOM     13  N   UNL     1       5.597   3.757  15.106  0.00  0.00    +0.000 NA
ATOM     14  C   UNL     1       5.980   4.152  16.127  0.00  0.00    +0.000 C 
ENDBRANCH   7  14
ENDBRANCH   1  12
BRANCH   5  15
ATOM     15  C   UNL     1       2.335   6.991  18.389  0.00  0.00    +0.000 C 
BRANCH  15  16
ATOM     16  N   UNL     1       2.002   8.292  19.005  0.00  0.00    +0.000 NA
ATOM     17  C   UNL     1       1.240   9.170  18.117  0.00  0.00    +0.000 C 
ATOM     18  C   UNL     1       1.576  10.635  18.396  0.00  0.00    +0.000 C 
ATOM     19  C   UNL     1       0.809  11.246  19.559  0.00  0.00    +0.000 C 
ATOM     20  C   UNL     1       1.009  10.536  20.893  0.00  0.00    +0.000 C 
ATOM     21  C   UNL     1       0.443   9.121  20.895  0.00  0.00    +0.000 C 
ATOM     22  C   UNL     1       1.382   8.057  20.321  0.00  0.00    +0.000 C 
ENDBRANCH  15  16
ENDBRANCH   5  15
TORSDOF 4
ENDMDL
MODEL 7
REMARK VINA RESULT:      -6.2      3.202      5.461
REMARK  Name = 
REMARK  4 active torsions:
REMARK  status: ('A' for Active; 'I' for Inactive)
REMARK    1  A    between atoms: C_2  and  C_3
REMARK    2  A    between atoms: C_8  and  N_9
REMARK    3  A    between atoms: C_13  and  C_14
REMARK    4  A    between atoms: C_14  and  N_15
REMARK                            x       y       z     vdW  Elec       q    Type
REMARK                         _______ _______ _______ _____ _____    ______ ____
ROOT
ATOM      1  N   UNL     1       6.287   4.634  15.223  0.00  0.00    +0.000 N 
ATOM      2  C   UNL     1       7.492   4.762  16.042  0.00  0.00    +0.000 C 
ATOM      3  C   UNL     1       7.130   4.577  17.519  0.00  0.00    +0.000 C 
ATOM      4  C   UNL     1       5.982   5.489  17.945  0.00  0.00    +0.000 C 
ATOM      5  C   UNL     1       4.774   5.387  17.001  0.00  0.00    +0.000 C 
ATOM      6  C   UNL     1       5.217   5.577  15.545  0.00  0.00    +0.000 C 
ENDROOT
BRANCH   1  12
ATOM      7  C   UNL     1       7.185   4.580  12.909  0.00  0.00    +0.000 A 
ATOM      8  C   UNL     1       6.995   4.105  11.602  0.00  0.00    +0.000 A 
ATOM      9  C   UNL     1       5.943   3.252  11.312  0.00  0.00    +0.000 A 
ATOM     10  C   UNL     1       5.108   2.898  12.347  0.00  0.00    +0.000 A 
ATOM     11  N   UNL     1       5.249   3.364  13.610  0.00  0.00    +0.000 NA
ATOM     12  C   UNL     1       6.276   4.210  13.910  0.00  0.00    +0.000 A 
BRANCH   7  14
ATOM     13  N   UNL     1       9.173   6.194  13.280  0.00  0.00    +0.000 NA
ATOM     14  C   UNL     1       8.276   5.474  13.130  0.00  0.00    +0.000 C 
ENDBRANCH   7  14
ENDBRANCH   1  12
BRANCH   5  15
ATOM     15  C   UNL     1       3.995   4.055  17.131  0.00  0.00    +0.000 C 
BRANCH  15  16
ATOM     16  N   UNL     1       3.028   3.997  18.248  0.00  0.00    +0.000 NA
ATOM     17  C   UNL     1       3.433   3.076  19.310  0.00  0.00    +0.000 C 
ATOM     18  C   UNL     1       2.205   2.456  19.976  0.00  0.00    +0.000 C 
ATOM     19  C   UNL     1       1.567   3.322  21.051  0.00  0.00    +0.000 C 
ATOM     20  C   UNL     1       1.102   4.692  20.569  0.00  0.00    +0.000 C 
ATOM     21  C   UNL     1       2.258   5.585  20.138  0.00  0.00    +0.000 C 
ATOM     22  C   UNL     1       2.731   5.367  18.698  0.00  0.00    +0.000 C 
ENDBRANCH  15  16
ENDBRANCH   5  15
TORSDOF 4
ENDMDL
MODEL 8
REMARK VINA RESULT:      -6.2      2.756      6.970
REMARK  Name = 
REMARK  4 active torsions:
REMARK  status: ('A' for Active; 'I' for Inactive)
REMARK    1  A    between atoms: C_2  and  C_3
REMARK    2  A    between atoms: C_8  and  N_9
REMARK    3  A    between atoms: C_13  and  C_14
REMARK    4  A    between atoms: C_14  and  N_15
REMARK                            x       y       z     vdW  Elec       q    Type
REMARK                         _______ _______ _______ _____ _____    ______ ____
ROOT
ATOM      1  N   UNL     1       5.196   4.600  18.325  0.00  0.00    +0.000 N 
ATOM      2  C   UNL     1       5.756   5.301  19.479  0.00  0.00    +0.000 C 
ATOM      3  C   UNL     1       6.984   6.107  19.045  0.00  0.00    +0.000 C 
ATOM      4  C   UNL     1       7.991   5.247  18.284  0.00  0.00    +0.000 C 
ATOM      5  C   UNL     1       7.338   4.460  17.137  0.00  0.00    +0.000 C 
ATOM      6  C   UNL     1       6.117   3.686  17.650  0.00  0.00    +0.000 C 
ENDROOT
BRANCH   1  12
ATOM      7  C   UNL     1       2.790   5.122  18.006  0.00  0.00    +0.000 A 
ATOM      8  C   UNL     1       1.487   4.602  17.953  0.00  0.00    +0.000 A 
ATOM      9  C   UNL     1       1.273   3.236  18.047  0.00  0.00    +0.000 A 
ATOM     10  C   UNL     1       2.378   2.429  18.192  0.00  0.00    +0.000 A 
ATOM     11  N   UNL     1       3.642   2.905  18.277  0.00  0.00    +0.000 NA
ATOM     12  C   UNL     1       3.869   4.247  18.193  0.00  0.00    +0.000 A 
BRANCH   7  14
ATOM     13  N   UNL     1       3.077   7.690  17.881  0.00  0.00    +0.000 NA
ATOM     14  C   UNL     1       2.934   6.541  17.927  0.00  0.00    +0.000 C 
ENDBRANCH   7  14
ENDBRANCH   1  12
BRANCH   5  15
ATOM     15  C   UNL     1       6.920   5.343  15.936  0.00  0.00    +0.000 C 
BRANCH  15  16
ATOM     16  N   UNL     1       6.760   4.627  14.653  0.00  0.00    +0.000 NA
ATOM     17  C   UNL     1       5.379   4.614  14.171  0.00  0.00    +0.000 C 
ATOM     18  C   UNL     1       5.098   3.330  13.389  0.00  0.00    +0.000 C 
ATOM     19  C   UNL     1       5.542   3.369  11.935  0.00  0.00    +0.000 C 
ATOM     20  C   UNL     1       7.029   3.636  11.733  0.00  0.00    +0.000 C 
ATOM     21  C   UNL     1       7.444   5.028  12.190  0.00  0.00    +0.000 C 
ATOM     22  C   UNL     1       7.746   5.145  13.688  0.00  0.00    +0.000 C 
ENDBRANCH  15  16
ENDBRANCH   5  15
TORSDOF 4
ENDMDL
MODEL 9
REMARK VINA RESULT:      -6.2      2.669      7.007
REMARK  Name = 
REMARK  4 active torsions:
REMARK  status: ('A' for Active; 'I' for Inactive)
REMARK    1  A    between atoms: C_2  and  C_3
REMARK    2  A    between atoms: C_8  and  N_9
REMARK    3  A    between atoms: C_13  and  C_14
REMARK    4  A    between atoms: C_14  and  N_15
REMARK                            x       y       z     vdW  Elec       q    Type
REMARK                         _______ _______ _______ _____ _____    ______ ____
ROOT
ATOM      1  N   UNL     1       5.035   4.448  18.391  0.00  0.00    +0.000 N 
ATOM      2  C   UNL     1       5.698   5.028  19.558  0.00  0.00    +0.000 C 
ATOM      3  C   UNL     1       6.781   6.009  19.099  0.00  0.00    +0.000 C 
ATOM      4  C   UNL     1       7.733   5.375  18.086  0.00  0.00    +0.000 C 
ATOM      5  C   UNL     1       6.986   4.699  16.926  0.00  0.00    +0.000 C 
ATOM      6  C   UNL     1       5.919   3.740  17.466  0.00  0.00    +0.000 C 
ENDROOT
BRANCH   1  12
ATOM      7  C   UNL     1       2.575   4.765  18.285  0.00  0.00    +0.000 A 
ATOM      8  C   UNL     1       1.321   4.138  18.351  0.00  0.00    +0.000 A 
ATOM      9  C   UNL     1       1.231   2.761  18.474  0.00  0.00    +0.000 A 
ATOM     10  C   UNL     1       2.408   2.049  18.527  0.00  0.00    +0.000 A 
ATOM     11  N   UNL     1       3.630   2.630  18.495  0.00  0.00    +0.000 NA
ATOM     12  C   UNL     1       3.736   3.985  18.381  0.00  0.00    +0.000 A 
BRANCH   7  14
ATOM     13  N   UNL     1       2.580   7.347  18.118  0.00  0.00    +0.000 NA
ATOM     14  C   UNL     1       2.592   6.189  18.182  0.00  0.00    +0.000 C 
ENDBRANCH   7  14
ENDBRANCH   1  12
BRANCH   5  15
ATOM     15  C   UNL     1       6.328   5.700  15.944  0.00  0.00    +0.000 C 
BRANCH  15  16
ATOM     16  N   UNL     1       6.345   5.292  14.523  0.00  0.00    +0.000 NA
ATOM     17  C   UNL     1       7.681   4.942  14.042  0.00  0.00    +0.000 C 
ATOM     18  C   UNL     1       7.823   5.288  12.560  0.00  0.00    +0.000 C 
ATOM     19  C   UNL     1       7.270   4.235  11.612  0.00  0.00    +0.000 C 
ATOM     20  C   UNL     1       5.790   3.924  11.803  0.00  0.00    +0.000 C 
ATOM     21  C   UNL     1       5.496   3.272  13.148  0.00  0.00    +0.000 C 
ATOM     22  C   UNL     1       5.320   4.256  14.309  0.00  0.00    +0.000 C 
ENDBRANCH  15  16
ENDBRANCH   5  15
TORSDOF 4
ENDMDL
