MODEL 1
REMARK VINA RESULT:      -6.5      0.000      0.000
REMARK  Name = 
REMARK  4 active torsions:
REMARK  status: ('A' for Active; 'I' for Inactive)
REMARK    1  A    between atoms: C_1  and  O_2
REMARK    2  A    between atoms: O_2  and  C_3
REMARK    3  A    between atoms: C_18  and  O_19
REMARK    4  A    between atoms: O_19  and  C_20
REMARK                            x       y       z     vdW  Elec       q    Type
REMARK                         _______ _______ _______ _____ _____    ______ ____
ROOT
ATOM      1  C   UNL     1       2.575   6.660  19.133  0.00  0.00    +0.000 A 
ATOM      2  C   UNL     1       2.519   7.382  17.943  0.00  0.00    +0.000 A 
ATOM      3  C   UNL     1       2.037   8.778  17.896  0.00  0.00    +0.000 A 
ATOM      4  C   UNL     1       1.552   9.442  19.045  0.00  0.00    +0.000 A 
ATOM      5  C   UNL     1       1.438   8.541  20.138  0.00  0.00    +0.000 A 
ATOM      6  C   UNL     1       2.025   7.264  20.229  0.00  0.00    +0.000 A 
ATOM      7  C   UNL     1       0.439   8.818  21.215  0.00  0.00    +0.000 C 
ATOM      8  C   UNL     1       0.748  10.225  21.623  0.00  0.00    +0.000 C 
ATOM      9  N   UNL     1       0.235  11.084  20.575  0.00  0.00    +0.000 NA
ATOM     10  C   UNL     1      -1.228  11.174  20.635  0.00  0.00    +0.000 C 
ATOM     11  C   UNL     1      -1.639  12.607  20.397  0.00  0.00    +0.000 C 
ATOM     12  C   UNL     1      -1.379  12.965  18.943  0.00  0.00    +0.000 C 
ATOM     13  C   UNL     1       0.083  13.322  18.750  0.00  0.00    +0.000 A 
ATOM     14  C   UNL     1       0.295  14.728  18.751  0.00  0.00    +0.000 A 
ATOM     15  C   UNL     1       1.571  15.238  18.789  0.00  0.00    +0.000 A 
ATOM     16  C   UNL     1       2.658  14.368  18.783  0.00  0.00    +0.000 A 
ATOM     17  C   UNL     1       2.489  12.942  18.788  0.00  0.00    +0.000 A 
ATOM     18  C   UNL     1       1.183  12.365  18.783  0.00  0.00    +0.000 A 
ATOM     19  C   UNL     1       0.781  10.864  19.180  0.00  0.00    +0.000 C 
ENDROOT
BRANCH   1  21
ATOM     20  C   UNL     1       2.304   4.637  20.480  0.00  0.00    +0.000 C 
ATOM     21  O   UNL     1       2.861   5.362  19.410  0.00  0.00    +0.000 OA
ENDBRANCH   1  21
BRANCH  16  22
ATOM     22  O   UNL     1       3.793  15.121  18.805  0.00  0.00    +0.000 OA
ATOM     23  C   UNL     1       4.836  14.900  17.870  0.00  0.00    +0.000 C 
ENDBRANCH  16  22
TORSDOF 2
ENDMDL
MODEL 2
REMARK VINA RESULT:      -6.4      3.551      5.572
REMARK  Name = 
REMARK  4 active torsions:
REMARK  status: ('A' for Active; 'I' for Inactive)
REMARK    1  A    between atoms: C_1  and  O_2
REMARK    2  A    between atoms: O_2  and  C_3
REMARK    3  A    between atoms: C_18  and  O_19
REMARK    4  A    between atoms: O_19  and  C_20
REMARK                            x       y       z     vdW  Elec       q    Type
REMARK                         _______ _______ _______ _____ _____    ______ ____
ROOT
ATOM      1  C   UNL     1       1.426   8.408  20.143  0.00  0.00    +0.000 A 
ATOM      2  C   UNL     1       1.423   8.539  21.530  0.00  0.00    +0.000 A 
ATOM      3  C   UNL     1       0.774   9.681  22.206  0.00  0.00    +0.000 A 
ATOM      4  C   UNL     1       0.169  10.735  21.484  0.00  0.00    +0.000 A 
ATOM      5  C   UNL     1       0.438  10.613  20.095  0.00  0.00    +0.000 A 
ATOM      6  C   UNL     1       0.923   9.465  19.438  0.00  0.00    +0.000 A 
ATOM      7  C   UNL     1       0.444  11.839  19.239  0.00  0.00    +0.000 C 
ATOM      8  C   UNL     1      -0.873  12.482  19.545  0.00  0.00    +0.000 C 
ATOM      9  N   UNL     1      -0.746  13.088  20.854  0.00  0.00    +0.000 NA
ATOM     10  C   UNL     1       0.066  14.309  20.795  0.00  0.00    +0.000 C 
ATOM     11  C   UNL     1      -0.578  15.365  21.660  0.00  0.00    +0.000 C 
ATOM     12  C   UNL     1      -0.422  14.976  23.121  0.00  0.00    +0.000 C 
ATOM     13  C   UNL     1      -1.490  13.969  23.506  0.00  0.00    +0.000 A 
ATOM     14  C   UNL     1      -2.588  14.582  24.168  0.00  0.00    +0.000 A 
ATOM     15  C   UNL     1      -3.736  13.867  24.414  0.00  0.00    +0.000 A 
ATOM     16  C   UNL     1      -3.802  12.525  24.050  0.00  0.00    +0.000 A 
ATOM     17  C   UNL     1      -2.717  11.869  23.375  0.00  0.00    +0.000 A 
ATOM     18  C   UNL     1      -1.517  12.578  23.067  0.00  0.00    +0.000 A 
ATOM     19  C   UNL     1      -0.389  12.168  22.003  0.00  0.00    +0.000 C 
ENDROOT
BRANCH   1  21
ATOM     20  C   UNL     1       2.548   6.282  19.693  0.00  0.00    +0.000 C 
ATOM     21  O   UNL     1       2.038   7.535  19.302  0.00  0.00    +0.000 OA
ENDBRANCH   1  21
BRANCH  16  22
ATOM     22  O   UNL     1      -5.024  12.052  24.420  0.00  0.00    +0.000 OA
ATOM     23  C   UNL     1      -6.213  12.737  24.063  0.00  0.00    +0.000 C 
ENDBRANCH  16  22
TORSDOF 2
ENDMDL
MODEL 3
REMARK VINA RESULT:      -6.3      1.872      2.135
REMARK  Name = 
REMARK  4 active torsions:
REMARK  status: ('A' for Active; 'I' for Inactive)
REMARK    1  A    between atoms: C_1  and  O_2
REMARK    2  A    between atoms: O_2  and  C_3
REMARK    3  A    between atoms: C_18  and  O_19
REMARK    4  A    between atoms: O_19  and  C_20
REMARK                            x       y       z     vdW  Elec       q    Type
REMARK                         _______ _______ _______ _____ _____    ______ ____
ROOT
ATOM      1  C   UNL     1       2.376   7.251  18.266  0.00  0.00    +0.000 A 
ATOM      2  C   UNL     1       1.912   8.356  17.554  0.00  0.00    +0.000 A 
ATOM      3  C   UNL     1       1.415   9.570  18.233  0.00  0.00    +0.000 A 
ATOM      4  C   UNL     1       1.331   9.662  19.641  0.00  0.00    +0.000 A 
ATOM      5  C   UNL     1       1.606   8.405  20.245  0.00  0.00    +0.000 A 
ATOM      6  C   UNL     1       2.213   7.297  19.622  0.00  0.00    +0.000 A 
ATOM      7  C   UNL     1       1.019   8.091  21.583  0.00  0.00    +0.000 C 
ATOM      8  C   UNL     1       1.420   9.264  22.422  0.00  0.00    +0.000 C 
ATOM      9  N   UNL     1       0.570  10.369  22.027  0.00  0.00    +0.000 NA
ATOM     10  C   UNL     1      -0.790  10.202  22.551  0.00  0.00    +0.000 C 
ATOM     11  C   UNL     1      -1.284  11.535  23.059  0.00  0.00    +0.000 C 
ATOM     12  C   UNL     1      -1.532  12.458  21.877  0.00  0.00    +0.000 C 
ATOM     13  C   UNL     1      -0.226  13.082  21.423  0.00  0.00    +0.000 A 
ATOM     14  C   UNL     1      -0.053  14.395  21.940  0.00  0.00    +0.000 A 
ATOM     15  C   UNL     1       1.152  15.042  21.803  0.00  0.00    +0.000 A 
ATOM     16  C   UNL     1       2.191  14.420  21.116  0.00  0.00    +0.000 A 
ATOM     17  C   UNL     1       2.061  13.092  20.583  0.00  0.00    +0.000 A 
ATOM     18  C   UNL     1       0.840  12.367  20.729  0.00  0.00    +0.000 A 
ATOM     19  C   UNL     1       0.622  10.786  20.572  0.00  0.00    +0.000 C 
ENDROOT
BRANCH   1  21
ATOM     20  C   UNL     1       4.054   5.682  17.427  0.00  0.00    +0.000 C 
ATOM     21  O   UNL     1       2.763   6.007  17.884  0.00  0.00    +0.000 OA
ENDBRANCH   1  21
BRANCH  16  22
ATOM     22  O   UNL     1       3.254  15.272  21.107  0.00  0.00    +0.000 OA
ATOM     23  C   UNL     1       4.557  14.814  20.789  0.00  0.00    +0.000 C 
ENDBRANCH  16  22
TORSDOF 2
ENDMDL
MODEL 4
REMARK VINA RESULT:      -6.3      3.940      5.750
REMARK  Name = 
REMARK  4 active torsions:
REMARK  status: ('A' for Active; 'I' for Inactive)
REMARK    1  A    between atoms: C_1  and  O_2
REMARK    2  A    between atoms: O_2  and  C_3
REMARK    3  A    between atoms: C_18  and  O_19
REMARK    4  A    between atoms: O_19  and  C_20
REMARK                            x       y       z     vdW  Elec       q    Type
REMARK                         _______ _______ _______ _____ _____    ______ ____
ROOT
ATOM      1  C   UNL     1      -3.779  10.759  15.922  0.00  0.00    +0.000 A 
ATOM      2  C   UNL     1      -4.627  11.296  16.888  0.00  0.00    +0.000 A 
ATOM      3  C   UNL     1      -4.131  11.730  18.210  0.00  0.00    +0.000 A 
ATOM      4  C   UNL     1      -2.779  11.575  18.592  0.00  0.00    +0.000 A 
ATOM      5  C   UNL     1      -2.068  10.812  17.628  0.00  0.00    +0.000 A 
ATOM      6  C   UNL     1      -2.492  10.524  16.316  0.00  0.00    +0.000 A 
ATOM      7  C   UNL     1      -0.869  10.027  18.054  0.00  0.00    +0.000 C 
ATOM      8  C   UNL     1      -0.025  11.041  18.763  0.00  0.00    +0.000 C 
ATOM      9  N   UNL     1      -0.646  11.272  20.051  0.00  0.00    +0.000 NA
ATOM     10  C   UNL     1      -0.413  10.145  20.960  0.00  0.00    +0.000 C 
ATOM     11  C   UNL     1      -0.088  10.683  22.333  0.00  0.00    +0.000 C 
ATOM     12  C   UNL     1      -1.341  11.296  22.936  0.00  0.00    +0.000 C 
ATOM     13  C   UNL     1      -1.542  12.702  22.399  0.00  0.00    +0.000 A 
ATOM     14  C   UNL     1      -1.067  13.691  23.304  0.00  0.00    +0.000 A 
ATOM     15  C   UNL     1      -0.980  15.005  22.910  0.00  0.00    +0.000 A 
ATOM     16  C   UNL     1      -1.400  15.370  21.634  0.00  0.00    +0.000 A 
ATOM     17  C   UNL     1      -1.881  14.402  20.688  0.00  0.00    +0.000 A 
ATOM     18  C   UNL     1      -1.958  13.020  21.038  0.00  0.00    +0.000 A 
ATOM     19  C   UNL     1      -2.077  11.768  20.042  0.00  0.00    +0.000 C 
ENDROOT
BRANCH   1  21
ATOM     20  C   UNL     1      -3.005   9.924  13.757  0.00  0.00    +0.000 C 
ATOM     21  O   UNL     1      -4.007  10.194  14.709  0.00  0.00    +0.000 OA
ENDBRANCH   1  21
BRANCH  16  22
ATOM     22  O   UNL     1      -1.229  16.715  21.508  0.00  0.00    +0.000 OA
ATOM     23  C   UNL     1      -2.095  17.491  20.697  0.00  0.00    +0.000 C 
ENDBRANCH  16  22
TORSDOF 2
ENDMDL
MODEL 5
REMARK VINA RESULT:      -6.2      4.761      7.108
REMARK  Name = 
REMARK  4 active torsions:
REMARK  status: ('A' for Active; 'I' for Inactive)
REMARK    1  A    between atoms: C_1  and  O_2
REMARK    2  A    between atoms: O_2  and  C_3
REMARK    3  A    between atoms: C_18  and  O_19
REMARK    4  A    between atoms: O_19  and  C_20
REMARK                            x       y       z     vdW  Elec       q    Type
REMARK                         _______ _______ _______ _____ _____    ______ ____
ROOT
ATOM      1  C   UNL     1       0.420  11.052  19.004  0.00  0.00    +0.000 A 
ATOM      2  C   UNL     1       0.085  12.267  19.599  0.00  0.00    +0.000 A 
ATOM      3  C   UNL     1      -1.315  12.723  19.709  0.00  0.00    +0.000 A 
ATOM      4  C   UNL     1      -2.391  11.982  19.168  0.00  0.00    +0.000 A 
ATOM      5  C   UNL     1      -1.911  10.895  18.389  0.00  0.00    +0.000 A 
ATOM      6  C   UNL     1      -0.602  10.376  18.400  0.00  0.00    +0.000 A 
ATOM      7  C   UNL     1      -2.757  10.361  17.278  0.00  0.00    +0.000 C 
ATOM      8  C   UNL     1      -4.073  10.095  17.939  0.00  0.00    +0.000 C 
ATOM      9  N   UNL     1      -4.705  11.383  18.141  0.00  0.00    +0.000 NA
ATOM     10  C   UNL     1      -5.220  11.922  16.878  0.00  0.00    +0.000 C 
ATOM     11  C   UNL     1      -6.580  12.529  17.124  0.00  0.00    +0.000 C 
ATOM     12  C   UNL     1      -6.418  13.798  17.945  0.00  0.00    +0.000 C 
ATOM     13  C   UNL     1      -6.273  13.451  19.415  0.00  0.00    +0.000 A 
ATOM     14  C   UNL     1      -7.500  13.592  20.119  0.00  0.00    +0.000 A 
ATOM     15  C   UNL     1      -7.615  13.135  21.410  0.00  0.00    +0.000 A 
ATOM     16  C   UNL     1      -6.509  12.571  22.040  0.00  0.00    +0.000 A 
ATOM     17  C   UNL     1      -5.253  12.405  21.363  0.00  0.00    +0.000 A 
ATOM     18  C   UNL     1      -5.094  12.834  20.011  0.00  0.00    +0.000 A 
ATOM     19  C   UNL     1      -3.949  12.393  18.978  0.00  0.00    +0.000 C 
ENDROOT
BRANCH   1  21
ATOM     20  C   UNL     1       1.755   9.369  17.834  0.00  0.00    +0.000 C 
ATOM     21  O   UNL     1       1.611  10.481  18.685  0.00  0.00    +0.000 OA
ENDBRANCH   1  21
BRANCH  16  22
ATOM     22  O   UNL     1      -6.881  12.223  23.303  0.00  0.00    +0.000 OA
ATOM     23  C   UNL     1      -7.457  13.172  24.185  0.00  0.00    +0.000 C 
ENDBRANCH  16  22
TORSDOF 2
ENDMDL
MODEL 6
REMARK VINA RESULT:      -6.1      3.244      6.545
REMARK  Name = 
REMARK  4 active torsions:
REMARK  status: ('A' for Active; 'I' for Inactive)
REMARK    1  A    between atoms: C_1  and  O_2
REMARK    2  A    between atoms: O_2  and  C_3
REMARK    3  A    between atoms: C_18  and  O_19
REMARK    4  A    between atoms: O_19  and  C_20
REMARK                            x       y       z     vdW  Elec       q    Type
REMARK                         _______ _______ _______ _____ _____    ______ ____
ROOT
ATOM      1  C   UNL     1       2.353  14.191  19.229  0.00  0.00    +0.000 A 
ATOM      2  C   UNL     1       1.278  15.010  18.891  0.00  0.00    +0.000 A 
ATOM      3  C   UNL     1      -0.103  14.492  18.806  0.00  0.00    +0.000 A 
ATOM      4  C   UNL     1      -0.406  13.126  19.008  0.00  0.00    +0.000 A 
ATOM      5  C   UNL     1       0.784  12.357  19.112  0.00  0.00    +0.000 A 
ATOM      6  C   UNL     1       2.082  12.856  19.337  0.00  0.00    +0.000 A 
ATOM      7  C   UNL     1       0.758  10.911  18.732  0.00  0.00    +0.000 C 
ATOM      8  C   UNL     1      -0.385  10.363  19.528  0.00  0.00    +0.000 C 
ATOM      9  N   UNL     1      -1.599  10.817  18.879  0.00  0.00    +0.000 NA
ATOM     10  C   UNL     1      -1.843  10.075  17.638  0.00  0.00    +0.000 C 
ATOM     11  C   UNL     1      -3.314   9.743  17.549  0.00  0.00    +0.000 C 
ATOM     12  C   UNL     1      -4.097  11.020  17.291  0.00  0.00    +0.000 C 
ATOM     13  C   UNL     1      -4.314  11.768  18.593  0.00  0.00    +0.000 A 
ATOM     14  C   UNL     1      -5.604  11.524  19.140  0.00  0.00    +0.000 A 
ATOM     15  C   UNL     1      -5.911  11.952  20.410  0.00  0.00    +0.000 A 
ATOM     16  C   UNL     1      -4.965  12.665  21.141  0.00  0.00    +0.000 A 
ATOM     17  C   UNL     1      -3.650  12.929  20.628  0.00  0.00    +0.000 A 
ATOM     18  C   UNL     1      -3.272  12.475  19.329  0.00  0.00    +0.000 A 
ATOM     19  C   UNL     1      -1.786  12.314  18.747  0.00  0.00    +0.000 C 
ENDROOT
BRANCH   1  21
ATOM     20  C   UNL     1       4.487  14.632  18.117  0.00  0.00    +0.000 C 
ATOM     21  O   UNL     1       3.695  14.400  19.258  0.00  0.00    +0.000 OA
ENDBRANCH   1  21
BRANCH  16  22
ATOM     22  O   UNL     1      -5.523  12.985  22.343  0.00  0.00    +0.000 OA
ATOM     23  C   UNL     1      -4.773  12.901  23.543  0.00  0.00    +0.000 C 
ENDBRANCH  16  22
TORSDOF 2
ENDMDL
MODEL 7
REMARK VINA RESULT:      -6.1      7.722      9.762
REMARK  Name = 
REMARK  4 active torsions:
REMARK  status: ('A' for Active; 'I' for Inactive)
REMARK    1  A    between atoms: C_1  and  O_2
REMARK    2  A    between atoms: O_2  and  C_3
REMARK    3  A    between atoms: C_18  and  O_19
REMARK    4  A    between atoms: O_19  and  C_20
REMARK                            x       y       z     vdW  Elec       q    Type
REMARK                         _______ _______ _______ _____ _____    ______ ____
ROOT
ATOM      1  C   UNL     1       9.414  12.438  18.948  0.00  0.00    +0.000 A 
ATOM      2  C   UNL     1       9.751  11.420  19.839  0.00  0.00    +0.000 A 
ATOM      3  C   UNL     1       9.400  11.489  21.272  0.00  0.00    +0.000 A 
ATOM      4  C   UNL     1       8.754  12.613  21.834  0.00  0.00    +0.000 A 
ATOM      5  C   UNL     1       8.674  13.672  20.889  0.00  0.00    +0.000 A 
ATOM      6  C   UNL     1       8.871  13.564  19.499  0.00  0.00    +0.000 A 
ATOM      7  C   UNL     1       8.604  15.084  21.375  0.00  0.00    +0.000 C 
ATOM      8  C   UNL     1       7.470  15.059  22.352  0.00  0.00    +0.000 C 
ATOM      9  N   UNL     1       7.963  14.405  23.546  0.00  0.00    +0.000 NA
ATOM     10  C   UNL     1       8.859  15.288  24.301  0.00  0.00    +0.000 C 
ATOM     11  C   UNL     1       8.548  15.157  25.773  0.00  0.00    +0.000 C 
ATOM     12  C   UNL     1       9.002  13.789  26.257  0.00  0.00    +0.000 C 
ATOM     13  C   UNL     1       7.958  12.744  25.913  0.00  0.00    +0.000 A 
ATOM     14  C   UNL     1       7.115  12.448  27.020  0.00  0.00    +0.000 A 
ATOM     15  C   UNL     1       5.990  11.677  26.847  0.00  0.00    +0.000 A 
ATOM     16  C   UNL     1       5.703  11.151  25.590  0.00  0.00    +0.000 A 
ATOM     17  C   UNL     1       6.525  11.430  24.446  0.00  0.00    +0.000 A 
ATOM     18  C   UNL     1       7.686  12.252  24.567  0.00  0.00    +0.000 A 
ATOM     19  C   UNL     1       8.483  12.991  23.388  0.00  0.00    +0.000 C 
ENDROOT
BRANCH   1  21
ATOM     20  C   UNL     1      10.973  13.104  17.184  0.00  0.00    +0.000 C 
ATOM     21  O   UNL     1       9.719  12.656  17.643  0.00  0.00    +0.000 OA
ENDBRANCH   1  21
BRANCH  16  22
ATOM     22  O   UNL     1       4.560  10.418  25.696  0.00  0.00    +0.000 OA
ATOM     23  C   UNL     1       4.013  10.093  26.963  0.00  0.00    +0.000 C 
ENDBRANCH  16  22
TORSDOF 2
ENDMDL
MODEL 8
REMARK VINA RESULT:      -5.9      3.855      6.051
REMARK  Name = 
REMARK  4 active torsions:
REMARK  status: ('A' for Active; 'I' for Inactive)
REMARK    1  A    between atoms: C_1  and  O_2
REMARK    2  A    between atoms: O_2  and  C_3
REMARK    3  A    between atoms: C_18  and  O_19
REMARK    4  A    between atoms: O_19  and  C_20
REMARK                            x       y       z     vdW  Elec       q    Type
REMARK                         _______ _______ _______ _____ _____    ______ ____
ROOT
ATOM      1  C   UNL     1       1.065   8.887  20.341  0.00  0.00    +0.000 A 
ATOM      2  C   UNL     1       0.532   8.701  21.614  0.00  0.00    +0.000 A 
ATOM      3  C   UNL     1      -0.202   9.773  22.319  0.00  0.00    +0.000 A 
ATOM      4  C   UNL     1      -0.357  11.064  21.766  0.00  0.00    +0.000 A 
ATOM      5  C   UNL     1       0.420  11.204  20.585  0.00  0.00    +0.000 A 
ATOM      6  C   UNL     1       0.997  10.157  19.840  0.00  0.00    +0.000 A 
ATOM      7  C   UNL     1       0.895  12.561  20.176  0.00  0.00    +0.000 C 
ATOM      8  C   UNL     1      -0.358  13.381  20.173  0.00  0.00    +0.000 C 
ATOM      9  N   UNL     1      -0.690  13.637  21.560  0.00  0.00    +0.000 NA
ATOM     10  C   UNL     1       0.207  14.642  22.141  0.00  0.00    +0.000 C 
ATOM     11  C   UNL     1      -0.606  15.588  22.991  0.00  0.00    +0.000 C 
ATOM     12  C   UNL     1      -1.080  14.858  24.236  0.00  0.00    +0.000 C 
ATOM     13  C   UNL     1      -2.315  14.036  23.918  0.00  0.00    +0.000 A 
ATOM     14  C   UNL     1      -3.512  14.702  24.300  0.00  0.00    +0.000 A 
ATOM     15  C   UNL     1      -4.735  14.207  23.914  0.00  0.00    +0.000 A 
ATOM     16  C   UNL     1      -4.797  13.025  23.181  0.00  0.00    +0.000 A 
ATOM     17  C   UNL     1      -3.612  12.324  22.769  0.00  0.00    +0.000 A 
ATOM     18  C   UNL     1      -2.319  12.817  23.118  0.00  0.00    +0.000 A 
ATOM     19  C   UNL     1      -0.915  12.429  22.445  0.00  0.00    +0.000 C 
ENDROOT
BRANCH   1  21
ATOM     20  C   UNL     1       2.176   8.411  18.214  0.00  0.00    +0.000 C 
ATOM     21  O   UNL     1       1.860   8.116  19.554  0.00  0.00    +0.000 OA
ENDBRANCH   1  21
BRANCH  16  22
ATOM     22  O   UNL     1      -6.110  12.748  22.947  0.00  0.00    +0.000 OA
ATOM     23  C   UNL     1      -7.048  12.698  24.009  0.00  0.00    +0.000 C 
ENDBRANCH  16  22
TORSDOF 2
ENDMDL
MODEL 9
REMARK VINA RESULT:      -5.7      3.513      6.131
REMARK  Name = 
REMARK  4 active torsions:
REMARK  status: ('A' for Active; 'I' for Inactive)
REMARK    1  A    between atoms: C_1  and  O_2
REMARK    2  A    between atoms: O_2  and  C_3
REMARK    3  A    between atoms: C_18  and  O_19
REMARK    4  A    between atoms: O_19  and  C_20
REMARK                            x       y       z     vdW  Elec       q    Type
REMARK                         _______ _______ _______ _____ _____    ______ ____
ROOT
ATOM      1  C   UNL     1      -5.940  12.435  20.255  0.00  0.00    +0.000 A 
ATOM      2  C   UNL     1      -5.027  12.811  21.238  0.00  0.00    +0.000 A 
ATOM      3  C   UNL     1      -3.570  12.806  20.994  0.00  0.00    +0.000 A 
ATOM      4  C   UNL     1      -3.015  12.369  19.769  0.00  0.00    +0.000 A 
ATOM      5  C   UNL     1      -4.016  11.795  18.940  0.00  0.00    +0.000 A 
ATOM      6  C   UNL     1      -5.409  11.926  19.103  0.00  0.00    +0.000 A 
ATOM      7  C   UNL     1      -3.628  10.766  17.927  0.00  0.00    +0.000 C 
ATOM      8  C   UNL     1      -2.521  11.428  17.167  0.00  0.00    +0.000 C 
ATOM      9  N   UNL     1      -1.352  11.395  18.022  0.00  0.00    +0.000 NA
ATOM     10  C   UNL     1      -0.777  10.046  18.080  0.00  0.00    +0.000 C 
ATOM     11  C   UNL     1       0.727  10.153  18.005  0.00  0.00    +0.000 C 
ATOM     12  C   UNL     1       1.249  10.753  19.300  0.00  0.00    +0.000 C 
ATOM     13  C   UNL     1       1.111  12.264  19.263  0.00  0.00    +0.000 A 
ATOM     14  C   UNL     1       2.330  12.903  18.906  0.00  0.00    +0.000 A 
ATOM     15  C   UNL     1       2.352  14.249  18.627  0.00  0.00    +0.000 A 
ATOM     16  C   UNL     1       1.181  14.993  18.739  0.00  0.00    +0.000 A 
ATOM     17  C   UNL     1      -0.073  14.386  19.092  0.00  0.00    +0.000 A 
ATOM     18  C   UNL     1      -0.153  12.986  19.358  0.00  0.00    +0.000 A 
ATOM     19  C   UNL     1      -1.471  12.071  19.371  0.00  0.00    +0.000 C 
ENDROOT
BRANCH   1  21
ATOM     20  C   UNL     1      -7.917  11.065  20.702  0.00  0.00    +0.000 C 
ATOM     21  O   UNL     1      -7.285  12.248  20.272  0.00  0.00    +0.000 OA
ENDBRANCH   1  21
BRANCH  16  22
ATOM     22  O   UNL     1       1.478  16.286  18.431  0.00  0.00    +0.000 OA
ATOM     23  C   UNL     1       2.686  16.623  17.770  0.00  0.00    +0.000 C 
ENDBRANCH  16  22
TORSDOF 2
ENDMDL
