MODEL 1
REMARK VINA RESULT:      -6.9      0.000      0.000
REMARK  Name = 
REMARK  3 active torsions:
REMARK  status: ('A' for Active; 'I' for Inactive)
REMARK    1  A    between atoms: N_1  and  C_2
REMARK    2  A    between atoms: C_7  and  C_8
REMARK    3  A    between atoms: C_8  and  N_9
REMARK                            x       y       z     vdW  Elec       q    Type
REMARK                         _______ _______ _______ _____ _____    ______ ____
ROOT
ATOM      1  C   UNL     1       7.443   7.648  17.778  0.00  0.00    +0.000 A 
ATOM      2  C   UNL     1       8.206   6.908  18.693  0.00  0.00    +0.000 A 
ATOM      3  C   UNL     1       7.798   5.651  19.156  0.00  0.00    +0.000 A 
ATOM      4  C   UNL     1       6.628   5.135  18.607  0.00  0.00    +0.000 A 
ATOM      5  N   UNL     1       5.948   3.959  18.789  0.00  0.00    +0.000 N 
ATOM      6  C   UNL     1       4.832   3.965  17.986  0.00  0.00    +0.000 A 
ATOM      7  N   UNL     1       4.765   5.078  17.285  0.00  0.00    +0.000 NA
ATOM      8  C   UNL     1       5.865   5.814  17.657  0.00  0.00    +0.000 A 
ATOM      9  C   UNL     1       6.286   7.079  17.226  0.00  0.00    +0.000 A 
ATOM     10  H   UNL     1       6.175   3.232  19.454  0.00  0.00    +0.000 HD
ENDROOT
BRANCH   1  11
ATOM     11  N   UNL     1       7.960   8.836  17.241  0.00  0.00    +0.000 N 
ATOM     12  H   UNL     1       8.693   9.258  17.798  0.00  0.00    +0.000 HD
ATOM     13  H   UNL     1       7.245   9.502  16.968  0.00  0.00    +0.000 HD
ENDBRANCH   1  11
BRANCH   6  14
ATOM     14  C   UNL     1       3.834   2.844  18.048  0.00  0.00    +0.000 C 
BRANCH  14  15
ATOM     15  N   UNL     1       2.899   3.102  19.142  0.00  0.00    +0.000 NA
ATOM     16  C   UNL     1       1.554   2.545  18.880  0.00  0.00    +0.000 C 
ATOM     17  C   UNL     1       0.601   3.112  19.939  0.00  0.00    +0.000 C 
ATOM     18  O   UNL     1       1.014   2.724  21.259  0.00  0.00    +0.000 OA
ATOM     19  C   UNL     1       2.367   3.140  21.518  0.00  0.00    +0.000 C 
ATOM     20  C   UNL     1       3.343   2.604  20.452  0.00  0.00    +0.000 C 
ENDBRANCH  14  15
ENDBRANCH   6  14
TORSDOF 3
ENDMDL
MODEL 2
REMARK VINA RESULT:      -6.7      2.822      6.439
REMARK  Name = 
REMARK  3 active torsions:
REMARK  status: ('A' for Active; 'I' for Inactive)
REMARK    1  A    between atoms: N_1  and  C_2
REMARK    2  A    between atoms: C_7  and  C_8
REMARK    3  A    between atoms: C_8  and  N_9
REMARK                            x       y       z     vdW  Elec       q    Type
REMARK                         _______ _______ _______ _____ _____    ______ ____
ROOT
ATOM      1  C   UNL     1       1.305   3.158  21.073  0.00  0.00    +0.000 A 
ATOM      2  C   UNL     1       0.839   2.615  19.866  0.00  0.00    +0.000 A 
ATOM      3  C   UNL     1       1.233   3.123  18.622  0.00  0.00    +0.000 A 
ATOM      4  C   UNL     1       2.171   4.150  18.637  0.00  0.00    +0.000 A 
ATOM      5  N   UNL     1       2.795   4.862  17.646  0.00  0.00    +0.000 N 
ATOM      6  C   UNL     1       3.640   5.779  18.226  0.00  0.00    +0.000 A 
ATOM      7  N   UNL     1       3.603   5.686  19.539  0.00  0.00    +0.000 NA
ATOM      8  C   UNL     1       2.699   4.686  19.812  0.00  0.00    +0.000 A 
ATOM      9  C   UNL     1       2.272   4.173  21.044  0.00  0.00    +0.000 A 
ATOM     10  H   UNL     1       2.618   4.790  16.653  0.00  0.00    +0.000 HD
ENDROOT
BRANCH   1  11
ATOM     11  N   UNL     1       0.991   2.528  22.286  0.00  0.00    +0.000 N 
ATOM     12  H   UNL     1       1.548   2.841  23.072  0.00  0.00    +0.000 HD
ATOM     13  H   UNL     1       0.945   1.517  22.218  0.00  0.00    +0.000 HD
ENDBRANCH   1  11
BRANCH   6  14
ATOM     14  C   UNL     1       4.386   6.776  17.386  0.00  0.00    +0.000 C 
BRANCH  14  15
ATOM     15  N   UNL     1       5.655   6.185  16.966  0.00  0.00    +0.000 NA
ATOM     16  C   UNL     1       6.199   5.239  17.965  0.00  0.00    +0.000 C 
ATOM     17  C   UNL     1       7.639   4.908  17.559  0.00  0.00    +0.000 C 
ATOM     18  O   UNL     1       7.676   4.286  16.265  0.00  0.00    +0.000 OA
ATOM     19  C   UNL     1       7.047   5.120  15.275  0.00  0.00    +0.000 C 
ATOM     20  C   UNL     1       5.605   5.489  15.672  0.00  0.00    +0.000 C 
ENDBRANCH  14  15
ENDBRANCH   6  14
TORSDOF 3
ENDMDL
MODEL 3
REMARK VINA RESULT:      -6.6      0.664      1.206
REMARK  Name = 
REMARK  3 active torsions:
REMARK  status: ('A' for Active; 'I' for Inactive)
REMARK    1  A    between atoms: N_1  and  C_2
REMARK    2  A    between atoms: C_7  and  C_8
REMARK    3  A    between atoms: C_8  and  N_9
REMARK                            x       y       z     vdW  Elec       q    Type
REMARK                         _______ _______ _______ _____ _____    ______ ____
ROOT
ATOM      1  C   UNL     1       7.296   7.392  17.742  0.00  0.00    +0.000 A 
ATOM      2  C   UNL     1       8.022   6.609  18.653  0.00  0.00    +0.000 A 
ATOM      3  C   UNL     1       7.570   5.356  19.081  0.00  0.00    +0.000 A 
ATOM      4  C   UNL     1       6.394   4.887  18.504  0.00  0.00    +0.000 A 
ATOM      5  N   UNL     1       5.677   3.729  18.650  0.00  0.00    +0.000 N 
ATOM      6  C   UNL     1       4.574   3.785  17.831  0.00  0.00    +0.000 A 
ATOM      7  N   UNL     1       4.551   4.914  17.153  0.00  0.00    +0.000 NA
ATOM      8  C   UNL     1       5.666   5.609  17.557  0.00  0.00    +0.000 A 
ATOM      9  C   UNL     1       6.132   6.869  17.160  0.00  0.00    +0.000 A 
ATOM     10  H   UNL     1       5.871   2.981  19.303  0.00  0.00    +0.000 HD
ENDROOT
BRANCH   1  11
ATOM     11  N   UNL     1       7.857   8.574  17.239  0.00  0.00    +0.000 N 
ATOM     12  H   UNL     1       7.203   9.344  17.164  0.00  0.00    +0.000 HD
ATOM     13  H   UNL     1       8.397   8.438  16.391  0.00  0.00    +0.000 HD
ENDBRANCH   1  11
BRANCH   6  14
ATOM     14  C   UNL     1       3.542   2.694  17.854  0.00  0.00    +0.000 C 
BRANCH  14  15
ATOM     15  N   UNL     1       2.705   2.858  19.040  0.00  0.00    +0.000 NA
ATOM     16  C   UNL     1       3.460   2.664  20.298  0.00  0.00    +0.000 C 
ATOM     17  C   UNL     1       2.444   2.577  21.443  0.00  0.00    +0.000 C 
ATOM     18  O   UNL     1       1.681   3.790  21.543  0.00  0.00    +0.000 OA
ATOM     19  C   UNL     1       1.021   4.087  20.299  0.00  0.00    +0.000 C 
ATOM     20  C   UNL     1       2.018   4.155  19.126  0.00  0.00    +0.000 C 
ENDBRANCH  14  15
ENDBRANCH   6  14
TORSDOF 3
ENDMDL
MODEL 4
REMARK VINA RESULT:      -6.5      4.553      5.882
REMARK  Name = 
REMARK  3 active torsions:
REMARK  status: ('A' for Active; 'I' for Inactive)
REMARK    1  A    between atoms: N_1  and  C_2
REMARK    2  A    between atoms: C_7  and  C_8
REMARK    3  A    between atoms: C_8  and  N_9
REMARK                            x       y       z     vdW  Elec       q    Type
REMARK                         _______ _______ _______ _____ _____    ______ ____
ROOT
ATOM      1  C   UNL     1       0.804  10.048  18.796  0.00  0.00    +0.000 A 
ATOM      2  C   UNL     1       0.574   9.759  20.150  0.00  0.00    +0.000 A 
ATOM      3  C   UNL     1       1.077   8.604  20.759  0.00  0.00    +0.000 A 
ATOM      4  C   UNL     1       1.883   7.785  19.974  0.00  0.00    +0.000 A 
ATOM      5  N   UNL     1       2.554   6.617  20.222  0.00  0.00    +0.000 N 
ATOM      6  C   UNL     1       3.203   6.227  19.074  0.00  0.00    +0.000 A 
ATOM      7  N   UNL     1       2.995   7.091  18.102  0.00  0.00    +0.000 NA
ATOM      8  C   UNL     1       2.179   8.059  18.638  0.00  0.00    +0.000 A 
ATOM      9  C   UNL     1       1.646   9.212  18.047  0.00  0.00    +0.000 A 
ATOM     10  H   UNL     1       2.527   6.080  21.078  0.00  0.00    +0.000 HD
ENDROOT
BRANCH   1  11
ATOM     11  N   UNL     1       0.397  11.281  18.268  0.00  0.00    +0.000 N 
ATOM     12  H   UNL     1       1.159  11.916  18.064  0.00  0.00    +0.000 HD
ATOM     13  H   UNL     1      -0.348  11.723  18.798  0.00  0.00    +0.000 HD
ENDBRANCH   1  11
BRANCH   6  14
ATOM     14  C   UNL     1       3.942   4.921  19.014  0.00  0.00    +0.000 C 
BRANCH  14  15
ATOM     15  N   UNL     1       5.148   5.096  18.207  0.00  0.00    +0.000 NA
ATOM     16  C   UNL     1       6.372   5.194  19.032  0.00  0.00    +0.000 C 
ATOM     17  C   UNL     1       7.514   5.654  18.118  0.00  0.00    +0.000 C 
ATOM     18  O   UNL     1       7.741   4.704  17.064  0.00  0.00    +0.000 OA
ATOM     19  C   UNL     1       6.538   4.482  16.304  0.00  0.00    +0.000 C 
ATOM     20  C   UNL     1       5.367   4.044  17.204  0.00  0.00    +0.000 C 
ENDBRANCH  14  15
ENDBRANCH   6  14
TORSDOF 3
ENDMDL
MODEL 5
REMARK VINA RESULT:      -6.4      2.041      2.287
REMARK  Name = 
REMARK  3 active torsions:
REMARK  status: ('A' for Active; 'I' for Inactive)
REMARK    1  A    between atoms: N_1  and  C_2
REMARK    2  A    between atoms: C_7  and  C_8
REMARK    3  A    between atoms: C_8  and  N_9
REMARK                            x       y       z     vdW  Elec       q    Type
REMARK                         _______ _______ _______ _____ _____    ______ ____
ROOT
ATOM      1  C   UNL     1       6.872   5.339  15.739  0.00  0.00    +0.000 A 
ATOM      2  C   UNL     1       7.547   4.818  16.853  0.00  0.00    +0.000 A 
ATOM      3  C   UNL     1       6.965   4.784  18.125  0.00  0.00    +0.000 A 
ATOM      4  C   UNL     1       5.650   5.228  18.221  0.00  0.00    +0.000 A 
ATOM      5  N   UNL     1       4.767   5.318  19.264  0.00  0.00    +0.000 N 
ATOM      6  C   UNL     1       3.582   5.839  18.798  0.00  0.00    +0.000 A 
ATOM      7  N   UNL     1       3.652   6.076  17.504  0.00  0.00    +0.000 NA
ATOM      8  C   UNL     1       4.923   5.707  17.131  0.00  0.00    +0.000 A 
ATOM      9  C   UNL     1       5.537   5.749  15.871  0.00  0.00    +0.000 A 
ATOM     10  H   UNL     1       4.961   5.112  20.235  0.00  0.00    +0.000 HD
ENDROOT
BRANCH   1  11
ATOM     11  N   UNL     1       7.443   5.225  14.463  0.00  0.00    +0.000 N 
ATOM     12  H   UNL     1       7.001   5.804  13.758  0.00  0.00    +0.000 HD
ATOM     13  H   UNL     1       7.566   4.266  14.158  0.00  0.00    +0.000 HD
ENDBRANCH   1  11
BRANCH   6  14
ATOM     14  C   UNL     1       2.455   6.150  19.739  0.00  0.00    +0.000 C 
BRANCH  14  15
ATOM     15  N   UNL     1       1.778   4.905  20.096  0.00  0.00    +0.000 NA
ATOM     16  C   UNL     1       1.692   3.961  18.960  0.00  0.00    +0.000 C 
ATOM     17  C   UNL     1       0.731   2.836  19.361  0.00  0.00    +0.000 C 
ATOM     18  O   UNL     1       1.220   2.131  20.512  0.00  0.00    +0.000 OA
ATOM     19  C   UNL     1       1.437   3.031  21.614  0.00  0.00    +0.000 C 
ATOM     20  C   UNL     1       2.380   4.188  21.229  0.00  0.00    +0.000 C 
ENDBRANCH  14  15
ENDBRANCH   6  14
TORSDOF 3
ENDMDL
MODEL 6
REMARK VINA RESULT:      -6.3      4.229      5.503
REMARK  Name = 
REMARK  3 active torsions:
REMARK  status: ('A' for Active; 'I' for Inactive)
REMARK    1  A    between atoms: N_1  and  C_2
REMARK    2  A    between atoms: C_7  and  C_8
REMARK    3  A    between atoms: C_8  and  N_9
REMARK                            x       y       z     vdW  Elec       q    Type
REMARK                         _______ _______ _______ _____ _____    ______ ____
ROOT
ATOM      1  C   UNL     1       1.163   9.533  18.719  0.00  0.00    +0.000 A 
ATOM      2  C   UNL     1       1.002   9.287  20.091  0.00  0.00    +0.000 A 
ATOM      3  C   UNL     1       1.478   8.119  20.697  0.00  0.00    +0.000 A 
ATOM      4  C   UNL     1       2.186   7.239  19.884  0.00  0.00    +0.000 A 
ATOM      5  N   UNL     1       2.807   6.041  20.120  0.00  0.00    +0.000 N 
ATOM      6  C   UNL     1       3.360   5.590  18.944  0.00  0.00    +0.000 A 
ATOM      7  N   UNL     1       3.139   6.443  17.965  0.00  0.00    +0.000 NA
ATOM      8  C   UNL     1       2.413   7.467  18.527  0.00  0.00    +0.000 A 
ATOM      9  C   UNL     1       1.909   8.636  17.941  0.00  0.00    +0.000 A 
ATOM     10  H   UNL     1       2.803   5.524  20.989  0.00  0.00    +0.000 HD
ENDROOT
BRANCH   1  11
ATOM     11  N   UNL     1       0.792  10.777  18.187  0.00  0.00    +0.000 N 
ATOM     12  H   UNL     1       1.044  10.903  17.214  0.00  0.00    +0.000 HD
ATOM     13  H   UNL     1       1.067  11.563  18.766  0.00  0.00    +0.000 HD
ENDBRANCH   1  11
BRANCH   6  14
ATOM     14  C   UNL     1       4.021   4.243  18.871  0.00  0.00    +0.000 C 
BRANCH  14  15
ATOM     15  N   UNL     1       5.407   4.418  18.442  0.00  0.00    +0.000 NA
ATOM     16  C   UNL     1       5.529   4.592  16.978  0.00  0.00    +0.000 C 
ATOM     17  C   UNL     1       7.015   4.480  16.618  0.00  0.00    +0.000 C 
ATOM     18  O   UNL     1       7.779   5.507  17.272  0.00  0.00    +0.000 OA
ATOM     19  C   UNL     1       7.595   5.456  18.698  0.00  0.00    +0.000 C 
ATOM     20  C   UNL     1       6.106   5.540  19.086  0.00  0.00    +0.000 C 
ENDBRANCH  14  15
ENDBRANCH   6  14
TORSDOF 3
ENDMDL
MODEL 7
REMARK VINA RESULT:      -6.3      2.617      6.547
REMARK  Name = 
REMARK  3 active torsions:
REMARK  status: ('A' for Active; 'I' for Inactive)
REMARK    1  A    between atoms: N_1  and  C_2
REMARK    2  A    between atoms: C_7  and  C_8
REMARK    3  A    between atoms: C_8  and  N_9
REMARK                            x       y       z     vdW  Elec       q    Type
REMARK                         _______ _______ _______ _____ _____    ______ ____
ROOT
ATOM      1  C   UNL     1       1.463   2.827  21.107  0.00  0.00    +0.000 A 
ATOM      2  C   UNL     1       0.610   2.892  19.995  0.00  0.00    +0.000 A 
ATOM      3  C   UNL     1       1.075   3.234  18.720  0.00  0.00    +0.000 A 
ATOM      4  C   UNL     1       2.445   3.438  18.591  0.00  0.00    +0.000 A 
ATOM      5  N   UNL     1       3.247   3.755  17.526  0.00  0.00    +0.000 N 
ATOM      6  C   UNL     1       4.548   3.842  17.963  0.00  0.00    +0.000 A 
ATOM      7  N   UNL     1       4.627   3.585  19.252  0.00  0.00    +0.000 NA
ATOM      8  C   UNL     1       3.337   3.336  19.658  0.00  0.00    +0.000 A 
ATOM      9  C   UNL     1       2.842   3.011  20.928  0.00  0.00    +0.000 A 
ATOM     10  H   UNL     1       2.941   3.966  16.585  0.00  0.00    +0.000 HD
ENDROOT
BRANCH   1  11
ATOM     11  N   UNL     1       0.977   2.347  22.331  0.00  0.00    +0.000 N 
ATOM     12  H   UNL     1       1.675   2.295  23.063  0.00  0.00    +0.000 HD
ATOM     13  H   UNL     1       0.438   1.492  22.246  0.00  0.00    +0.000 HD
ENDBRANCH   1  11
BRANCH   6  14
ATOM     14  C   UNL     1       5.644   4.277  17.033  0.00  0.00    +0.000 C 
BRANCH  14  15
ATOM     15  N   UNL     1       6.323   5.436  17.609  0.00  0.00    +0.000 NA
ATOM     16  C   UNL     1       7.602   5.078  18.261  0.00  0.00    +0.000 C 
ATOM     17  C   UNL     1       8.074   6.296  19.062  0.00  0.00    +0.000 C 
ATOM     18  O   UNL     1       8.294   7.423  18.199  0.00  0.00    +0.000 OA
ATOM     19  C   UNL     1       7.106   7.736  17.448  0.00  0.00    +0.000 C 
ATOM     20  C   UNL     1       6.596   6.519  16.653  0.00  0.00    +0.000 C 
ENDBRANCH  14  15
ENDBRANCH   6  14
TORSDOF 3
ENDMDL
MODEL 8
REMARK VINA RESULT:      -6.3      1.032      1.955
REMARK  Name = 
REMARK  3 active torsions:
REMARK  status: ('A' for Active; 'I' for Inactive)
REMARK    1  A    between atoms: N_1  and  C_2
REMARK    2  A    between atoms: C_7  and  C_8
REMARK    3  A    between atoms: C_8  and  N_9
REMARK                            x       y       z     vdW  Elec       q    Type
REMARK                         _______ _______ _______ _____ _____    ______ ____
ROOT
ATOM      1  C   UNL     1       7.723   6.557  18.373  0.00  0.00    +0.000 A 
ATOM      2  C   UNL     1       7.400   6.595  17.008  0.00  0.00    +0.000 A 
ATOM      3  C   UNL     1       6.501   5.690  16.431  0.00  0.00    +0.000 A 
ATOM      4  C   UNL     1       5.882   4.791  17.294  0.00  0.00    +0.000 A 
ATOM      5  N   UNL     1       4.953   3.802  17.106  0.00  0.00    +0.000 N 
ATOM      6  C   UNL     1       4.690   3.206  18.317  0.00  0.00    +0.000 A 
ATOM      7  N   UNL     1       5.390   3.771  19.279  0.00  0.00    +0.000 NA
ATOM      8  C   UNL     1       6.135   4.751  18.666  0.00  0.00    +0.000 A 
ATOM      9  C   UNL     1       7.055   5.655  19.213  0.00  0.00    +0.000 A 
ATOM     10  H   UNL     1       4.573   3.497  16.220  0.00  0.00    +0.000 HD
ENDROOT
BRANCH   1  11
ATOM     11  N   UNL     1       8.521   7.568  18.928  0.00  0.00    +0.000 N 
ATOM     12  H   UNL     1       9.215   7.233  19.584  0.00  0.00    +0.000 HD
ATOM     13  H   UNL     1       7.988   8.352  19.288  0.00  0.00    +0.000 HD
ENDBRANCH   1  11
BRANCH   6  14
ATOM     14  C   UNL     1       3.781   2.014  18.407  0.00  0.00    +0.000 C 
BRANCH  14  15
ATOM     15  N   UNL     1       2.674   2.328  19.308  0.00  0.00    +0.000 NA
ATOM     16  C   UNL     1       3.120   2.531  20.704  0.00  0.00    +0.000 C 
ATOM     17  C   UNL     1       1.871   2.569  21.592  0.00  0.00    +0.000 C 
ATOM     18  O   UNL     1       1.010   3.656  21.218  0.00  0.00    +0.000 OA
ATOM     19  C   UNL     1       0.645   3.569  19.829  0.00  0.00    +0.000 C 
ATOM     20  C   UNL     1       1.884   3.504  18.916  0.00  0.00    +0.000 C 
ENDBRANCH  14  15
ENDBRANCH   6  14
TORSDOF 3
ENDMDL
MODEL 9
REMARK VINA RESULT:      -6.3      2.421      3.047
REMARK  Name = 
REMARK  3 active torsions:
REMARK  status: ('A' for Active; 'I' for Inactive)
REMARK    1  A    between atoms: N_1  and  C_2
REMARK    2  A    between atoms: C_7  and  C_8
REMARK    3  A    between atoms: C_8  and  N_9
REMARK                            x       y       z     vdW  Elec       q    Type
REMARK                         _______ _______ _______ _____ _____    ______ ____
ROOT
ATOM      1  C   UNL     1       7.386   4.979  14.260  0.00  0.00    +0.000 A 
ATOM      2  C   UNL     1       6.319   4.251  13.713  0.00  0.00    +0.000 A 
ATOM      3  C   UNL     1       5.351   3.635  14.515  0.00  0.00    +0.000 A 
ATOM      4  C   UNL     1       5.457   3.840  15.887  0.00  0.00    +0.000 A 
ATOM      5  N   UNL     1       4.703   3.429  16.955  0.00  0.00    +0.000 N 
ATOM      6  C   UNL     1       5.267   3.920  18.109  0.00  0.00    +0.000 A 
ATOM      7  N   UNL     1       6.337   4.638  17.839  0.00  0.00    +0.000 NA
ATOM      8  C   UNL     1       6.472   4.597  16.471  0.00  0.00    +0.000 A 
ATOM      9  C   UNL     1       7.439   5.187  15.646  0.00  0.00    +0.000 A 
ATOM     10  H   UNL     1       3.907   2.807  16.923  0.00  0.00    +0.000 HD
ENDROOT
BRANCH   1  11
ATOM     11  N   UNL     1       8.249   5.691  13.414  0.00  0.00    +0.000 N 
ATOM     12  H   UNL     1       8.243   6.692  13.564  0.00  0.00    +0.000 HD
ATOM     13  H   UNL     1       8.153   5.443  12.435  0.00  0.00    +0.000 HD
ENDBRANCH   1  11
BRANCH   6  14
ATOM     14  C   UNL     1       4.714   3.547  19.454  0.00  0.00    +0.000 C 
BRANCH  14  15
ATOM     15  N   UNL     1       3.254   3.540  19.382  0.00  0.00    +0.000 NA
ATOM     16  C   UNL     1       2.699   2.174  19.261  0.00  0.00    +0.000 C 
ATOM     17  C   UNL     1       1.212   2.305  18.910  0.00  0.00    +0.000 C 
ATOM     18  O   UNL     1       0.502   3.003  19.946  0.00  0.00    +0.000 OA
ATOM     19  C   UNL     1       1.083   4.297  20.186  0.00  0.00    +0.000 C 
ATOM     20  C   UNL     1       2.585   4.196  20.515  0.00  0.00    +0.000 C 
ENDBRANCH  14  15
ENDBRANCH   6  14
TORSDOF 3
ENDMDL
