MODEL 1
REMARK VINA RESULT:      -7.1      0.000      0.000
REMARK  Name = 
REMARK  8 active torsions:
REMARK  status: ('A' for Active; 'I' for Inactive)
REMARK    1  A    between atoms: C_1  and  O_2
REMARK    2  A    between atoms: O_2  and  C_3
REMARK    3  A    between atoms: C_11  and  O_12
REMARK    4  A    between atoms: O_12  and  C_13
REMARK    5  A    between atoms: C_14  and  O_15
REMARK    6  A    between atoms: O_15  and  C_16
REMARK    7  A    between atoms: C_16  and  C_17
REMARK    8  A    between atoms: N_28  and  C_29
REMARK                            x       y       z     vdW  Elec       q    Type
REMARK                         _______ _______ _______ _____ _____    ______ ____
ROOT
ATOM      1  C   UNL     1       1.363  14.210  19.077  0.00  0.00    +0.000 C 
ATOM      2  C   UNL     1       1.715  13.189  19.876  0.00  0.00    +0.000 C 
ATOM      3  C   UNL     1       0.810  12.558  20.918  0.00  0.00    +0.000 C 
ATOM      4  C   UNL     1       1.071  11.064  21.181  0.00  0.00    +0.000 C 
ATOM      5  C   UNL     1       0.839  10.296  19.872  0.00  0.00    +0.000 C 
ATOM      6  C   UNL     1      -0.383  10.715  19.088  0.00  0.00    +0.000 A 
ATOM      7  C   UNL     1      -0.712   9.874  18.016  0.00  0.00    +0.000 A 
ATOM      8  C   UNL     1      -1.838  10.106  17.250  0.00  0.00    +0.000 A 
ATOM      9  C   UNL     1      -2.702  11.143  17.579  0.00  0.00    +0.000 A 
ATOM     10  C   UNL     1      -2.438  11.948  18.736  0.00  0.00    +0.000 A 
ATOM     11  C   UNL     1      -1.190  11.835  19.423  0.00  0.00    +0.000 A 
ATOM     12  C   UNL     1      -0.715  12.745  20.599  0.00  0.00    +0.000 C 
ATOM     13  C   UNL     1      -1.479  12.317  21.874  0.00  0.00    +0.000 C 
ATOM     14  C   UNL     1      -1.160  10.873  22.264  0.00  0.00    +0.000 C 
ATOM     15  N   UNL     1       0.288  10.645  22.372  0.00  0.00    +0.000 NA
ATOM     16  C   UNL     1       0.569   9.281  22.801  0.00  0.00    +0.000 C 
ATOM     17  C   UNL     1      -0.866  14.267  20.387  0.00  0.00    +0.000 C 
ATOM     18  C   UNL     1      -0.023  14.782  19.235  0.00  0.00    +0.000 C 
ATOM     19  O   UNL     1      -0.427  15.703  18.529  0.00  0.00    +0.000 OA
ENDROOT
BRANCH   1  21
ATOM     20  C   UNL     1       3.661  14.396  18.496  0.00  0.00    +0.000 C 
ATOM     21  O   UNL     1       2.303  14.688  18.179  0.00  0.00    +0.000 OA
ENDBRANCH   1  21
BRANCH   9  22
ATOM     22  O   UNL     1      -3.850  11.372  16.861  0.00  0.00    +0.000 OA
ATOM     23  C   UNL     1      -3.997  10.833  15.553  0.00  0.00    +0.000 C 
ENDBRANCH   9  22
BRANCH  10  24
ATOM     24  O   UNL     1      -3.408  12.766  19.317  0.00  0.00    +0.000 OA
BRANCH  24  25
ATOM     25  C   UNL     1      -4.686  12.109  19.489  0.00  0.00    +0.000 C 
BRANCH  25  26
ATOM     26  C   UNL     1      -5.421  12.359  20.781  0.00  0.00    +0.000 A 
ATOM     27  C   UNL     1      -4.875  13.042  21.868  0.00  0.00    +0.000 A 
ATOM     28  C   UNL     1      -5.640  13.242  23.025  0.00  0.00    +0.000 A 
ATOM     29  C   UNL     1      -6.956  12.773  23.092  0.00  0.00    +0.000 A 
ATOM     30  C   UNL     1      -7.522  12.115  22.006  0.00  0.00    +0.000 A 
ATOM     31  C   UNL     1      -6.757  11.920  20.865  0.00  0.00    +0.000 A 
ATOM     32  F   UNL     1      -7.318  11.295  19.816  0.00  0.00    +0.000 F 
ENDBRANCH  25  26
ENDBRANCH  24  25
ENDBRANCH  10  24
TORSDOF 5
ENDMDL
MODEL 2
REMARK VINA RESULT:      -7.0      0.885      1.023
REMARK  Name = 
REMARK  8 active torsions:
REMARK  status: ('A' for Active; 'I' for Inactive)
REMARK    1  A    between atoms: C_1  and  O_2
REMARK    2  A    between atoms: O_2  and  C_3
REMARK    3  A    between atoms: C_11  and  O_12
REMARK    4  A    between atoms: O_12  and  C_13
REMARK    5  A    between atoms: C_14  and  O_15
REMARK    6  A    between atoms: O_15  and  C_16
REMARK    7  A    between atoms: C_16  and  C_17
REMARK    8  A    between atoms: N_28  and  C_29
REMARK                            x       y       z     vdW  Elec       q    Type
REMARK                         _______ _______ _______ _____ _____    ______ ____
ROOT
ATOM      1  C   UNL     1       1.182  14.150  19.293  0.00  0.00    +0.000 C 
ATOM      2  C   UNL     1       1.497  13.106  20.078  0.00  0.00    +0.000 C 
ATOM      3  C   UNL     1       0.629  12.582  21.206  0.00  0.00    +0.000 C 
ATOM      4  C   UNL     1       0.759  11.071  21.474  0.00  0.00    +0.000 C 
ATOM      5  C   UNL     1       0.335  10.319  20.205  0.00  0.00    +0.000 C 
ATOM      6  C   UNL     1      -0.903  10.853  19.523  0.00  0.00    +0.000 A 
ATOM      7  C   UNL     1      -1.409  10.041  18.499  0.00  0.00    +0.000 A 
ATOM      8  C   UNL     1      -2.569  10.380  17.830  0.00  0.00    +0.000 A 
ATOM      9  C   UNL     1      -3.291  11.503  18.214  0.00  0.00    +0.000 A 
ATOM     10  C   UNL     1      -2.845  12.287  19.328  0.00  0.00    +0.000 A 
ATOM     11  C   UNL     1      -1.558  12.054  19.905  0.00  0.00    +0.000 A 
ATOM     12  C   UNL     1      -0.891  12.922  21.019  0.00  0.00    +0.000 C 
ATOM     13  C   UNL     1      -1.579  12.587  22.363  0.00  0.00    +0.000 C 
ATOM     14  C   UNL     1      -1.374  11.121  22.751  0.00  0.00    +0.000 C 
ATOM     15  N   UNL     1       0.047  10.747  22.736  0.00  0.00    +0.000 NA
ATOM     16  C   UNL     1       0.225   9.366  23.165  0.00  0.00    +0.000 C 
ATOM     17  C   UNL     1      -0.905  14.449  20.792  0.00  0.00    +0.000 C 
ATOM     18  C   UNL     1      -0.120  14.863  19.561  0.00  0.00    +0.000 C 
ATOM     19  O   UNL     1      -0.490  15.814  18.876  0.00  0.00    +0.000 OA
ENDROOT
BRANCH   1  21
ATOM     20  C   UNL     1       3.411  14.036  18.476  0.00  0.00    +0.000 C 
ATOM     21  O   UNL     1       2.081  14.520  18.308  0.00  0.00    +0.000 OA
ENDBRANCH   1  21
BRANCH   9  22
ATOM     22  O   UNL     1      -4.469  11.842  17.595  0.00  0.00    +0.000 OA
ATOM     23  C   UNL     1      -4.723  11.424  16.259  0.00  0.00    +0.000 C 
ENDBRANCH   9  22
BRANCH  10  24
ATOM     24  O   UNL     1      -3.672  13.207  19.976  0.00  0.00    +0.000 OA
BRANCH  24  25
ATOM     25  C   UNL     1      -4.836  12.602  20.587  0.00  0.00    +0.000 C 
BRANCH  25  26
ATOM     26  C   UNL     1      -5.415  13.290  21.797  0.00  0.00    +0.000 A 
ATOM     27  C   UNL     1      -4.866  14.432  22.381  0.00  0.00    +0.000 A 
ATOM     28  C   UNL     1      -5.483  15.013  23.497  0.00  0.00    +0.000 A 
ATOM     29  C   UNL     1      -6.658  14.464  24.021  0.00  0.00    +0.000 A 
ATOM     30  C   UNL     1      -7.231  13.343  23.431  0.00  0.00    +0.000 A 
ATOM     31  C   UNL     1      -6.612  12.772  22.328  0.00  0.00    +0.000 A 
ATOM     32  F   UNL     1      -7.182  11.698  21.758  0.00  0.00    +0.000 F 
ENDBRANCH  25  26
ENDBRANCH  24  25
ENDBRANCH  10  24
TORSDOF 5
ENDMDL
MODEL 3
REMARK VINA RESULT:      -6.9      8.347     11.798
REMARK  Name = 
REMARK  8 active torsions:
REMARK  status: ('A' for Active; 'I' for Inactive)
REMARK    1  A    between atoms: C_1  and  O_2
REMARK    2  A    between atoms: O_2  and  C_3
REMARK    3  A    between atoms: C_11  and  O_12
REMARK    4  A    between atoms: O_12  and  C_13
REMARK    5  A    between atoms: C_14  and  O_15
REMARK    6  A    between atoms: O_15  and  C_16
REMARK    7  A    between atoms: C_16  and  C_17
REMARK    8  A    between atoms: N_28  and  C_29
REMARK                            x       y       z     vdW  Elec       q    Type
REMARK                         _______ _______ _______ _____ _____    ______ ____
ROOT
ATOM      1  C   UNL     1       2.197   7.021  19.879  0.00  0.00    +0.000 C 
ATOM      2  C   UNL     1       2.249   5.703  20.137  0.00  0.00    +0.000 C 
ATOM      3  C   UNL     1       2.528   4.632  19.099  0.00  0.00    +0.000 C 
ATOM      4  C   UNL     1       3.240   3.378  19.640  0.00  0.00    +0.000 C 
ATOM      5  C   UNL     1       4.599   3.804  20.211  0.00  0.00    +0.000 C 
ATOM      6  C   UNL     1       5.369   4.796  19.370  0.00  0.00    +0.000 A 
ATOM      7  C   UNL     1       6.691   5.015  19.779  0.00  0.00    +0.000 A 
ATOM      8  C   UNL     1       7.527   5.854  19.067  0.00  0.00    +0.000 A 
ATOM      9  C   UNL     1       7.083   6.440  17.888  0.00  0.00    +0.000 A 
ATOM     10  C   UNL     1       5.769   6.144  17.397  0.00  0.00    +0.000 A 
ATOM     11  C   UNL     1       4.838   5.430  18.215  0.00  0.00    +0.000 A 
ATOM     12  C   UNL     1       3.339   5.168  17.867  0.00  0.00    +0.000 C 
ATOM     13  C   UNL     1       3.283   4.055  16.794  0.00  0.00    +0.000 C 
ATOM     14  C   UNL     1       3.862   2.739  17.318  0.00  0.00    +0.000 C 
ATOM     15  N   UNL     1       3.235   2.333  18.584  0.00  0.00    +0.000 NA
ATOM     16  C   UNL     1       3.757   1.050  19.034  0.00  0.00    +0.000 C 
ATOM     17  C   UNL     1       2.526   6.391  17.392  0.00  0.00    +0.000 C 
ATOM     18  C   UNL     1       2.416   7.468  18.456  0.00  0.00    +0.000 C 
ATOM     19  O   UNL     1       2.404   8.656  18.142  0.00  0.00    +0.000 OA
ENDROOT
BRANCH   1  21
ATOM     20  C   UNL     1       0.544   8.198  21.117  0.00  0.00    +0.000 C 
ATOM     21  O   UNL     1       1.920   7.879  20.929  0.00  0.00    +0.000 OA
ENDBRANCH   1  21
BRANCH   9  22
ATOM     22  O   UNL     1       7.905   7.245  17.137  0.00  0.00    +0.000 OA
ATOM     23  C   UNL     1       8.156   8.587  17.538  0.00  0.00    +0.000 C 
ENDBRANCH   9  22
BRANCH  10  24
ATOM     24  O   UNL     1       5.381   6.412  16.084  0.00  0.00    +0.000 OA
BRANCH  24  25
ATOM     25  C   UNL     1       6.441   6.210  15.119  0.00  0.00    +0.000 C 
BRANCH  25  26
ATOM     26  C   UNL     1       6.244   5.119  14.098  0.00  0.00    +0.000 A 
ATOM     27  C   UNL     1       5.087   4.346  13.997  0.00  0.00    +0.000 A 
ATOM     28  C   UNL     1       4.986   3.363  13.004  0.00  0.00    +0.000 A 
ATOM     29  C   UNL     1       6.035   3.160  12.101  0.00  0.00    +0.000 A 
ATOM     30  C   UNL     1       7.182   3.942  12.173  0.00  0.00    +0.000 A 
ATOM     31  C   UNL     1       7.274   4.912  13.161  0.00  0.00    +0.000 A 
ATOM     32  F   UNL     1       8.382   5.671  13.212  0.00  0.00    +0.000 F 
ENDBRANCH  25  26
ENDBRANCH  24  25
ENDBRANCH  10  24
TORSDOF 5
ENDMDL
MODEL 4
REMARK VINA RESULT:      -6.9      1.429      1.683
REMARK  Name = 
REMARK  8 active torsions:
REMARK  status: ('A' for Active; 'I' for Inactive)
REMARK    1  A    between atoms: C_1  and  O_2
REMARK    2  A    between atoms: O_2  and  C_3
REMARK    3  A    between atoms: C_11  and  O_12
REMARK    4  A    between atoms: O_12  and  C_13
REMARK    5  A    between atoms: C_14  and  O_15
REMARK    6  A    between atoms: O_15  and  C_16
REMARK    7  A    between atoms: C_16  and  C_17
REMARK    8  A    between atoms: N_28  and  C_29
REMARK                            x       y       z     vdW  Elec       q    Type
REMARK                         _______ _______ _______ _____ _____    ______ ____
ROOT
ATOM      1  C   UNL     1       1.186  14.011  19.160  0.00  0.00    +0.000 C 
ATOM      2  C   UNL     1       1.490  12.967  19.950  0.00  0.00    +0.000 C 
ATOM      3  C   UNL     1       0.647  12.497  21.120  0.00  0.00    +0.000 C 
ATOM      4  C   UNL     1       0.727  10.987  21.409  0.00  0.00    +0.000 C 
ATOM      5  C   UNL     1       0.225  10.232  20.172  0.00  0.00    +0.000 C 
ATOM      6  C   UNL     1      -1.017  10.804  19.528  0.00  0.00    +0.000 A 
ATOM      7  C   UNL     1      -1.594   9.996  18.539  0.00  0.00    +0.000 A 
ATOM      8  C   UNL     1      -2.765  10.370  17.909  0.00  0.00    +0.000 A 
ATOM      9  C   UNL     1      -3.427  11.528  18.300  0.00  0.00    +0.000 A 
ATOM     10  C   UNL     1      -2.907  12.311  19.382  0.00  0.00    +0.000 A 
ATOM     11  C   UNL     1      -1.609  12.036  19.914  0.00  0.00    +0.000 A 
ATOM     12  C   UNL     1      -0.865  12.895  20.985  0.00  0.00    +0.000 C 
ATOM     13  C   UNL     1      -1.513  12.609  22.361  0.00  0.00    +0.000 C 
ATOM     14  C   UNL     1      -1.351  11.143  22.766  0.00  0.00    +0.000 C 
ATOM     15  N   UNL     1       0.053  10.712  22.704  0.00  0.00    +0.000 NA
ATOM     16  C   UNL     1       0.192   9.332  23.149  0.00  0.00    +0.000 C 
ATOM     17  C   UNL     1      -0.828  14.417  20.732  0.00  0.00    +0.000 C 
ATOM     18  C   UNL     1      -0.076  14.779  19.465  0.00  0.00    +0.000 C 
ATOM     19  O   UNL     1      -0.434  15.733  18.777  0.00  0.00    +0.000 OA
ENDROOT
BRANCH   1  21
ATOM     20  C   UNL     1       3.055  15.299  18.453  0.00  0.00    +0.000 C 
ATOM     21  O   UNL     1       2.060  14.329  18.135  0.00  0.00    +0.000 OA
ENDBRANCH   1  21
BRANCH   9  22
ATOM     22  O   UNL     1      -4.614  11.903  17.720  0.00  0.00    +0.000 OA
ATOM     23  C   UNL     1      -5.789  11.127  17.925  0.00  0.00    +0.000 C 
ENDBRANCH   9  22
BRANCH  10  24
ATOM     24  O   UNL     1      -3.671  13.273  20.045  0.00  0.00    +0.000 OA
BRANCH  24  25
ATOM     25  C   UNL     1      -4.626  12.709  20.974  0.00  0.00    +0.000 C 
BRANCH  25  26
ATOM     26  C   UNL     1      -5.549  13.669  21.682  0.00  0.00    +0.000 A 
ATOM     27  C   UNL     1      -6.430  14.528  21.026  0.00  0.00    +0.000 A 
ATOM     28  C   UNL     1      -7.264  15.375  21.767  0.00  0.00    +0.000 A 
ATOM     29  C   UNL     1      -7.229  15.354  23.166  0.00  0.00    +0.000 A 
ATOM     30  C   UNL     1      -6.375  14.483  23.832  0.00  0.00    +0.000 A 
ATOM     31  C   UNL     1      -5.551  13.648  23.090  0.00  0.00    +0.000 A 
ATOM     32  F   UNL     1      -4.741  12.801  23.744  0.00  0.00    +0.000 F 
ENDBRANCH  25  26
ENDBRANCH  24  25
ENDBRANCH  10  24
TORSDOF 5
ENDMDL
MODEL 5
REMARK VINA RESULT:      -6.9      3.059      6.582
REMARK  Name = 
REMARK  8 active torsions:
REMARK  status: ('A' for Active; 'I' for Inactive)
REMARK    1  A    between atoms: C_1  and  O_2
REMARK    2  A    between atoms: O_2  and  C_3
REMARK    3  A    between atoms: C_11  and  O_12
REMARK    4  A    between atoms: O_12  and  C_13
REMARK    5  A    between atoms: C_14  and  O_15
REMARK    6  A    between atoms: O_15  and  C_16
REMARK    7  A    between atoms: C_16  and  C_17
REMARK    8  A    between atoms: N_28  and  C_29
REMARK                            x       y       z     vdW  Elec       q    Type
REMARK                         _______ _______ _______ _____ _____    ______ ____
ROOT
ATOM      1  C   UNL     1      -3.008  12.199  23.663  0.00  0.00    +0.000 C 
ATOM      2  C   UNL     1      -3.355  13.437  23.272  0.00  0.00    +0.000 C 
ATOM      3  C   UNL     1      -2.525  14.316  22.354  0.00  0.00    +0.000 C 
ATOM      4  C   UNL     1      -3.338  15.289  21.482  0.00  0.00    +0.000 C 
ATOM      5  C   UNL     1      -4.270  14.467  20.582  0.00  0.00    +0.000 C 
ATOM      6  C   UNL     1      -3.643  13.245  19.952  0.00  0.00    +0.000 A 
ATOM      7  C   UNL     1      -4.423  12.623  18.967  0.00  0.00    +0.000 A 
ATOM      8  C   UNL     1      -3.949  11.530  18.269  0.00  0.00    +0.000 A 
ATOM      9  C   UNL     1      -2.655  11.073  18.487  0.00  0.00    +0.000 A 
ATOM     10  C   UNL     1      -1.805  11.762  19.414  0.00  0.00    +0.000 A 
ATOM     11  C   UNL     1      -2.342  12.772  20.271  0.00  0.00    +0.000 A 
ATOM     12  C   UNL     1      -1.569  13.495  21.419  0.00  0.00    +0.000 C 
ATOM     13  C   UNL     1      -0.606  14.521  20.776  0.00  0.00    +0.000 C 
ATOM     14  C   UNL     1      -1.367  15.596  19.998  0.00  0.00    +0.000 C 
ATOM     15  N   UNL     1      -2.403  16.235  20.822  0.00  0.00    +0.000 NA
ATOM     16  C   UNL     1      -3.074  17.295  20.082  0.00  0.00    +0.000 C 
ATOM     17  C   UNL     1      -0.789  12.585  22.392  0.00  0.00    +0.000 C 
ATOM     18  C   UNL     1      -1.695  11.648  23.168  0.00  0.00    +0.000 C 
ATOM     19  O   UNL     1      -1.316  10.517  23.464  0.00  0.00    +0.000 OA
ENDROOT
BRANCH   1  21
ATOM     20  C   UNL     1      -5.029  12.238  24.915  0.00  0.00    +0.000 C 
ATOM     21  O   UNL     1      -3.864  11.521  24.514  0.00  0.00    +0.000 OA
ENDBRANCH   1  21
BRANCH   9  22
ATOM     22  O   UNL     1      -2.142  10.014  17.779  0.00  0.00    +0.000 OA
ATOM     23  C   UNL     1      -2.573   9.767  16.446  0.00  0.00    +0.000 C 
ENDBRANCH   9  22
BRANCH  10  24
ATOM     24  O   UNL     1      -0.421  11.581  19.439  0.00  0.00    +0.000 OA
BRANCH  24  25
ATOM     25  C   UNL     1      -0.007  10.424  20.202  0.00  0.00    +0.000 C 
BRANCH  25  26
ATOM     26  C   UNL     1       0.910   9.440  19.520  0.00  0.00    +0.000 A 
ATOM     27  C   UNL     1       1.362   9.578  18.208  0.00  0.00    +0.000 A 
ATOM     28  C   UNL     1       2.226   8.621  17.661  0.00  0.00    +0.000 A 
ATOM     29  C   UNL     1       2.651   7.531  18.429  0.00  0.00    +0.000 A 
ATOM     30  C   UNL     1       2.230   7.396  19.747  0.00  0.00    +0.000 A 
ATOM     31  C   UNL     1       1.372   8.349  20.280  0.00  0.00    +0.000 A 
ATOM     32  F   UNL     1       0.982   8.216  21.559  0.00  0.00    +0.000 F 
ENDBRANCH  25  26
ENDBRANCH  24  25
ENDBRANCH  10  24
TORSDOF 5
ENDMDL
MODEL 6
REMARK VINA RESULT:      -6.7      2.679      6.754
REMARK  Name = 
REMARK  8 active torsions:
REMARK  status: ('A' for Active; 'I' for Inactive)
REMARK    1  A    between atoms: C_1  and  O_2
REMARK    2  A    between atoms: O_2  and  C_3
REMARK    3  A    between atoms: C_11  and  O_12
REMARK    4  A    between atoms: O_12  and  C_13
REMARK    5  A    between atoms: C_14  and  O_15
REMARK    6  A    between atoms: O_15  and  C_16
REMARK    7  A    between atoms: C_16  and  C_17
REMARK    8  A    between atoms: N_28  and  C_29
REMARK                            x       y       z     vdW  Elec       q    Type
REMARK                         _______ _______ _______ _____ _____    ______ ____
ROOT
ATOM      1  C   UNL     1      -3.279  11.555  18.060  0.00  0.00    +0.000 C 
ATOM      2  C   UNL     1      -3.568  12.225  19.189  0.00  0.00    +0.000 C 
ATOM      3  C   UNL     1      -2.831  12.058  20.504  0.00  0.00    +0.000 C 
ATOM      4  C   UNL     1      -2.789  13.319  21.386  0.00  0.00    +0.000 C 
ATOM      5  C   UNL     1      -2.063  14.426  20.610  0.00  0.00    +0.000 C 
ATOM      6  C   UNL     1      -0.818  13.987  19.875  0.00  0.00    +0.000 A 
ATOM      7  C   UNL     1      -0.043  15.032  19.352  0.00  0.00    +0.000 A 
ATOM      8  C   UNL     1       1.151  14.777  18.706  0.00  0.00    +0.000 A 
ATOM      9  C   UNL     1       1.636  13.477  18.628  0.00  0.00    +0.000 A 
ATOM     10  C   UNL     1       0.910  12.409  19.249  0.00  0.00    +0.000 A 
ATOM     11  C   UNL     1      -0.409  12.632  19.756  0.00  0.00    +0.000 A 
ATOM     12  C   UNL     1      -1.363  11.533  20.321  0.00  0.00    +0.000 C 
ATOM     13  C   UNL     1      -0.863  11.145  21.733  0.00  0.00    +0.000 C 
ATOM     14  C   UNL     1      -0.920  12.331  22.696  0.00  0.00    +0.000 C 
ATOM     15  N   UNL     1      -2.253  12.950  22.721  0.00  0.00    +0.000 NA
ATOM     16  C   UNL     1      -2.303  14.038  23.688  0.00  0.00    +0.000 C 
ATOM     17  C   UNL     1      -1.527  10.264  19.458  0.00  0.00    +0.000 C 
ATOM     18  C   UNL     1      -2.151  10.554  18.106  0.00  0.00    +0.000 C 
ATOM     19  O   UNL     1      -1.812   9.916  17.112  0.00  0.00    +0.000 OA
ENDROOT
BRANCH   1  21
ATOM     20  C   UNL     1      -5.448  11.951  17.171  0.00  0.00    +0.000 C 
ATOM     21  O   UNL     1      -4.050  11.806  16.938  0.00  0.00    +0.000 OA
ENDBRANCH   1  21
BRANCH   9  22
ATOM     22  O   UNL     1       2.840  13.198  18.028  0.00  0.00    +0.000 OA
ATOM     23  C   UNL     1       3.931  14.102  18.156  0.00  0.00    +0.000 C 
ENDBRANCH   9  22
BRANCH  10  24
ATOM     24  O   UNL     1       1.482  11.162  19.505  0.00  0.00    +0.000 OA
BRANCH  24  25
ATOM     25  C   UNL     1       1.442  10.268  18.368  0.00  0.00    +0.000 C 
BRANCH  25  26
ATOM     26  C   UNL     1       2.003   8.881  18.561  0.00  0.00    +0.000 A 
ATOM     27  C   UNL     1       2.825   8.238  17.636  0.00  0.00    +0.000 A 
ATOM     28  C   UNL     1       3.314   6.954  17.907  0.00  0.00    +0.000 A 
ATOM     29  C   UNL     1       2.995   6.316  19.111  0.00  0.00    +0.000 A 
ATOM     30  C   UNL     1       2.199   6.957  20.054  0.00  0.00    +0.000 A 
ATOM     31  C   UNL     1       1.717   8.228  19.775  0.00  0.00    +0.000 A 
ATOM     32  F   UNL     1       0.961   8.843  20.700  0.00  0.00    +0.000 F 
ENDBRANCH  25  26
ENDBRANCH  24  25
ENDBRANCH  10  24
TORSDOF 5
ENDMDL
MODEL 7
REMARK VINA RESULT:      -6.7      1.666      2.076
REMARK  Name = 
REMARK  8 active torsions:
REMARK  status: ('A' for Active; 'I' for Inactive)
REMARK    1  A    between atoms: C_1  and  O_2
REMARK    2  A    between atoms: O_2  and  C_3
REMARK    3  A    between atoms: C_11  and  O_12
REMARK    4  A    between atoms: O_12  and  C_13
REMARK    5  A    between atoms: C_14  and  O_15
REMARK    6  A    between atoms: O_15  and  C_16
REMARK    7  A    between atoms: C_16  and  C_17
REMARK    8  A    between atoms: N_28  and  C_29
REMARK                            x       y       z     vdW  Elec       q    Type
REMARK                         _______ _______ _______ _____ _____    ______ ____
ROOT
ATOM      1  C   UNL     1       1.589  13.775  18.781  0.00  0.00    +0.000 C 
ATOM      2  C   UNL     1       1.893  12.691  19.514  0.00  0.00    +0.000 C 
ATOM      3  C   UNL     1       1.145  12.254  20.760  0.00  0.00    +0.000 C 
ATOM      4  C   UNL     1       1.139  10.735  21.010  0.00  0.00    +0.000 C 
ATOM      5  C   UNL     1       0.452  10.053  19.820  0.00  0.00    +0.000 C 
ATOM      6  C   UNL     1      -0.803  10.733  19.324  0.00  0.00    +0.000 A 
ATOM      7  C   UNL     1      -1.543   9.997  18.389  0.00  0.00    +0.000 A 
ATOM      8  C   UNL     1      -2.742  10.474  17.896  0.00  0.00    +0.000 A 
ATOM      9  C   UNL     1      -3.267  11.667  18.378  0.00  0.00    +0.000 A 
ATOM     10  C   UNL     1      -2.577  12.381  19.412  0.00  0.00    +0.000 A 
ATOM     11  C   UNL     1      -1.254  11.995  19.795  0.00  0.00    +0.000 A 
ATOM     12  C   UNL     1      -0.337  12.767  20.796  0.00  0.00    +0.000 C 
ATOM     13  C   UNL     1      -0.855  12.494  22.228  0.00  0.00    +0.000 C 
ATOM     14  C   UNL     1      -0.765  11.010  22.586  0.00  0.00    +0.000 C 
ATOM     15  N   UNL     1       0.587  10.476  22.365  0.00  0.00    +0.000 NA
ATOM     16  C   UNL     1       0.666   9.079  22.767  0.00  0.00    +0.000 C 
ATOM     17  C   UNL     1      -0.209  14.288  20.568  0.00  0.00    +0.000 C 
ATOM     18  C   UNL     1       0.430  14.627  19.234  0.00  0.00    +0.000 C 
ATOM     19  O   UNL     1       0.075  15.623  18.607  0.00  0.00    +0.000 OA
ENDROOT
BRANCH   1  21
ATOM     20  C   UNL     1       3.465  14.939  17.900  0.00  0.00    +0.000 C 
ATOM     21  O   UNL     1       2.371  14.053  17.673  0.00  0.00    +0.000 OA
ENDBRANCH   1  21
BRANCH   9  22
ATOM     22  O   UNL     1      -4.476  12.146  17.936  0.00  0.00    +0.000 OA
ATOM     23  C   UNL     1      -5.150  11.507  16.859  0.00  0.00    +0.000 C 
ENDBRANCH   9  22
BRANCH  10  24
ATOM     24  O   UNL     1      -3.189  13.380  20.170  0.00  0.00    +0.000 OA
BRANCH  24  25
ATOM     25  C   UNL     1      -4.166  12.870  21.109  0.00  0.00    +0.000 C 
BRANCH  25  26
ATOM     26  C   UNL     1      -4.028  13.299  22.548  0.00  0.00    +0.000 A 
ATOM     27  C   UNL     1      -4.115  12.426  23.632  0.00  0.00    +0.000 A 
ATOM     28  C   UNL     1      -3.958  12.913  24.937  0.00  0.00    +0.000 A 
ATOM     29  C   UNL     1      -3.698  14.269  25.159  0.00  0.00    +0.000 A 
ATOM     30  C   UNL     1      -3.581  15.145  24.086  0.00  0.00    +0.000 A 
ATOM     31  C   UNL     1      -3.740  14.655  22.797  0.00  0.00    +0.000 A 
ATOM     32  F   UNL     1      -3.611  15.508  21.767  0.00  0.00    +0.000 F 
ENDBRANCH  25  26
ENDBRANCH  24  25
ENDBRANCH  10  24
TORSDOF 5
ENDMDL
MODEL 8
REMARK VINA RESULT:      -6.6      1.428      1.785
REMARK  Name = 
REMARK  8 active torsions:
REMARK  status: ('A' for Active; 'I' for Inactive)
REMARK    1  A    between atoms: C_1  and  O_2
REMARK    2  A    between atoms: O_2  and  C_3
REMARK    3  A    between atoms: C_11  and  O_12
REMARK    4  A    between atoms: O_12  and  C_13
REMARK    5  A    between atoms: C_14  and  O_15
REMARK    6  A    between atoms: O_15  and  C_16
REMARK    7  A    between atoms: C_16  and  C_17
REMARK    8  A    between atoms: N_28  and  C_29
REMARK                            x       y       z     vdW  Elec       q    Type
REMARK                         _______ _______ _______ _____ _____    ______ ____
ROOT
ATOM      1  C   UNL     1       1.175  14.036  19.180  0.00  0.00    +0.000 C 
ATOM      2  C   UNL     1       1.485  12.994  19.968  0.00  0.00    +0.000 C 
ATOM      3  C   UNL     1       0.645  12.515  21.136  0.00  0.00    +0.000 C 
ATOM      4  C   UNL     1       0.735  11.005  21.423  0.00  0.00    +0.000 C 
ATOM      5  C   UNL     1       0.239  10.249  20.183  0.00  0.00    +0.000 C 
ATOM      6  C   UNL     1      -1.006  10.814  19.539  0.00  0.00    +0.000 A 
ATOM      7  C   UNL     1      -1.577  10.004  18.549  0.00  0.00    +0.000 A 
ATOM      8  C   UNL     1      -2.750  10.371  17.918  0.00  0.00    +0.000 A 
ATOM      9  C   UNL     1      -3.420  11.523  18.312  0.00  0.00    +0.000 A 
ATOM     10  C   UNL     1      -2.907  12.308  19.396  0.00  0.00    +0.000 A 
ATOM     11  C   UNL     1      -1.607  12.041  19.928  0.00  0.00    +0.000 A 
ATOM     12  C   UNL     1      -0.870  12.902  21.001  0.00  0.00    +0.000 C 
ATOM     13  C   UNL     1      -1.516  12.610  22.376  0.00  0.00    +0.000 C 
ATOM     14  C   UNL     1      -1.344  11.144  22.778  0.00  0.00    +0.000 C 
ATOM     15  N   UNL     1       0.062  10.722  22.716  0.00  0.00    +0.000 NA
ATOM     16  C   UNL     1       0.211   9.343  23.159  0.00  0.00    +0.000 C 
ATOM     17  C   UNL     1      -0.843  14.425  20.751  0.00  0.00    +0.000 C 
ATOM     18  C   UNL     1      -0.092  14.795  19.485  0.00  0.00    +0.000 C 
ATOM     19  O   UNL     1      -0.457  15.748  18.800  0.00  0.00    +0.000 OA
ENDROOT
BRANCH   1  21
ATOM     20  C   UNL     1       3.427  14.128  18.425  0.00  0.00    +0.000 C 
ATOM     21  O   UNL     1       2.047  14.362  18.156  0.00  0.00    +0.000 OA
ENDBRANCH   1  21
BRANCH   9  22
ATOM     22  O   UNL     1      -4.610  11.892  17.732  0.00  0.00    +0.000 OA
ATOM     23  C   UNL     1      -5.766  11.079  17.890  0.00  0.00    +0.000 C 
ENDBRANCH   9  22
BRANCH  10  24
ATOM     24  O   UNL     1      -3.678  13.264  20.060  0.00  0.00    +0.000 OA
BRANCH  24  25
ATOM     25  C   UNL     1      -4.663  12.689  20.950  0.00  0.00    +0.000 C 
BRANCH  25  26
ATOM     26  C   UNL     1      -5.288  13.607  21.970  0.00  0.00    +0.000 A 
ATOM     27  C   UNL     1      -6.227  13.195  22.916  0.00  0.00    +0.000 A 
ATOM     28  C   UNL     1      -6.743  14.115  23.837  0.00  0.00    +0.000 A 
ATOM     29  C   UNL     1      -6.310  15.446  23.826  0.00  0.00    +0.000 A 
ATOM     30  C   UNL     1      -5.354  15.863  22.907  0.00  0.00    +0.000 A 
ATOM     31  C   UNL     1      -4.850  14.945  21.996  0.00  0.00    +0.000 A 
ATOM     32  F   UNL     1      -3.916  15.355  21.122  0.00  0.00    +0.000 F 
ENDBRANCH  25  26
ENDBRANCH  24  25
ENDBRANCH  10  24
TORSDOF 5
ENDMDL
MODEL 9
REMARK VINA RESULT:      -6.6      2.887      6.696
REMARK  Name = 
REMARK  8 active torsions:
REMARK  status: ('A' for Active; 'I' for Inactive)
REMARK    1  A    between atoms: C_1  and  O_2
REMARK    2  A    between atoms: O_2  and  C_3
REMARK    3  A    between atoms: C_11  and  O_12
REMARK    4  A    between atoms: O_12  and  C_13
REMARK    5  A    between atoms: C_14  and  O_15
REMARK    6  A    between atoms: O_15  and  C_16
REMARK    7  A    between atoms: C_16  and  C_17
REMARK    8  A    between atoms: N_28  and  C_29
REMARK                            x       y       z     vdW  Elec       q    Type
REMARK                         _______ _______ _______ _____ _____    ______ ____
ROOT
ATOM      1  C   UNL     1      -3.214  11.546  18.156  0.00  0.00    +0.000 C 
ATOM      2  C   UNL     1      -3.571  12.297  19.212  0.00  0.00    +0.000 C 
ATOM      3  C   UNL     1      -2.891  12.258  20.568  0.00  0.00    +0.000 C 
ATOM      4  C   UNL     1      -2.921  13.587  21.344  0.00  0.00    +0.000 C 
ATOM      5  C   UNL     1      -2.188  14.648  20.513  0.00  0.00    +0.000 C 
ATOM      6  C   UNL     1      -0.899  14.186  19.871  0.00  0.00    +0.000 A 
ATOM      7  C   UNL     1      -0.126  15.206  19.300  0.00  0.00    +0.000 A 
ATOM      8  C   UNL     1       1.102  14.933  18.730  0.00  0.00    +0.000 A 
ATOM      9  C   UNL     1       1.622  13.645  18.781  0.00  0.00    +0.000 A 
ATOM     10  C   UNL     1       0.893  12.611  19.455  0.00  0.00    +0.000 A 
ATOM     11  C   UNL     1      -0.452  12.838  19.883  0.00  0.00    +0.000 A 
ATOM     12  C   UNL     1      -1.404  11.762  20.494  0.00  0.00    +0.000 C 
ATOM     13  C   UNL     1      -0.961  11.504  21.953  0.00  0.00    +0.000 C 
ATOM     14  C   UNL     1      -1.092  12.762  22.813  0.00  0.00    +0.000 C 
ATOM     15  N   UNL     1      -2.439  13.343  22.728  0.00  0.00    +0.000 NA
ATOM     16  C   UNL     1      -2.560  14.505  23.598  0.00  0.00    +0.000 C 
ATOM     17  C   UNL     1      -1.497  10.423  19.732  0.00  0.00    +0.000 C 
ATOM     18  C   UNL     1      -2.065  10.585  18.334  0.00  0.00    +0.000 C 
ATOM     19  O   UNL     1      -1.665   9.878  17.412  0.00  0.00    +0.000 OA
ENDROOT
BRANCH   1  21
ATOM     20  C   UNL     1      -5.317  12.003  17.146  0.00  0.00    +0.000 C 
ATOM     21  O   UNL     1      -3.937  11.683  16.984  0.00  0.00    +0.000 OA
ENDBRANCH   1  21
BRANCH   9  22
ATOM     22  O   UNL     1       2.859  13.353  18.260  0.00  0.00    +0.000 OA
ATOM     23  C   UNL     1       3.895  14.327  18.284  0.00  0.00    +0.000 C 
ENDBRANCH   9  22
BRANCH  10  24
ATOM     24  O   UNL     1       1.484  11.406  19.837  0.00  0.00    +0.000 OA
BRANCH  24  25
ATOM     25  C   UNL     1       1.520  10.422  18.777  0.00  0.00    +0.000 C 
BRANCH  25  26
ATOM     26  C   UNL     1       1.760   8.988  19.175  0.00  0.00    +0.000 A 
ATOM     27  C   UNL     1       1.430   8.461  20.424  0.00  0.00    +0.000 A 
ATOM     28  C   UNL     1       1.676   7.109  20.700  0.00  0.00    +0.000 A 
ATOM     29  C   UNL     1       2.236   6.279  19.724  0.00  0.00    +0.000 A 
ATOM     30  C   UNL     1       2.544   6.784  18.467  0.00  0.00    +0.000 A 
ATOM     31  C   UNL     1       2.300   8.125  18.202  0.00  0.00    +0.000 A 
ATOM     32  F   UNL     1       2.588   8.600  16.979  0.00  0.00    +0.000 F 
ENDBRANCH  25  26
ENDBRANCH  24  25
ENDBRANCH  10  24
TORSDOF 5
ENDMDL
