MODEL 1
REMARK VINA RESULT:      -7.8      0.000      0.000
REMARK  Name = 
REMARK  9 active torsions:
REMARK  status: ('A' for Active; 'I' for Inactive)
REMARK    1  A    between atoms: C_1  and  O_2
REMARK    2  A    between atoms: O_2  and  C_3
REMARK    3  A    between atoms: C_7  and  N_8
REMARK    4  A    between atoms: C_9  and  C_11
REMARK    5  A    between atoms: C_11  and  O_12
REMARK    6  A    between atoms: O_12  and  C_13
REMARK    7  A    between atoms: C_13  and  C_15
REMARK    8  A    between atoms: C_15  and  N_16
REMARK    9  A    between atoms: C_17  and  C_19
REMARK                            x       y       z     vdW  Elec       q    Type
REMARK                         _______ _______ _______ _____ _____    ______ ____
ROOT
ATOM      1  O   UNL     1       2.616   2.469  20.443  0.00  0.00    +0.000 OA
ENDROOT
BRANCH   1   2
ATOM      2  C   UNL     1       3.431   2.602  19.357  0.00  0.00    +0.000 C 
ATOM      3  O   UNL     1       3.106   2.370  18.200  0.00  0.00    +0.000 OA
BRANCH   2   4
ATOM      4  C   UNL     1       4.796   3.133  19.769  0.00  0.00    +0.000 C 
BRANCH   4   5
ATOM      5  N   UNL     1       5.595   3.537  18.627  0.00  0.00    +0.000 N 
ATOM      6  C   UNL     1       6.498   4.571  18.739  0.00  0.00    +0.000 C 
ATOM      7  O   UNL     1       6.724   5.108  19.819  0.00  0.00    +0.000 OA
ATOM      8  H   UNL     1       5.434   3.087  17.735  0.00  0.00    +0.000 HD
BRANCH   6   9
ATOM      9  C   UNL     1       7.188   4.974  17.429  0.00  0.00    +0.000 C 
ATOM     10  C   UNL     1       6.508   4.344  16.205  0.00  0.00    +0.000 C 
ATOM     11  C   UNL     1       5.122   4.938  15.954  0.00  0.00    +0.000 C 
ATOM     12  C   UNL     1       5.174   6.457  15.806  0.00  0.00    +0.000 C 
ATOM     13  C   UNL     1       5.880   7.123  16.982  0.00  0.00    +0.000 C 
ATOM     14  C   UNL     1       7.252   6.500  17.249  0.00  0.00    +0.000 C 
ENDBRANCH   6   9
ENDBRANCH   4   5
ENDBRANCH   2   4
ENDBRANCH   1   2
BRANCH   1  15
ATOM     15  C   UNL     1       2.498   3.640  21.249  0.00  0.00    +0.000 C 
BRANCH  15  17
ATOM     16  N   UNL     1       2.601   5.891  20.305  0.00  0.00    +0.000 N 
ATOM     17  C   UNL     1       1.792   4.784  20.522  0.00  0.00    +0.000 C 
ATOM     18  O   UNL     1       0.628   4.636  20.150  0.00  0.00    +0.000 OA
ATOM     19  H   UNL     1       3.562   5.813  20.620  0.00  0.00    +0.000 HD
BRANCH  16  24
ATOM     20  C   UNL     1       1.097   9.273  19.957  0.00  0.00    +0.000 A 
ATOM     21  C   UNL     1       1.342   9.550  18.614  0.00  0.00    +0.000 A 
ATOM     22  C   UNL     1       2.031   8.631  17.825  0.00  0.00    +0.000 A 
ATOM     23  C   UNL     1       2.462   7.428  18.377  0.00  0.00    +0.000 A 
ATOM     24  C   UNL     1       2.213   7.118  19.713  0.00  0.00    +0.000 A 
ATOM     25  C   UNL     1       1.526   8.054  20.504  0.00  0.00    +0.000 A 
BRANCH  20  27
ATOM     26  C   UNL     1       0.975  11.509  20.723  0.00  0.00    +0.000 C 
ATOM     27  O   UNL     1       0.373  10.224  20.625  0.00  0.00    +0.000 OA
ENDBRANCH  20  27
ENDBRANCH  16  24
ENDBRANCH  15  17
ENDBRANCH   1  15
TORSDOF 8
ENDMDL
MODEL 2
REMARK VINA RESULT:      -7.7      1.000      1.445
REMARK  Name = 
REMARK  9 active torsions:
REMARK  status: ('A' for Active; 'I' for Inactive)
REMARK    1  A    between atoms: C_1  and  O_2
REMARK    2  A    between atoms: O_2  and  C_3
REMARK    3  A    between atoms: C_7  and  N_8
REMARK    4  A    between atoms: C_9  and  C_11
REMARK    5  A    between atoms: C_11  and  O_12
REMARK    6  A    between atoms: O_12  and  C_13
REMARK    7  A    between atoms: C_13  and  C_15
REMARK    8  A    between atoms: C_15  and  N_16
REMARK    9  A    between atoms: C_17  and  C_19
REMARK                            x       y       z     vdW  Elec       q    Type
REMARK                         _______ _______ _______ _____ _____    ______ ____
ROOT
ATOM      1  O   UNL     1       2.652   2.549  20.737  0.00  0.00    +0.000 OA
ENDROOT
BRANCH   1   2
ATOM      2  C   UNL     1       3.766   2.345  19.977  0.00  0.00    +0.000 C 
ATOM      3  O   UNL     1       4.860   2.006  20.406  0.00  0.00    +0.000 OA
BRANCH   2   4
ATOM      4  C   UNL     1       3.455   2.543  18.500  0.00  0.00    +0.000 C 
BRANCH   4   5
ATOM      5  N   UNL     1       4.632   2.910  17.736  0.00  0.00    +0.000 N 
ATOM      6  C   UNL     1       5.199   4.156  17.885  0.00  0.00    +0.000 C 
ATOM      7  O   UNL     1       4.792   4.947  18.730  0.00  0.00    +0.000 OA
ATOM      8  H   UNL     1       4.992   2.257  17.050  0.00  0.00    +0.000 HD
BRANCH   6   9
ATOM      9  C   UNL     1       6.364   4.456  16.932  0.00  0.00    +0.000 C 
ATOM     10  C   UNL     1       6.080   5.676  16.044  0.00  0.00    +0.000 C 
ATOM     11  C   UNL     1       6.068   6.976  16.848  0.00  0.00    +0.000 C 
ATOM     12  C   UNL     1       7.371   7.177  17.620  0.00  0.00    +0.000 C 
ATOM     13  C   UNL     1       7.716   5.970  18.486  0.00  0.00    +0.000 C 
ATOM     14  C   UNL     1       7.691   4.668  17.681  0.00  0.00    +0.000 C 
ENDBRANCH   6   9
ENDBRANCH   4   5
ENDBRANCH   2   4
ENDBRANCH   1   2
BRANCH   1  15
ATOM     15  C   UNL     1       2.625   3.792  21.436  0.00  0.00    +0.000 C 
BRANCH  15  17
ATOM     16  N   UNL     1       2.665   5.981  20.352  0.00  0.00    +0.000 N 
ATOM     17  C   UNL     1       1.878   4.881  20.667  0.00  0.00    +0.000 C 
ATOM     18  O   UNL     1       0.703   4.699  20.349  0.00  0.00    +0.000 OA
ATOM     19  H   UNL     1       3.637   5.933  20.635  0.00  0.00    +0.000 HD
BRANCH  16  24
ATOM     20  C   UNL     1       0.963   9.240  19.805  0.00  0.00    +0.000 A 
ATOM     21  C   UNL     1       1.290   9.506  18.477  0.00  0.00    +0.000 A 
ATOM     22  C   UNL     1       2.098   8.622  17.766  0.00  0.00    +0.000 A 
ATOM     23  C   UNL     1       2.567   7.463  18.379  0.00  0.00    +0.000 A 
ATOM     24  C   UNL     1       2.239   7.165  19.701  0.00  0.00    +0.000 A 
ATOM     25  C   UNL     1       1.431   8.067  20.414  0.00  0.00    +0.000 A 
BRANCH  20  27
ATOM     26  C   UNL     1       0.631  10.805  21.549  0.00  0.00    +0.000 C 
ATOM     27  O   UNL     1       0.126  10.152  20.391  0.00  0.00    +0.000 OA
ENDBRANCH  20  27
ENDBRANCH  16  24
ENDBRANCH  15  17
ENDBRANCH   1  15
TORSDOF 8
ENDMDL
MODEL 3
REMARK VINA RESULT:      -7.7      1.331      2.293
REMARK  Name = 
REMARK  9 active torsions:
REMARK  status: ('A' for Active; 'I' for Inactive)
REMARK    1  A    between atoms: C_1  and  O_2
REMARK    2  A    between atoms: O_2  and  C_3
REMARK    3  A    between atoms: C_7  and  N_8
REMARK    4  A    between atoms: C_9  and  C_11
REMARK    5  A    between atoms: C_11  and  O_12
REMARK    6  A    between atoms: O_12  and  C_13
REMARK    7  A    between atoms: C_13  and  C_15
REMARK    8  A    between atoms: C_15  and  N_16
REMARK    9  A    between atoms: C_17  and  C_19
REMARK                            x       y       z     vdW  Elec       q    Type
REMARK                         _______ _______ _______ _____ _____    ______ ____
ROOT
ATOM      1  O   UNL     1       2.787   2.532  20.222  0.00  0.00    +0.000 OA
ENDROOT
BRANCH   1   2
ATOM      2  C   UNL     1       3.950   2.262  19.563  0.00  0.00    +0.000 C 
ATOM      3  O   UNL     1       5.047   2.138  20.090  0.00  0.00    +0.000 OA
BRANCH   2   4
ATOM      4  C   UNL     1       3.696   2.081  18.073  0.00  0.00    +0.000 C 
BRANCH   4   5
ATOM      5  N   UNL     1       4.611   2.861  17.261  0.00  0.00    +0.000 N 
ATOM      6  C   UNL     1       4.314   4.165  16.935  0.00  0.00    +0.000 C 
ATOM      7  O   UNL     1       3.328   4.732  17.396  0.00  0.00    +0.000 OA
ATOM      8  H   UNL     1       5.441   2.412  16.892  0.00  0.00    +0.000 HD
BRANCH   6   9
ATOM      9  C   UNL     1       5.307   4.835  15.974  0.00  0.00    +0.000 C 
ATOM     10  C   UNL     1       5.229   6.366  16.045  0.00  0.00    +0.000 C 
ATOM     11  C   UNL     1       5.760   6.904  17.373  0.00  0.00    +0.000 C 
ATOM     12  C   UNL     1       7.188   6.435  17.645  0.00  0.00    +0.000 C 
ATOM     13  C   UNL     1       7.322   4.919  17.545  0.00  0.00    +0.000 C 
ATOM     14  C   UNL     1       6.757   4.385  16.227  0.00  0.00    +0.000 C 
ENDBRANCH   6   9
ENDBRANCH   4   5
ENDBRANCH   2   4
ENDBRANCH   1   2
BRANCH   1  15
ATOM     15  C   UNL     1       2.851   3.639  21.119  0.00  0.00    +0.000 C 
BRANCH  15  17
ATOM     16  N   UNL     1       2.551   6.009  20.608  0.00  0.00    +0.000 N 
ATOM     17  C   UNL     1       1.917   4.778  20.714  0.00  0.00    +0.000 C 
ATOM     18  O   UNL     1       0.735   4.533  20.471  0.00  0.00    +0.000 OA
ATOM     19  H   UNL     1       3.550   6.015  20.780  0.00  0.00    +0.000 HD
BRANCH  16  24
ATOM     20  C   UNL     1       1.652   9.092  18.737  0.00  0.00    +0.000 A 
ATOM     21  C   UNL     1       0.826   9.743  19.651  0.00  0.00    +0.000 A 
ATOM     22  C   UNL     1       0.541   9.150  20.880  0.00  0.00    +0.000 A 
ATOM     23  C   UNL     1       1.094   7.913  21.199  0.00  0.00    +0.000 A 
ATOM     24  C   UNL     1       1.939   7.251  20.310  0.00  0.00    +0.000 A 
ATOM     25  C   UNL     1       2.213   7.851  19.069  0.00  0.00    +0.000 A 
BRANCH  20  27
ATOM     26  C   UNL     1       2.330  11.132  17.747  0.00  0.00    +0.000 C 
ATOM     27  O   UNL     1       1.901   9.787  17.583  0.00  0.00    +0.000 OA
ENDBRANCH  20  27
ENDBRANCH  16  24
ENDBRANCH  15  17
ENDBRANCH   1  15
TORSDOF 8
ENDMDL
MODEL 4
REMARK VINA RESULT:      -7.7      1.099      1.592
REMARK  Name = 
REMARK  9 active torsions:
REMARK  status: ('A' for Active; 'I' for Inactive)
REMARK    1  A    between atoms: C_1  and  O_2
REMARK    2  A    between atoms: O_2  and  C_3
REMARK    3  A    between atoms: C_7  and  N_8
REMARK    4  A    between atoms: C_9  and  C_11
REMARK    5  A    between atoms: C_11  and  O_12
REMARK    6  A    between atoms: O_12  and  C_13
REMARK    7  A    between atoms: C_13  and  C_15
REMARK    8  A    between atoms: C_15  and  N_16
REMARK    9  A    between atoms: C_17  and  C_19
REMARK                            x       y       z     vdW  Elec       q    Type
REMARK                         _______ _______ _______ _____ _____    ______ ____
ROOT
ATOM      1  O   UNL     1       2.548   2.234  19.867  0.00  0.00    +0.000 OA
ENDROOT
BRANCH   1   2
ATOM      2  C   UNL     1       3.589   2.444  19.011  0.00  0.00    +0.000 C 
ATOM      3  O   UNL     1       3.528   2.355  17.792  0.00  0.00    +0.000 OA
BRANCH   2   4
ATOM      4  C   UNL     1       4.839   2.859  19.773  0.00  0.00    +0.000 C 
BRANCH   4   5
ATOM      5  N   UNL     1       5.796   3.544  18.925  0.00  0.00    +0.000 N 
ATOM      6  C   UNL     1       5.868   4.919  18.925  0.00  0.00    +0.000 C 
ATOM      7  O   UNL     1       5.204   5.595  19.705  0.00  0.00    +0.000 OA
ATOM      8  H   UNL     1       6.367   2.997  18.292  0.00  0.00    +0.000 HD
BRANCH   6   9
ATOM      9  C   UNL     1       6.838   5.518  17.896  0.00  0.00    +0.000 C 
ATOM     10  C   UNL     1       7.215   4.505  16.806  0.00  0.00    +0.000 C 
ATOM     11  C   UNL     1       6.035   4.189  15.887  0.00  0.00    +0.000 C 
ATOM     12  C   UNL     1       5.454   5.452  15.256  0.00  0.00    +0.000 C 
ATOM     13  C   UNL     1       5.102   6.506  16.302  0.00  0.00    +0.000 C 
ATOM     14  C   UNL     1       6.278   6.791  17.239  0.00  0.00    +0.000 C 
ENDBRANCH   6   9
ENDBRANCH   4   5
ENDBRANCH   2   4
ENDBRANCH   1   2
BRANCH   1  15
ATOM     15  C   UNL     1       2.459   3.170  20.940  0.00  0.00    +0.000 C 
BRANCH  15  17
ATOM     16  N   UNL     1       2.421   5.572  20.500  0.00  0.00    +0.000 N 
ATOM     17  C   UNL     1       1.656   4.415  20.569  0.00  0.00    +0.000 C 
ATOM     18  O   UNL     1       0.456   4.308  20.319  0.00  0.00    +0.000 OA
ATOM     19  H   UNL     1       3.414   5.464  20.671  0.00  0.00    +0.000 HD
BRANCH  16  24
ATOM     20  C   UNL     1       1.851   8.781  18.711  0.00  0.00    +0.000 A 
ATOM     21  C   UNL     1       1.116   9.498  19.652  0.00  0.00    +0.000 A 
ATOM     22  C   UNL     1       0.782   8.912  20.871  0.00  0.00    +0.000 A 
ATOM     23  C   UNL     1       1.196   7.614  21.155  0.00  0.00    +0.000 A 
ATOM     24  C   UNL     1       1.949   6.882  20.238  0.00  0.00    +0.000 A 
ATOM     25  C   UNL     1       2.274   7.476  19.007  0.00  0.00    +0.000 A 
BRANCH  20  27
ATOM     26  C   UNL     1       2.215  10.885  17.691  0.00  0.00    +0.000 C 
ATOM     27  O   UNL     1       2.162   9.469  17.569  0.00  0.00    +0.000 OA
ENDBRANCH  20  27
ENDBRANCH  16  24
ENDBRANCH  15  17
ENDBRANCH   1  15
TORSDOF 8
ENDMDL
MODEL 5
REMARK VINA RESULT:      -7.4      4.779      7.488
REMARK  Name = 
REMARK  9 active torsions:
REMARK  status: ('A' for Active; 'I' for Inactive)
REMARK    1  A    between atoms: C_1  and  O_2
REMARK    2  A    between atoms: O_2  and  C_3
REMARK    3  A    between atoms: C_7  and  N_8
REMARK    4  A    between atoms: C_9  and  C_11
REMARK    5  A    between atoms: C_11  and  O_12
REMARK    6  A    between atoms: O_12  and  C_13
REMARK    7  A    between atoms: C_13  and  C_15
REMARK    8  A    between atoms: C_15  and  N_16
REMARK    9  A    between atoms: C_17  and  C_19
REMARK                            x       y       z     vdW  Elec       q    Type
REMARK                         _______ _______ _______ _____ _____    ______ ____
ROOT
ATOM      1  O   UNL     1       8.081   6.804  18.821  0.00  0.00    +0.000 OA
ENDROOT
BRANCH   1   2
ATOM      2  C   UNL     1       7.509   5.572  18.707  0.00  0.00    +0.000 C 
ATOM      3  O   UNL     1       8.107   4.539  18.438  0.00  0.00    +0.000 OA
BRANCH   2   4
ATOM      4  C   UNL     1       6.020   5.638  19.016  0.00  0.00    +0.000 C 
BRANCH   4   5
ATOM      5  N   UNL     1       5.446   4.324  19.233  0.00  0.00    +0.000 N 
ATOM      6  C   UNL     1       4.372   3.900  18.482  0.00  0.00    +0.000 C 
ATOM      7  O   UNL     1       3.936   4.572  17.552  0.00  0.00    +0.000 OA
ATOM      8  H   UNL     1       5.810   3.749  19.983  0.00  0.00    +0.000 HD
BRANCH   6   9
ATOM      9  C   UNL     1       3.788   2.542  18.894  0.00  0.00    +0.000 C 
ATOM     10  C   UNL     1       3.460   2.489  20.393  0.00  0.00    +0.000 C 
ATOM     11  C   UNL     1       2.279   3.391  20.751  0.00  0.00    +0.000 C 
ATOM     12  C   UNL     1       1.038   3.054  19.927  0.00  0.00    +0.000 C 
ATOM     13  C   UNL     1       1.327   3.055  18.429  0.00  0.00    +0.000 C 
ATOM     14  C   UNL     1       2.532   2.177  18.083  0.00  0.00    +0.000 C 
ENDBRANCH   6   9
ENDBRANCH   4   5
ENDBRANCH   2   4
ENDBRANCH   1   2
BRANCH   1  15
ATOM     15  C   UNL     1       7.827   7.685  17.727  0.00  0.00    +0.000 C 
BRANCH  15  17
ATOM     16  N   UNL     1       9.121   9.274  19.057  0.00  0.00    +0.000 N 
ATOM     17  C   UNL     1       8.176   9.137  18.049  0.00  0.00    +0.000 C 
ATOM     18  O   UNL     1       7.661  10.042  17.392  0.00  0.00    +0.000 OA
ATOM     19  H   UNL     1       9.492   8.413  19.444  0.00  0.00    +0.000 HD
BRANCH  16  24
ATOM     20  C   UNL     1      11.046  12.437  19.386  0.00  0.00    +0.000 A 
ATOM     21  C   UNL     1      10.647  12.876  20.647  0.00  0.00    +0.000 A 
ATOM     22  C   UNL     1       9.719  12.142  21.381  0.00  0.00    +0.000 A 
ATOM     23  C   UNL     1       9.200  10.959  20.860  0.00  0.00    +0.000 A 
ATOM     24  C   UNL     1       9.596  10.488  19.609  0.00  0.00    +0.000 A 
ATOM     25  C   UNL     1      10.526  11.240  18.871  0.00  0.00    +0.000 A 
BRANCH  20  27
ATOM     26  C   UNL     1      11.513  14.345  18.065  0.00  0.00    +0.000 C 
ATOM     27  O   UNL     1      11.996  13.211  18.774  0.00  0.00    +0.000 OA
ENDBRANCH  20  27
ENDBRANCH  16  24
ENDBRANCH  15  17
ENDBRANCH   1  15
TORSDOF 8
ENDMDL
MODEL 6
REMARK VINA RESULT:      -7.3      4.583      7.207
REMARK  Name = 
REMARK  9 active torsions:
REMARK  status: ('A' for Active; 'I' for Inactive)
REMARK    1  A    between atoms: C_1  and  O_2
REMARK    2  A    between atoms: O_2  and  C_3
REMARK    3  A    between atoms: C_7  and  N_8
REMARK    4  A    between atoms: C_9  and  C_11
REMARK    5  A    between atoms: C_11  and  O_12
REMARK    6  A    between atoms: O_12  and  C_13
REMARK    7  A    between atoms: C_13  and  C_15
REMARK    8  A    between atoms: C_15  and  N_16
REMARK    9  A    between atoms: C_17  and  C_19
REMARK                            x       y       z     vdW  Elec       q    Type
REMARK                         _______ _______ _______ _____ _____    ______ ____
ROOT
ATOM      1  O   UNL     1       6.685   6.433  17.811  0.00  0.00    +0.000 OA
ENDROOT
BRANCH   1   2
ATOM      2  C   UNL     1       6.781   5.641  16.705  0.00  0.00    +0.000 C 
ATOM      3  O   UNL     1       7.581   5.798  15.793  0.00  0.00    +0.000 OA
BRANCH   2   4
ATOM      4  C   UNL     1       5.789   4.489  16.778  0.00  0.00    +0.000 C 
BRANCH   4   5
ATOM      5  N   UNL     1       4.467   4.928  17.185  0.00  0.00    +0.000 N 
ATOM      6  C   UNL     1       3.680   4.125  17.978  0.00  0.00    +0.000 C 
ATOM      7  O   UNL     1       4.104   3.070  18.442  0.00  0.00    +0.000 OA
ATOM      8  H   UNL     1       4.113   5.807  16.827  0.00  0.00    +0.000 HD
BRANCH   6   9
ATOM      9  C   UNL     1       2.263   4.656  18.235  0.00  0.00    +0.000 C 
ATOM     10  C   UNL     1       1.229   3.523  18.307  0.00  0.00    +0.000 C 
ATOM     11  C   UNL     1       1.409   2.666  19.560  0.00  0.00    +0.000 C 
ATOM     12  C   UNL     1       1.360   3.507  20.834  0.00  0.00    +0.000 C 
ATOM     13  C   UNL     1       2.344   4.672  20.790  0.00  0.00    +0.000 C 
ATOM     14  C   UNL     1       2.181   5.504  19.516  0.00  0.00    +0.000 C 
ENDBRANCH   6   9
ENDBRANCH   4   5
ENDBRANCH   2   4
ENDBRANCH   1   2
BRANCH   1  15
ATOM     15  C   UNL     1       7.932   6.895  18.326  0.00  0.00    +0.000 C 
BRANCH  15  17
ATOM     16  N   UNL     1       9.027   8.955  19.052  0.00  0.00    +0.000 N 
ATOM     17  C   UNL     1       8.111   8.404  18.166  0.00  0.00    +0.000 C 
ATOM     18  O   UNL     1       7.501   8.993  17.273  0.00  0.00    +0.000 OA
ATOM     19  H   UNL     1       9.490   8.306  19.679  0.00  0.00    +0.000 HD
BRANCH  16  24
ATOM     20  C   UNL     1      10.123  12.380  18.113  0.00  0.00    +0.000 A 
ATOM     21  C   UNL     1      10.094  13.030  19.345  0.00  0.00    +0.000 A 
ATOM     22  C   UNL     1       9.685  12.344  20.487  0.00  0.00    +0.000 A 
ATOM     23  C   UNL     1       9.319  11.004  20.398  0.00  0.00    +0.000 A 
ATOM     24  C   UNL     1       9.357  10.326  19.181  0.00  0.00    +0.000 A 
ATOM     25  C   UNL     1       9.762  11.027  18.033  0.00  0.00    +0.000 A 
BRANCH  20  27
ATOM     26  C   UNL     1      11.055  14.436  17.401  0.00  0.00    +0.000 C 
ATOM     27  O   UNL     1      10.586  13.136  17.068  0.00  0.00    +0.000 OA
ENDBRANCH  20  27
ENDBRANCH  16  24
ENDBRANCH  15  17
ENDBRANCH   1  15
TORSDOF 8
ENDMDL
MODEL 7
REMARK VINA RESULT:      -7.3      4.689      7.210
REMARK  Name = 
REMARK  9 active torsions:
REMARK  status: ('A' for Active; 'I' for Inactive)
REMARK    1  A    between atoms: C_1  and  O_2
REMARK    2  A    between atoms: O_2  and  C_3
REMARK    3  A    between atoms: C_7  and  N_8
REMARK    4  A    between atoms: C_9  and  C_11
REMARK    5  A    between atoms: C_11  and  O_12
REMARK    6  A    between atoms: O_12  and  C_13
REMARK    7  A    between atoms: C_13  and  C_15
REMARK    8  A    between atoms: C_15  and  N_16
REMARK    9  A    between atoms: C_17  and  C_19
REMARK                            x       y       z     vdW  Elec       q    Type
REMARK                         _______ _______ _______ _____ _____    ______ ____
ROOT
ATOM      1  O   UNL     1       7.689   6.437  16.826  0.00  0.00    +0.000 OA
ENDROOT
BRANCH   1   2
ATOM      2  C   UNL     1       6.406   6.136  16.475  0.00  0.00    +0.000 C 
ATOM      3  O   UNL     1       5.818   6.585  15.500  0.00  0.00    +0.000 OA
BRANCH   2   4
ATOM      4  C   UNL     1       5.809   5.117  17.435  0.00  0.00    +0.000 C 
BRANCH   4   5
ATOM      5  N   UNL     1       4.380   5.295  17.605  0.00  0.00    +0.000 N 
ATOM      6  C   UNL     1       3.827   5.327  18.866  0.00  0.00    +0.000 C 
ATOM      7  O   UNL     1       4.528   5.307  19.873  0.00  0.00    +0.000 OA
ATOM      8  H   UNL     1       3.791   5.335  16.782  0.00  0.00    +0.000 HD
BRANCH   6   9
ATOM      9  C   UNL     1       2.294   5.400  18.900  0.00  0.00    +0.000 C 
ATOM     10  C   UNL     1       1.653   4.498  17.836  0.00  0.00    +0.000 C 
ATOM     11  C   UNL     1       1.843   3.015  18.156  0.00  0.00    +0.000 C 
ATOM     12  C   UNL     1       1.307   2.660  19.541  0.00  0.00    +0.000 C 
ATOM     13  C   UNL     1       1.887   3.561  20.627  0.00  0.00    +0.000 C 
ATOM     14  C   UNL     1       1.724   5.043  20.284  0.00  0.00    +0.000 C 
ENDBRANCH   6   9
ENDBRANCH   4   5
ENDBRANCH   2   4
ENDBRANCH   1   2
BRANCH   1  15
ATOM     15  C   UNL     1       7.837   6.996  18.130  0.00  0.00    +0.000 C 
BRANCH  15  17
ATOM     16  N   UNL     1       8.973   8.945  19.068  0.00  0.00    +0.000 N 
ATOM     17  C   UNL     1       8.082   8.504  18.099  0.00  0.00    +0.000 C 
ATOM     18  O   UNL     1       7.541   9.186  17.228  0.00  0.00    +0.000 OA
ATOM     19  H   UNL     1       9.379   8.231  19.662  0.00  0.00    +0.000 HD
BRANCH  16  24
ATOM     20  C   UNL     1      10.237  12.386  18.455  0.00  0.00    +0.000 A 
ATOM     21  C   UNL     1      10.180  12.937  19.734  0.00  0.00    +0.000 A 
ATOM     22  C   UNL     1       9.697  12.180  20.798  0.00  0.00    +0.000 A 
ATOM     23  C   UNL     1       9.284  10.867  20.587  0.00  0.00    +0.000 A 
ATOM     24  C   UNL     1       9.349  10.287  19.321  0.00  0.00    +0.000 A 
ATOM     25  C   UNL     1       9.829  11.060  18.251  0.00  0.00    +0.000 A 
BRANCH  20  27
ATOM     26  C   UNL     1      10.968  14.560  17.870  0.00  0.00    +0.000 C 
ATOM     27  O   UNL     1      10.772  13.203  17.494  0.00  0.00    +0.000 OA
ENDBRANCH  20  27
ENDBRANCH  16  24
ENDBRANCH  15  17
ENDBRANCH   1  15
TORSDOF 8
ENDMDL
MODEL 8
REMARK VINA RESULT:      -7.3      1.300      1.467
REMARK  Name = 
REMARK  9 active torsions:
REMARK  status: ('A' for Active; 'I' for Inactive)
REMARK    1  A    between atoms: C_1  and  O_2
REMARK    2  A    between atoms: O_2  and  C_3
REMARK    3  A    between atoms: C_7  and  N_8
REMARK    4  A    between atoms: C_9  and  C_11
REMARK    5  A    between atoms: C_11  and  O_12
REMARK    6  A    between atoms: O_12  and  C_13
REMARK    7  A    between atoms: C_13  and  C_15
REMARK    8  A    between atoms: C_15  and  N_16
REMARK    9  A    between atoms: C_17  and  C_19
REMARK                            x       y       z     vdW  Elec       q    Type
REMARK                         _______ _______ _______ _____ _____    ______ ____
ROOT
ATOM      1  O   UNL     1       3.293   2.943  20.705  0.00  0.00    +0.000 OA
ENDROOT
BRANCH   1   2
ATOM      2  C   UNL     1       2.738   2.158  19.738  0.00  0.00    +0.000 C 
ATOM      3  O   UNL     1       1.594   1.723  19.753  0.00  0.00    +0.000 OA
BRANCH   2   4
ATOM      4  C   UNL     1       3.720   1.932  18.598  0.00  0.00    +0.000 C 
BRANCH   4   5
ATOM      5  N   UNL     1       4.759   2.944  18.559  0.00  0.00    +0.000 N 
ATOM      6  C   UNL     1       4.593   4.083  17.803  0.00  0.00    +0.000 C 
ATOM      7  O   UNL     1       3.536   4.320  17.226  0.00  0.00    +0.000 OA
ATOM      8  H   UNL     1       5.628   2.771  19.049  0.00  0.00    +0.000 HD
BRANCH   6   9
ATOM      9  C   UNL     1       5.814   5.012  17.755  0.00  0.00    +0.000 C 
ATOM     10  C   UNL     1       6.988   4.379  16.996  0.00  0.00    +0.000 C 
ATOM     11  C   UNL     1       6.702   4.260  15.499  0.00  0.00    +0.000 C 
ATOM     12  C   UNL     1       6.341   5.609  14.882  0.00  0.00    +0.000 C 
ATOM     13  C   UNL     1       5.203   6.296  15.631  0.00  0.00    +0.000 C 
ATOM     14  C   UNL     1       5.482   6.380  17.134  0.00  0.00    +0.000 C 
ENDBRANCH   6   9
ENDBRANCH   4   5
ENDBRANCH   2   4
ENDBRANCH   1   2
BRANCH   1  15
ATOM     15  C   UNL     1       2.355   3.653  21.512  0.00  0.00    +0.000 C 
BRANCH  15  17
ATOM     16  N   UNL     1       2.555   5.843  20.449  0.00  0.00    +0.000 N 
ATOM     17  C   UNL     1       1.689   4.804  20.761  0.00  0.00    +0.000 C 
ATOM     18  O   UNL     1       0.500   4.717  20.452  0.00  0.00    +0.000 OA
ATOM     19  H   UNL     1       3.524   5.717  20.723  0.00  0.00    +0.000 HD
BRANCH  16  24
ATOM     20  C   UNL     1       1.161   9.256  19.970  0.00  0.00    +0.000 A 
ATOM     21  C   UNL     1       1.446   9.487  18.626  0.00  0.00    +0.000 A 
ATOM     22  C   UNL     1       2.125   8.526  17.881  0.00  0.00    +0.000 A 
ATOM     23  C   UNL     1       2.507   7.327  18.476  0.00  0.00    +0.000 A 
ATOM     24  C   UNL     1       2.217   7.063  19.814  0.00  0.00    +0.000 A 
ATOM     25  C   UNL     1       1.540   8.041  20.561  0.00  0.00    +0.000 A 
BRANCH  20  27
ATOM     26  C   UNL     1       0.155  10.032  21.967  0.00  0.00    +0.000 C 
ATOM     27  O   UNL     1       0.449  10.247  20.593  0.00  0.00    +0.000 OA
ENDBRANCH  20  27
ENDBRANCH  16  24
ENDBRANCH  15  17
ENDBRANCH   1  15
TORSDOF 8
ENDMDL
MODEL 9
REMARK VINA RESULT:      -7.2      4.433      6.905
REMARK  Name = 
REMARK  9 active torsions:
REMARK  status: ('A' for Active; 'I' for Inactive)
REMARK    1  A    between atoms: C_1  and  O_2
REMARK    2  A    between atoms: O_2  and  C_3
REMARK    3  A    between atoms: C_7  and  N_8
REMARK    4  A    between atoms: C_9  and  C_11
REMARK    5  A    between atoms: C_11  and  O_12
REMARK    6  A    between atoms: O_12  and  C_13
REMARK    7  A    between atoms: C_13  and  C_15
REMARK    8  A    between atoms: C_15  and  N_16
REMARK    9  A    between atoms: C_17  and  C_19
REMARK                            x       y       z     vdW  Elec       q    Type
REMARK                         _______ _______ _______ _____ _____    ______ ____
ROOT
ATOM      1  O   UNL     1       7.604   6.714  16.357  0.00  0.00    +0.000 OA
ENDROOT
BRANCH   1   2
ATOM      2  C   UNL     1       6.773   5.697  15.991  0.00  0.00    +0.000 C 
ATOM      3  O   UNL     1       6.031   5.708  15.018  0.00  0.00    +0.000 OA
BRANCH   2   4
ATOM      4  C   UNL     1       6.928   4.510  16.931  0.00  0.00    +0.000 C 
BRANCH   4   5
ATOM      5  N   UNL     1       5.674   3.812  17.144  0.00  0.00    +0.000 N 
ATOM      6  C   UNL     1       5.128   3.730  18.406  0.00  0.00    +0.000 C 
ATOM      7  O   UNL     1       5.627   4.321  19.359  0.00  0.00    +0.000 OA
ATOM      8  H   UNL     1       5.239   3.338  16.362  0.00  0.00    +0.000 HD
BRANCH   6   9
ATOM      9  C   UNL     1       3.865   2.864  18.511  0.00  0.00    +0.000 C 
ATOM     10  C   UNL     1       3.278   2.874  19.930  0.00  0.00    +0.000 C 
ATOM     11  C   UNL     1       2.683   4.235  20.290  0.00  0.00    +0.000 C 
ATOM     12  C   UNL     1       1.628   4.678  19.279  0.00  0.00    +0.000 C 
ATOM     13  C   UNL     1       2.155   4.644  17.849  0.00  0.00    +0.000 C 
ATOM     14  C   UNL     1       2.781   3.290  17.506  0.00  0.00    +0.000 C 
ENDBRANCH   6   9
ENDBRANCH   4   5
ENDBRANCH   2   4
ENDBRANCH   1   2
BRANCH   1  15
ATOM     15  C   UNL     1       7.064   7.609  17.329  0.00  0.00    +0.000 C 
BRANCH  15  17
ATOM     16  N   UNL     1       8.332   9.608  17.931  0.00  0.00    +0.000 N 
ATOM     17  C   UNL     1       8.142   8.258  18.194  0.00  0.00    +0.000 C 
ATOM     18  O   UNL     1       8.706   7.588  19.059  0.00  0.00    +0.000 OA
ATOM     19  H   UNL     1       7.728  10.017  17.227  0.00  0.00    +0.000 HD
BRANCH  16  24
ATOM     20  C   UNL     1      10.024  11.700  20.496  0.00  0.00    +0.000 A 
ATOM     21  C   UNL     1      11.115  12.190  19.781  0.00  0.00    +0.000 A 
ATOM     22  C   UNL     1      11.310  11.808  18.456  0.00  0.00    +0.000 A 
ATOM     23  C   UNL     1      10.405  10.947  17.840  0.00  0.00    +0.000 A 
ATOM     24  C   UNL     1       9.296  10.457  18.528  0.00  0.00    +0.000 A 
ATOM     25  C   UNL     1       9.111  10.840  19.867  0.00  0.00    +0.000 A 
BRANCH  20  27
ATOM     26  C   UNL     1       9.485  13.530  21.896  0.00  0.00    +0.000 C 
ATOM     27  O   UNL     1       9.905  12.177  21.774  0.00  0.00    +0.000 OA
ENDBRANCH  20  27
ENDBRANCH  16  24
ENDBRANCH  15  17
ENDBRANCH   1  15
TORSDOF 8
ENDMDL
