MODEL 1
REMARK VINA RESULT:      -7.5      0.000      0.000
REMARK  Name = 
REMARK  6 active torsions:
REMARK  status: ('A' for Active; 'I' for Inactive)
REMARK    1  A    between atoms: C_2  and  C_3
REMARK    2  A    between atoms: C_3  and  O_4
REMARK    3  A    between atoms: O_4  and  C_5
REMARK    4  A    between atoms: C_10  and  C_11
REMARK    5  A    between atoms: C_14  and  C_15
REMARK    6  A    between atoms: C_18  and  N_19
REMARK                            x       y       z     vdW  Elec       q    Type
REMARK                         _______ _______ _______ _____ _____    ______ ____
ROOT
ATOM      1  C   UNL     1       2.616   6.650  18.739  0.00  0.00    +0.000 A 
ATOM      2  C   UNL     1       2.711   7.569  17.675  0.00  0.00    +0.000 A 
ATOM      3  C   UNL     1       2.171   8.863  17.761  0.00  0.00    +0.000 A 
ATOM      4  C   UNL     1       1.539   9.312  18.929  0.00  0.00    +0.000 A 
ATOM      5  C   UNL     1       1.515   8.421  20.010  0.00  0.00    +0.000 A 
ATOM      6  F   UNL     1       0.923   8.772  21.162  0.00  0.00    +0.000 F 
ATOM      7  C   UNL     1       2.032   7.122  19.922  0.00  0.00    +0.000 A 
ENDROOT
BRANCH   1  13
ATOM      8  C   UNL     1       4.183   4.625  19.040  0.00  0.00    +0.000 A 
ATOM      9  C   UNL     1       4.388   3.239  18.906  0.00  0.00    +0.000 A 
ATOM     10  C   UNL     1       3.478   2.443  18.215  0.00  0.00    +0.000 A 
ATOM     11  C   UNL     1       2.333   3.014  17.685  0.00  0.00    +0.000 A 
ATOM     12  C   UNL     1       2.088   4.374  17.873  0.00  0.00    +0.000 A 
ATOM     13  C   UNL     1       2.997   5.221  18.554  0.00  0.00    +0.000 A 
BRANCH   8  14
ATOM     14  O   UNL     1       5.113   5.432  19.655  0.00  0.00    +0.000 OA
BRANCH  14  15
ATOM     15  C   UNL     1       6.428   5.392  19.085  0.00  0.00    +0.000 C 
BRANCH  15  17
ATOM     16  N   UNL     1       6.502   6.937  16.774  0.00  0.00    +0.000 NA
ATOM     17  C   UNL     1       6.469   6.237  17.822  0.00  0.00    +0.000 C 
ENDBRANCH  15  17
ENDBRANCH  14  15
ENDBRANCH   8  14
ENDBRANCH   1  13
BRANCH   4  18
ATOM     18  C   UNL     1       0.881  10.629  18.973  0.00  0.00    +0.000 A 
ATOM     19  C   UNL     1      -0.501  10.815  18.965  0.00  0.00    +0.000 A 
ATOM     20  N   UNL     1      -1.101  12.036  18.940  0.00  0.00    +0.000 NA
ATOM     21  C   UNL     1      -0.276  13.094  18.913  0.00  0.00    +0.000 A 
ATOM     22  C   UNL     1       1.104  12.924  18.932  0.00  0.00    +0.000 A 
ATOM     23  N   UNL     1       1.710  11.709  18.980  0.00  0.00    +0.000 NA
BRANCH  21  24
ATOM     24  N   UNL     1      -0.871  14.349  18.813  0.00  0.00    +0.000 N 
ATOM     25  H   UNL     1      -1.877  14.205  18.872  0.00  0.00    +0.000 HD
ATOM     26  H   UNL     1      -0.538  14.989  19.522  0.00  0.00    +0.000 HD
ENDBRANCH  21  24
ENDBRANCH   4  18
TORSDOF 6
ENDMDL
MODEL 2
REMARK VINA RESULT:      -7.3      2.791      3.923
REMARK  Name = 
REMARK  6 active torsions:
REMARK  status: ('A' for Active; 'I' for Inactive)
REMARK    1  A    between atoms: C_2  and  C_3
REMARK    2  A    between atoms: C_3  and  O_4
REMARK    3  A    between atoms: O_4  and  C_5
REMARK    4  A    between atoms: C_10  and  C_11
REMARK    5  A    between atoms: C_14  and  C_15
REMARK    6  A    between atoms: C_18  and  N_19
REMARK                            x       y       z     vdW  Elec       q    Type
REMARK                         _______ _______ _______ _____ _____    ______ ____
ROOT
ATOM      1  C   UNL     1       3.541   6.480  18.147  0.00  0.00    +0.000 A 
ATOM      2  C   UNL     1       3.088   6.041  19.407  0.00  0.00    +0.000 A 
ATOM      3  C   UNL     1       2.264   6.837  20.218  0.00  0.00    +0.000 A 
ATOM      4  C   UNL     1       1.823   8.099  19.794  0.00  0.00    +0.000 A 
ATOM      5  C   UNL     1       2.214   8.498  18.508  0.00  0.00    +0.000 A 
ATOM      6  F   UNL     1       1.839   9.694  18.030  0.00  0.00    +0.000 F 
ATOM      7  C   UNL     1       3.054   7.717  17.704  0.00  0.00    +0.000 A 
ENDROOT
BRANCH   1  13
ATOM      8  C   UNL     1       4.389   4.470  16.773  0.00  0.00    +0.000 A 
ATOM      9  C   UNL     1       5.414   3.896  15.997  0.00  0.00    +0.000 A 
ATOM     10  C   UNL     1       6.666   4.499  15.906  0.00  0.00    +0.000 A 
ATOM     11  C   UNL     1       6.898   5.700  16.554  0.00  0.00    +0.000 A 
ATOM     12  C   UNL     1       5.866   6.310  17.269  0.00  0.00    +0.000 A 
ATOM     13  C   UNL     1       4.584   5.722  17.400  0.00  0.00    +0.000 A 
BRANCH   8  14
ATOM     14  O   UNL     1       3.173   3.844  16.931  0.00  0.00    +0.000 OA
BRANCH  14  15
ATOM     15  C   UNL     1       3.185   2.693  17.785  0.00  0.00    +0.000 C 
BRANCH  15  17
ATOM     16  N   UNL     1       0.684   2.356  18.952  0.00  0.00    +0.000 NA
ATOM     17  C   UNL     1       1.818   2.509  18.423  0.00  0.00    +0.000 C 
ENDBRANCH  15  17
ENDBRANCH  14  15
ENDBRANCH   8  14
ENDBRANCH   1  13
BRANCH   4  18
ATOM     18  C   UNL     1       1.050   8.970  20.693  0.00  0.00    +0.000 A 
ATOM     19  C   UNL     1       1.271   9.073  22.066  0.00  0.00    +0.000 A 
ATOM     20  N   UNL     1       0.510   9.831  22.902  0.00  0.00    +0.000 NA
ATOM     21  C   UNL     1      -0.505  10.495  22.329  0.00  0.00    +0.000 A 
ATOM     22  C   UNL     1      -0.731  10.412  20.960  0.00  0.00    +0.000 A 
ATOM     23  N   UNL     1       0.038   9.675  20.116  0.00  0.00    +0.000 NA
BRANCH  21  24
ATOM     24  N   UNL     1      -1.338  11.218  23.179  0.00  0.00    +0.000 N 
ATOM     25  H   UNL     1      -2.255  10.777  23.141  0.00  0.00    +0.000 HD
ATOM     26  H   UNL     1      -0.978  11.260  24.124  0.00  0.00    +0.000 HD
ENDBRANCH  21  24
ENDBRANCH   4  18
TORSDOF 6
ENDMDL
MODEL 3
REMARK VINA RESULT:      -7.3      2.281      2.912
REMARK  Name = 
REMARK  6 active torsions:
REMARK  status: ('A' for Active; 'I' for Inactive)
REMARK    1  A    between atoms: C_2  and  C_3
REMARK    2  A    between atoms: C_3  and  O_4
REMARK    3  A    between atoms: O_4  and  C_5
REMARK    4  A    between atoms: C_10  and  C_11
REMARK    5  A    between atoms: C_14  and  C_15
REMARK    6  A    between atoms: C_18  and  N_19
REMARK                            x       y       z     vdW  Elec       q    Type
REMARK                         _______ _______ _______ _____ _____    ______ ____
ROOT
ATOM      1  C   UNL     1       2.610   7.208  18.528  0.00  0.00    +0.000 A 
ATOM      2  C   UNL     1       2.372   8.257  17.618  0.00  0.00    +0.000 A 
ATOM      3  C   UNL     1       1.602   9.379  17.962  0.00  0.00    +0.000 A 
ATOM      4  C   UNL     1       1.060   9.524  19.248  0.00  0.00    +0.000 A 
ATOM      5  C   UNL     1       1.364   8.515  20.172  0.00  0.00    +0.000 A 
ATOM      6  F   UNL     1       0.879   8.577  21.422  0.00  0.00    +0.000 F 
ATOM      7  C   UNL     1       2.113   7.383  19.826  0.00  0.00    +0.000 A 
ENDROOT
BRANCH   1  13
ATOM      8  C   UNL     1       2.665   4.649  18.225  0.00  0.00    +0.000 A 
ATOM      9  C   UNL     1       3.297   3.522  17.665  0.00  0.00    +0.000 A 
ATOM     10  C   UNL     1       4.538   3.632  17.043  0.00  0.00    +0.000 A 
ATOM     11  C   UNL     1       5.145   4.872  16.936  0.00  0.00    +0.000 A 
ATOM     12  C   UNL     1       4.493   6.004  17.427  0.00  0.00    +0.000 A 
ATOM     13  C   UNL     1       3.239   5.933  18.082  0.00  0.00    +0.000 A 
BRANCH   8  14
ATOM     14  O   UNL     1       1.475   4.538  18.908  0.00  0.00    +0.000 OA
BRANCH  14  15
ATOM     15  C   UNL     1       1.157   3.219  19.372  0.00  0.00    +0.000 C 
BRANCH  15  17
ATOM     16  N   UNL     1       1.932   2.941  22.028  0.00  0.00    +0.000 NA
ATOM     17  C   UNL     1       1.581   3.067  20.823  0.00  0.00    +0.000 C 
ENDBRANCH  15  17
ENDBRANCH  14  15
ENDBRANCH   8  14
ENDBRANCH   1  13
BRANCH   4  18
ATOM     18  C   UNL     1       0.166  10.649  19.567  0.00  0.00    +0.000 A 
ATOM     19  C   UNL     1      -1.157  10.744  19.138  0.00  0.00    +0.000 A 
ATOM     20  N   UNL     1      -1.958  11.817  19.382  0.00  0.00    +0.000 NA
ATOM     21  C   UNL     1      -1.397  12.821  20.073  0.00  0.00    +0.000 A 
ATOM     22  C   UNL     1      -0.083  12.736  20.518  0.00  0.00    +0.000 A 
ATOM     23  N   UNL     1       0.715  11.659  20.297  0.00  0.00    +0.000 NA
BRANCH  21  24
ATOM     24  N   UNL     1      -2.179  13.957  20.269  0.00  0.00    +0.000 N 
ATOM     25  H   UNL     1      -2.991  13.866  19.663  0.00  0.00    +0.000 HD
ATOM     26  H   UNL     1      -2.441  14.080  21.239  0.00  0.00    +0.000 HD
ENDBRANCH  21  24
ENDBRANCH   4  18
TORSDOF 6
ENDMDL
MODEL 4
REMARK VINA RESULT:      -7.3      0.994      1.284
REMARK  Name = 
REMARK  6 active torsions:
REMARK  status: ('A' for Active; 'I' for Inactive)
REMARK    1  A    between atoms: C_2  and  C_3
REMARK    2  A    between atoms: C_3  and  O_4
REMARK    3  A    between atoms: O_4  and  C_5
REMARK    4  A    between atoms: C_10  and  C_11
REMARK    5  A    between atoms: C_14  and  C_15
REMARK    6  A    between atoms: C_18  and  N_19
REMARK                            x       y       z     vdW  Elec       q    Type
REMARK                         _______ _______ _______ _____ _____    ______ ____
ROOT
ATOM      1  C   UNL     1       2.524   6.592  18.848  0.00  0.00    +0.000 A 
ATOM      2  C   UNL     1       2.587   7.409  17.702  0.00  0.00    +0.000 A 
ATOM      3  C   UNL     1       2.088   8.721  17.697  0.00  0.00    +0.000 A 
ATOM      4  C   UNL     1       1.532   9.294  18.850  0.00  0.00    +0.000 A 
ATOM      5  C   UNL     1       1.541   8.504  20.007  0.00  0.00    +0.000 A 
ATOM      6  F   UNL     1       1.022   8.976  21.151  0.00  0.00    +0.000 F 
ATOM      7  C   UNL     1       2.018   7.187  20.012  0.00  0.00    +0.000 A 
ENDROOT
BRANCH   1  13
ATOM      8  C   UNL     1       4.138   4.586  18.990  0.00  0.00    +0.000 A 
ATOM      9  C   UNL     1       4.314   3.190  19.008  0.00  0.00    +0.000 A 
ATOM     10  C   UNL     1       3.256   2.330  18.727  0.00  0.00    +0.000 A 
ATOM     11  C   UNL     1       2.000   2.851  18.464  0.00  0.00    +0.000 A 
ATOM     12  C   UNL     1       1.801   4.232  18.512  0.00  0.00    +0.000 A 
ATOM     13  C   UNL     1       2.855   5.141  18.776  0.00  0.00    +0.000 A 
BRANCH   8  14
ATOM     14  O   UNL     1       5.194   5.446  19.191  0.00  0.00    +0.000 OA
BRANCH  14  15
ATOM     15  C   UNL     1       5.919   5.810  18.008  0.00  0.00    +0.000 C 
BRANCH  15  17
ATOM     16  N   UNL     1       8.194   4.229  17.770  0.00  0.00    +0.000 NA
ATOM     17  C   UNL     1       7.162   4.946  17.878  0.00  0.00    +0.000 C 
ENDBRANCH  15  17
ENDBRANCH  14  15
ENDBRANCH   8  14
ENDBRANCH   1  13
BRANCH   4  18
ATOM     18  C   UNL     1       0.914  10.629  18.806  0.00  0.00    +0.000 A 
ATOM     19  C   UNL     1       1.610  11.822  19.001  0.00  0.00    +0.000 A 
ATOM     20  N   UNL     1       1.020  13.048  19.024  0.00  0.00    +0.000 NA
ATOM     21  C   UNL     1      -0.310  13.062  18.853  0.00  0.00    +0.000 A 
ATOM     22  C   UNL     1      -1.016  11.882  18.646  0.00  0.00    +0.000 A 
ATOM     23  N   UNL     1      -0.431  10.657  18.599  0.00  0.00    +0.000 NA
BRANCH  21  24
ATOM     24  N   UNL     1      -0.939  14.301  18.946  0.00  0.00    +0.000 N 
ATOM     25  H   UNL     1      -0.211  15.009  18.877  0.00  0.00    +0.000 HD
ATOM     26  H   UNL     1      -1.654  14.422  18.240  0.00  0.00    +0.000 HD
ENDBRANCH  21  24
ENDBRANCH   4  18
TORSDOF 6
ENDMDL
MODEL 5
REMARK VINA RESULT:      -7.2      1.300      1.364
REMARK  Name = 
REMARK  6 active torsions:
REMARK  status: ('A' for Active; 'I' for Inactive)
REMARK    1  A    between atoms: C_2  and  C_3
REMARK    2  A    between atoms: C_3  and  O_4
REMARK    3  A    between atoms: O_4  and  C_5
REMARK    4  A    between atoms: C_10  and  C_11
REMARK    5  A    between atoms: C_14  and  C_15
REMARK    6  A    between atoms: C_18  and  N_19
REMARK                            x       y       z     vdW  Elec       q    Type
REMARK                         _______ _______ _______ _____ _____    ______ ____
ROOT
ATOM      1  C   UNL     1       2.577   7.095  18.492  0.00  0.00    +0.000 A 
ATOM      2  C   UNL     1       2.410   8.152  17.576  0.00  0.00    +0.000 A 
ATOM      3  C   UNL     1       1.738   9.335  17.921  0.00  0.00    +0.000 A 
ATOM      4  C   UNL     1       1.230   9.534  19.213  0.00  0.00    +0.000 A 
ATOM      5  C   UNL     1       1.465   8.511  20.142  0.00  0.00    +0.000 A 
ATOM      6  F   UNL     1       1.005   8.621  21.398  0.00  0.00    +0.000 F 
ATOM      7  C   UNL     1       2.115   7.320  19.796  0.00  0.00    +0.000 A 
ENDROOT
BRANCH   1  13
ATOM      8  C   UNL     1       4.445   5.482  17.747  0.00  0.00    +0.000 A 
ATOM      9  C   UNL     1       4.842   4.165  17.447  0.00  0.00    +0.000 A 
ATOM     10  C   UNL     1       3.905   3.139  17.350  0.00  0.00    +0.000 A 
ATOM     11  C   UNL     1       2.568   3.406  17.591  0.00  0.00    +0.000 A 
ATOM     12  C   UNL     1       2.176   4.695  17.957  0.00  0.00    +0.000 A 
ATOM     13  C   UNL     1       3.094   5.769  18.049  0.00  0.00    +0.000 A 
BRANCH   8  14
ATOM     14  O   UNL     1       5.353   6.517  17.770  0.00  0.00    +0.000 OA
BRANCH  14  15
ATOM     15  C   UNL     1       6.728   6.126  17.667  0.00  0.00    +0.000 C 
BRANCH  15  17
ATOM     16  N   UNL     1       7.698   5.417  20.174  0.00  0.00    +0.000 NA
ATOM     17  C   UNL     1       7.258   5.738  19.037  0.00  0.00    +0.000 C 
ENDBRANCH  15  17
ENDBRANCH  14  15
ENDBRANCH   8  14
ENDBRANCH   1  13
BRANCH   4  18
ATOM     18  C   UNL     1       0.433  10.729  19.535  0.00  0.00    +0.000 A 
ATOM     19  C   UNL     1      -0.908  10.894  19.191  0.00  0.00    +0.000 A 
ATOM     20  N   UNL     1      -1.620  12.028  19.435  0.00  0.00    +0.000 NA
ATOM     21  C   UNL     1      -0.949  13.023  20.035  0.00  0.00    +0.000 A 
ATOM     22  C   UNL     1       0.386  12.869  20.394  0.00  0.00    +0.000 A 
ATOM     23  N   UNL     1       1.096  11.732  20.174  0.00  0.00    +0.000 NA
BRANCH  21  24
ATOM     24  N   UNL     1      -1.640  14.216  20.225  0.00  0.00    +0.000 N 
ATOM     25  H   UNL     1      -2.632  13.999  20.156  0.00  0.00    +0.000 HD
ATOM     26  H   UNL     1      -1.410  14.656  21.107  0.00  0.00    +0.000 HD
ENDBRANCH  21  24
ENDBRANCH   4  18
TORSDOF 6
ENDMDL
MODEL 6
REMARK VINA RESULT:      -7.2      2.789      3.547
REMARK  Name = 
REMARK  6 active torsions:
REMARK  status: ('A' for Active; 'I' for Inactive)
REMARK    1  A    between atoms: C_2  and  C_3
REMARK    2  A    between atoms: C_3  and  O_4
REMARK    3  A    between atoms: O_4  and  C_5
REMARK    4  A    between atoms: C_10  and  C_11
REMARK    5  A    between atoms: C_14  and  C_15
REMARK    6  A    between atoms: C_18  and  N_19
REMARK                            x       y       z     vdW  Elec       q    Type
REMARK                         _______ _______ _______ _____ _____    ______ ____
ROOT
ATOM      1  C   UNL     1       2.384   7.197  18.689  0.00  0.00    +0.000 A 
ATOM      2  C   UNL     1       2.109   7.130  20.069  0.00  0.00    +0.000 A 
ATOM      3  C   UNL     1       1.476   8.181  20.752  0.00  0.00    +0.000 A 
ATOM      4  C   UNL     1       1.056   9.338  20.081  0.00  0.00    +0.000 A 
ATOM      5  C   UNL     1       1.264   9.367  18.695  0.00  0.00    +0.000 A 
ATOM      6  F   UNL     1       0.897  10.442  17.980  0.00  0.00    +0.000 F 
ATOM      7  C   UNL     1       1.915   8.331  18.013  0.00  0.00    +0.000 A 
ENDROOT
BRANCH   1  13
ATOM      8  C   UNL     1       2.927   4.805  17.894  0.00  0.00    +0.000 A 
ATOM      9  C   UNL     1       3.762   3.951  17.150  0.00  0.00    +0.000 A 
ATOM     10  C   UNL     1       4.960   4.411  16.610  0.00  0.00    +0.000 A 
ATOM     11  C   UNL     1       5.320   5.739  16.772  0.00  0.00    +0.000 A 
ATOM     12  C   UNL     1       4.464   6.609  17.449  0.00  0.00    +0.000 A 
ATOM     13  C   UNL     1       3.245   6.176  18.028  0.00  0.00    +0.000 A 
BRANCH   8  14
ATOM     14  O   UNL     1       1.778   4.341  18.496  0.00  0.00    +0.000 OA
BRANCH  14  15
ATOM     15  C   UNL     1       1.898   3.065  19.137  0.00  0.00    +0.000 C 
BRANCH  15  17
ATOM     16  N   UNL     1       2.184   3.411  21.881  0.00  0.00    +0.000 NA
ATOM     17  C   UNL     1       2.055   3.254  20.637  0.00  0.00    +0.000 C 
ENDBRANCH  15  17
ENDBRANCH  14  15
ENDBRANCH   8  14
ENDBRANCH   1  13
BRANCH   4  18
ATOM     18  C   UNL     1       0.493  10.478  20.822  0.00  0.00    +0.000 A 
ATOM     19  C   UNL     1       1.028  11.766  20.803  0.00  0.00    +0.000 A 
ATOM     20  N   UNL     1       0.540  12.800  21.542  0.00  0.00    +0.000 NA
ATOM     21  C   UNL     1      -0.511  12.515  22.325  0.00  0.00    +0.000 A 
ATOM     22  C   UNL     1      -1.062  11.239  22.346  0.00  0.00    +0.000 A 
ATOM     23  N   UNL     1      -0.595  10.209  21.595  0.00  0.00    +0.000 NA
BRANCH  21  24
ATOM     24  N   UNL     1      -0.977  13.542  23.143  0.00  0.00    +0.000 N 
ATOM     25  H   UNL     1      -1.780  13.954  22.673  0.00  0.00    +0.000 HD
ATOM     26  H   UNL     1      -1.208  13.216  24.073  0.00  0.00    +0.000 HD
ENDBRANCH  21  24
ENDBRANCH   4  18
TORSDOF 6
ENDMDL
MODEL 7
REMARK VINA RESULT:      -7.2      2.947      8.137
REMARK  Name = 
REMARK  6 active torsions:
REMARK  status: ('A' for Active; 'I' for Inactive)
REMARK    1  A    between atoms: C_2  and  C_3
REMARK    2  A    between atoms: C_3  and  O_4
REMARK    3  A    between atoms: O_4  and  C_5
REMARK    4  A    between atoms: C_10  and  C_11
REMARK    5  A    between atoms: C_14  and  C_15
REMARK    6  A    between atoms: C_18  and  N_19
REMARK                            x       y       z     vdW  Elec       q    Type
REMARK                         _______ _______ _______ _____ _____    ______ ____
ROOT
ATOM      1  C   UNL     1       1.266   9.669  18.833  0.00  0.00    +0.000 A 
ATOM      2  C   UNL     1       1.909   9.004  17.771  0.00  0.00    +0.000 A 
ATOM      3  C   UNL     1       2.489   7.735  17.932  0.00  0.00    +0.000 A 
ATOM      4  C   UNL     1       2.423   7.054  19.156  0.00  0.00    +0.000 A 
ATOM      5  C   UNL     1       1.716   7.687  20.187  0.00  0.00    +0.000 A 
ATOM      6  F   UNL     1       1.612   7.104  21.391  0.00  0.00    +0.000 F 
ATOM      7  C   UNL     1       1.155   8.962  20.038  0.00  0.00    +0.000 A 
ENDROOT
BRANCH   1  13
ATOM      8  C   UNL     1      -0.477  11.546  18.543  0.00  0.00    +0.000 A 
ATOM      9  C   UNL     1      -0.766  12.924  18.549  0.00  0.00    +0.000 A 
ATOM     10  C   UNL     1       0.253  13.870  18.622  0.00  0.00    +0.000 A 
ATOM     11  C   UNL     1       1.569  13.453  18.731  0.00  0.00    +0.000 A 
ATOM     12  C   UNL     1       1.859  12.089  18.796  0.00  0.00    +0.000 A 
ATOM     13  C   UNL     1       0.853  11.095  18.707  0.00  0.00    +0.000 A 
BRANCH   8  14
ATOM     14  O   UNL     1      -1.471  10.605  18.395  0.00  0.00    +0.000 OA
BRANCH  14  15
ATOM     15  C   UNL     1      -2.685  11.087  17.802  0.00  0.00    +0.000 C 
BRANCH  15  17
ATOM     16  N   UNL     1      -2.739  10.433  15.100  0.00  0.00    +0.000 NA
ATOM     17  C   UNL     1      -2.715  10.730  16.326  0.00  0.00    +0.000 C 
ENDBRANCH  15  17
ENDBRANCH  14  15
ENDBRANCH   8  14
ENDBRANCH   1  13
BRANCH   4  18
ATOM     18  C   UNL     1       3.126   5.774  19.346  0.00  0.00    +0.000 A 
ATOM     19  C   UNL     1       4.491   5.590  19.132  0.00  0.00    +0.000 A 
ATOM     20  N   UNL     1       5.122   4.390  19.247  0.00  0.00    +0.000 NA
ATOM     21  C   UNL     1       4.344   3.349  19.580  0.00  0.00    +0.000 A 
ATOM     22  C   UNL     1       2.983   3.519  19.808  0.00  0.00    +0.000 A 
ATOM     23  N   UNL     1       2.351   4.718  19.716  0.00  0.00    +0.000 NA
BRANCH  21  24
ATOM     24  N   UNL     1       4.958   2.100  19.630  0.00  0.00    +0.000 N 
ATOM     25  H   UNL     1       5.689   2.158  20.337  0.00  0.00    +0.000 HD
ATOM     26  H   UNL     1       4.300   1.357  19.825  0.00  0.00    +0.000 HD
ENDBRANCH  21  24
ENDBRANCH   4  18
TORSDOF 6
ENDMDL
MODEL 8
REMARK VINA RESULT:      -7.2      2.493      3.190
REMARK  Name = 
REMARK  6 active torsions:
REMARK  status: ('A' for Active; 'I' for Inactive)
REMARK    1  A    between atoms: C_2  and  C_3
REMARK    2  A    between atoms: C_3  and  O_4
REMARK    3  A    between atoms: O_4  and  C_5
REMARK    4  A    between atoms: C_10  and  C_11
REMARK    5  A    between atoms: C_14  and  C_15
REMARK    6  A    between atoms: C_18  and  N_19
REMARK                            x       y       z     vdW  Elec       q    Type
REMARK                         _______ _______ _______ _____ _____    ______ ____
ROOT
ATOM      1  C   UNL     1       2.572   7.085  18.624  0.00  0.00    +0.000 A 
ATOM      2  C   UNL     1       2.258   8.191  17.810  0.00  0.00    +0.000 A 
ATOM      3  C   UNL     1       1.517   9.282  18.293  0.00  0.00    +0.000 A 
ATOM      4  C   UNL     1       1.084   9.335  19.625  0.00  0.00    +0.000 A 
ATOM      5  C   UNL     1       1.465   8.268  20.450  0.00  0.00    +0.000 A 
ATOM      6  F   UNL     1       1.086   8.241  21.737  0.00  0.00    +0.000 F 
ATOM      7  C   UNL     1       2.185   7.168  19.968  0.00  0.00    +0.000 A 
ENDROOT
BRANCH   1  13
ATOM      8  C   UNL     1       2.575   4.563  18.086  0.00  0.00    +0.000 A 
ATOM      9  C   UNL     1       3.168   3.484  17.404  0.00  0.00    +0.000 A 
ATOM     10  C   UNL     1       4.388   3.634  16.751  0.00  0.00    +0.000 A 
ATOM     11  C   UNL     1       5.012   4.870  16.736  0.00  0.00    +0.000 A 
ATOM     12  C   UNL     1       4.396   5.961  17.351  0.00  0.00    +0.000 A 
ATOM     13  C   UNL     1       3.164   5.847  18.041  0.00  0.00    +0.000 A 
BRANCH   8  14
ATOM     14  O   UNL     1       1.407   4.407  18.799  0.00  0.00    +0.000 OA
BRANCH  14  15
ATOM     15  C   UNL     1       1.148   3.075  19.263  0.00  0.00    +0.000 C 
BRANCH  15  17
ATOM     16  N   UNL     1       1.847   2.857  21.945  0.00  0.00    +0.000 NA
ATOM     17  C   UNL     1       1.530   2.956  20.729  0.00  0.00    +0.000 C 
ENDBRANCH  15  17
ENDBRANCH  14  15
ENDBRANCH   8  14
ENDBRANCH   1  13
BRANCH   4  18
ATOM     18  C   UNL     1       0.217  10.429  20.094  0.00  0.00    +0.000 A 
ATOM     19  C   UNL     1       0.435  11.156  21.264  0.00  0.00    +0.000 A 
ATOM     20  N   UNL     1      -0.407  12.121  21.724  0.00  0.00    +0.000 NA
ATOM     21  C   UNL     1      -1.500  12.348  20.981  0.00  0.00    +0.000 A 
ATOM     22  C   UNL     1      -1.725  11.640  19.806  0.00  0.00    +0.000 A 
ATOM     23  N   UNL     1      -0.878  10.691  19.329  0.00  0.00    +0.000 NA
BRANCH  21  24
ATOM     24  N   UNL     1      -2.409  13.281  21.475  0.00  0.00    +0.000 N 
ATOM     25  H   UNL     1      -1.867  13.995  21.958  0.00  0.00    +0.000 HD
ATOM     26  H   UNL     1      -2.989  13.675  20.745  0.00  0.00    +0.000 HD
ENDBRANCH  21  24
ENDBRANCH   4  18
TORSDOF 6
ENDMDL
MODEL 9
REMARK VINA RESULT:      -7.2      1.378      1.581
REMARK  Name = 
REMARK  6 active torsions:
REMARK  status: ('A' for Active; 'I' for Inactive)
REMARK    1  A    between atoms: C_2  and  C_3
REMARK    2  A    between atoms: C_3  and  O_4
REMARK    3  A    between atoms: O_4  and  C_5
REMARK    4  A    between atoms: C_10  and  C_11
REMARK    5  A    between atoms: C_14  and  C_15
REMARK    6  A    between atoms: C_18  and  N_19
REMARK                            x       y       z     vdW  Elec       q    Type
REMARK                         _______ _______ _______ _____ _____    ______ ____
ROOT
ATOM      1  C   UNL     1       2.455   6.883  18.717  0.00  0.00    +0.000 A 
ATOM      2  C   UNL     1       2.239   7.949  17.823  0.00  0.00    +0.000 A 
ATOM      3  C   UNL     1       1.626   9.145  18.228  0.00  0.00    +0.000 A 
ATOM      4  C   UNL     1       1.228   9.346  19.557  0.00  0.00    +0.000 A 
ATOM      5  C   UNL     1       1.513   8.312  20.459  0.00  0.00    +0.000 A 
ATOM      6  F   UNL     1       1.159   8.424  21.748  0.00  0.00    +0.000 F 
ATOM      7  C   UNL     1       2.106   7.109  20.055  0.00  0.00    +0.000 A 
ENDROOT
BRANCH   1  13
ATOM      8  C   UNL     1       4.251   5.154  18.060  0.00  0.00    +0.000 A 
ATOM      9  C   UNL     1       4.564   3.830  17.698  0.00  0.00    +0.000 A 
ATOM     10  C   UNL     1       3.560   2.910  17.408  0.00  0.00    +0.000 A 
ATOM     11  C   UNL     1       2.232   3.288  17.513  0.00  0.00    +0.000 A 
ATOM     12  C   UNL     1       1.913   4.579  17.939  0.00  0.00    +0.000 A 
ATOM     13  C   UNL     1       2.904   5.549  18.227  0.00  0.00    +0.000 A 
BRANCH   8  14
ATOM     14  O   UNL     1       5.237   6.091  18.276  0.00  0.00    +0.000 OA
BRANCH  14  15
ATOM     15  C   UNL     1       6.407   5.944  17.460  0.00  0.00    +0.000 C 
BRANCH  15  17
ATOM     16  N   UNL     1       7.819   8.339  17.397  0.00  0.00    +0.000 NA
ATOM     17  C   UNL     1       7.179   7.253  17.426  0.00  0.00    +0.000 C 
ENDBRANCH  15  17
ENDBRANCH  14  15
ENDBRANCH   8  14
ENDBRANCH   1  13
BRANCH   4  18
ATOM     18  C   UNL     1       0.488  10.557  19.949  0.00  0.00    +0.000 A 
ATOM     19  C   UNL     1       1.000  11.556  20.776  0.00  0.00    +0.000 A 
ATOM     20  N   UNL     1       0.288  12.640  21.187  0.00  0.00    +0.000 NA
ATOM     21  C   UNL     1      -0.980  12.707  20.751  0.00  0.00    +0.000 A 
ATOM     22  C   UNL     1      -1.501  11.725  19.917  0.00  0.00    +0.000 A 
ATOM     23  N   UNL     1      -0.789  10.652  19.485  0.00  0.00    +0.000 NA
BRANCH  21  24
ATOM     24  N   UNL     1      -1.746  13.771  21.220  0.00  0.00    +0.000 N 
ATOM     25  H   UNL     1      -2.715  13.460  21.223  0.00  0.00    +0.000 HD
ATOM     26  H   UNL     1      -1.447  14.085  22.135  0.00  0.00    +0.000 HD
ENDBRANCH  21  24
ENDBRANCH   4  18
TORSDOF 6
ENDMDL
