MODEL 1
REMARK VINA RESULT:      -7.9      0.000      0.000
REMARK  Name = 
REMARK  6 active torsions:
REMARK  status: ('A' for Active; 'I' for Inactive)
REMARK    1  A    between atoms: C_1  and  N_2
REMARK    2  A    between atoms: N_2  and  C_3
REMARK    3  A    between atoms: N_2  and  C_4
REMARK    4  A    between atoms: C_4  and  C_5
REMARK    5  A    between atoms: C_5  and  C_6
REMARK    6  A    between atoms: C_6  and  C_7
REMARK                            x       y       z     vdW  Elec       q    Type
REMARK                         _______ _______ _______ _____ _____    ______ ____
ROOT
ATOM      1  C   UNL     1       3.800   4.605  17.524  0.00  0.00    +0.000 C 
ATOM      2  C   UNL     1       5.041   4.086  18.303  0.00  0.00    +0.000 C 
ATOM      3  C   UNL     1       6.097   5.158  18.359  0.00  0.00    +0.000 A 
ATOM      4  C   UNL     1       6.912   5.325  19.485  0.00  0.00    +0.000 A 
ATOM      5  C   UNL     1       7.916   6.297  19.479  0.00  0.00    +0.000 A 
ATOM      6  C   UNL     1       8.111   7.102  18.350  0.00  0.00    +0.000 A 
ATOM      7  C   UNL     1       7.297   6.941  17.224  0.00  0.00    +0.000 A 
ATOM      8  C   UNL     1       6.284   5.973  17.226  0.00  0.00    +0.000 A 
ATOM      9  C   UNL     1       5.355   5.785  16.086  0.00  0.00    +0.000 C 
ATOM     10  O   UNL     1       5.550   6.337  15.015  0.00  0.00    +0.000 OA
ATOM     11  O   UNL     1       4.237   5.022  16.262  0.00  0.00    +0.000 OA
ENDROOT
BRANCH   1  12
ATOM     12  C   UNL     1       3.142   5.767  18.301  0.00  0.00    +0.000 A 
ATOM     13  C   UNL     1       2.750   5.585  19.646  0.00  0.00    +0.000 A 
ATOM     14  C   UNL     1       2.140   6.618  20.364  0.00  0.00    +0.000 A 
ATOM     15  C   UNL     1       1.918   7.855  19.759  0.00  0.00    +0.000 A 
ATOM     16 CL   UNL     1       1.154   9.150  20.661  0.00  0.00    +0.000 Cl
ATOM     17  C   UNL     1       2.300   8.058  18.433  0.00  0.00    +0.000 A 
ATOM     18  C   UNL     1       2.902   7.027  17.707  0.00  0.00    +0.000 A 
ENDBRANCH   1  12
BRANCH   1  19
ATOM     19  C   UNL     1       2.729   3.495  17.338  0.00  0.00    +0.000 C 
BRANCH  19  20
ATOM     20  C   UNL     1       3.013   2.194  18.116  0.00  0.00    +0.000 C 
BRANCH  20  22
ATOM     21  C   UNL     1       2.447   2.307  20.448  0.00  0.00    +0.000 C 
ATOM     22  N   UNL     1       1.968   1.884  19.119  0.00  0.00    +0.000 NA
ATOM     23  C   UNL     1       0.688   2.550  18.806  0.00  0.00    +0.000 C 
ENDBRANCH  20  22
ENDBRANCH  19  20
ENDBRANCH   1  19
TORSDOF 4
ENDMDL
MODEL 2
REMARK VINA RESULT:      -7.8      0.057      1.010
REMARK  Name = 
REMARK  6 active torsions:
REMARK  status: ('A' for Active; 'I' for Inactive)
REMARK    1  A    between atoms: C_1  and  N_2
REMARK    2  A    between atoms: N_2  and  C_3
REMARK    3  A    between atoms: N_2  and  C_4
REMARK    4  A    between atoms: C_4  and  C_5
REMARK    5  A    between atoms: C_5  and  C_6
REMARK    6  A    between atoms: C_6  and  C_7
REMARK                            x       y       z     vdW  Elec       q    Type
REMARK                         _______ _______ _______ _____ _____    ______ ____
ROOT
ATOM      1  C   UNL     1       3.828   4.588  17.503  0.00  0.00    +0.000 C 
ATOM      2  C   UNL     1       5.071   4.078  18.284  0.00  0.00    +0.000 C 
ATOM      3  C   UNL     1       6.115   5.160  18.352  0.00  0.00    +0.000 A 
ATOM      4  C   UNL     1       6.923   5.328  19.484  0.00  0.00    +0.000 A 
ATOM      5  C   UNL     1       7.918   6.309  19.488  0.00  0.00    +0.000 A 
ATOM      6  C   UNL     1       8.109   7.124  18.366  0.00  0.00    +0.000 A 
ATOM      7  C   UNL     1       7.302   6.963  17.235  0.00  0.00    +0.000 A 
ATOM      8  C   UNL     1       6.299   5.984  17.226  0.00  0.00    +0.000 A 
ATOM      9  C   UNL     1       5.377   5.795  16.081  0.00  0.00    +0.000 C 
ATOM     10  O   UNL     1       5.571   6.356  15.014  0.00  0.00    +0.000 OA
ATOM     11  O   UNL     1       4.266   5.019  16.246  0.00  0.00    +0.000 OA
ENDROOT
BRANCH   1  12
ATOM     12  C   UNL     1       3.154   5.739  18.285  0.00  0.00    +0.000 A 
ATOM     13  C   UNL     1       2.905   6.975  17.646  0.00  0.00    +0.000 A 
ATOM     14  C   UNL     1       2.309   8.034  18.336  0.00  0.00    +0.000 A 
ATOM     15  C   UNL     1       1.942   7.881  19.673  0.00  0.00    +0.000 A 
ATOM     16 CL   UNL     1       1.194   9.211  20.537  0.00  0.00    +0.000 Cl
ATOM     17  C   UNL     1       2.176   6.668  20.322  0.00  0.00    +0.000 A 
ATOM     18  C   UNL     1       2.779   5.608  19.641  0.00  0.00    +0.000 A 
ENDBRANCH   1  12
BRANCH   1  19
ATOM     19  C   UNL     1       2.769   3.469  17.304  0.00  0.00    +0.000 C 
BRANCH  19  20
ATOM     20  C   UNL     1       3.047   2.176  18.099  0.00  0.00    +0.000 C 
BRANCH  20  22
ATOM     21  C   UNL     1       2.503   2.339  20.433  0.00  0.00    +0.000 C 
ATOM     22  N   UNL     1       2.010   1.893  19.118  0.00  0.00    +0.000 NA
ATOM     23  C   UNL     1       0.731   2.562  18.803  0.00  0.00    +0.000 C 
ENDBRANCH  20  22
ENDBRANCH  19  20
ENDBRANCH   1  19
TORSDOF 4
ENDMDL
MODEL 3
REMARK VINA RESULT:      -7.3      3.053      5.645
REMARK  Name = 
REMARK  6 active torsions:
REMARK  status: ('A' for Active; 'I' for Inactive)
REMARK    1  A    between atoms: C_1  and  N_2
REMARK    2  A    between atoms: N_2  and  C_3
REMARK    3  A    between atoms: N_2  and  C_4
REMARK    4  A    between atoms: C_4  and  C_5
REMARK    5  A    between atoms: C_5  and  C_6
REMARK    6  A    between atoms: C_6  and  C_7
REMARK                            x       y       z     vdW  Elec       q    Type
REMARK                         _______ _______ _______ _____ _____    ______ ____
ROOT
ATOM      1  C   UNL     1       6.232   5.255  16.791  0.00  0.00    +0.000 C 
ATOM      2  C   UNL     1       4.840   5.776  16.338  0.00  0.00    +0.000 C 
ATOM      3  C   UNL     1       4.019   6.162  17.540  0.00  0.00    +0.000 A 
ATOM      4  C   UNL     1       3.143   7.254  17.509  0.00  0.00    +0.000 A 
ATOM      5  C   UNL     1       2.360   7.549  18.628  0.00  0.00    +0.000 A 
ATOM      6  C   UNL     1       2.447   6.756  19.778  0.00  0.00    +0.000 A 
ATOM      7  C   UNL     1       3.323   5.666  19.816  0.00  0.00    +0.000 A 
ATOM      8  C   UNL     1       4.116   5.369  18.699  0.00  0.00    +0.000 A 
ATOM      9  C   UNL     1       5.100   4.260  18.690  0.00  0.00    +0.000 C 
ATOM     10  O   UNL     1       5.130   3.435  19.589  0.00  0.00    +0.000 OA
ATOM     11  O   UNL     1       6.018   4.198  17.683  0.00  0.00    +0.000 OA
ENDROOT
BRANCH   1  12
ATOM     12  C   UNL     1       7.027   6.399  17.461  0.00  0.00    +0.000 A 
ATOM     13  C   UNL     1       7.005   7.696  16.899  0.00  0.00    +0.000 A 
ATOM     14  C   UNL     1       7.727   8.743  17.479  0.00  0.00    +0.000 A 
ATOM     15  C   UNL     1       8.477   8.521  18.634  0.00  0.00    +0.000 A 
ATOM     16 CL   UNL     1       9.381   9.836  19.362  0.00  0.00    +0.000 Cl
ATOM     17  C   UNL     1       8.509   7.250  19.207  0.00  0.00    +0.000 A 
ATOM     18  C   UNL     1       7.797   6.196  18.628  0.00  0.00    +0.000 A 
ENDBRANCH   1  12
BRANCH   1  19
ATOM     19  C   UNL     1       7.073   4.734  15.593  0.00  0.00    +0.000 C 
BRANCH  19  20
ATOM     20  C   UNL     1       6.280   3.893  14.572  0.00  0.00    +0.000 C 
BRANCH  20  22
ATOM     21  C   UNL     1       7.744   5.070  13.076  0.00  0.00    +0.000 C 
ATOM     22  N   UNL     1       6.454   4.364  13.179  0.00  0.00    +0.000 NA
ATOM     23  C   UNL     1       6.407   3.250  12.210  0.00  0.00    +0.000 C 
ENDBRANCH  20  22
ENDBRANCH  19  20
ENDBRANCH   1  19
TORSDOF 4
ENDMDL
MODEL 4
REMARK VINA RESULT:      -7.2      3.049      5.550
REMARK  Name = 
REMARK  6 active torsions:
REMARK  status: ('A' for Active; 'I' for Inactive)
REMARK    1  A    between atoms: C_1  and  N_2
REMARK    2  A    between atoms: N_2  and  C_3
REMARK    3  A    between atoms: N_2  and  C_4
REMARK    4  A    between atoms: C_4  and  C_5
REMARK    5  A    between atoms: C_5  and  C_6
REMARK    6  A    between atoms: C_6  and  C_7
REMARK                            x       y       z     vdW  Elec       q    Type
REMARK                         _______ _______ _______ _____ _____    ______ ____
ROOT
ATOM      1  C   UNL     1       6.237   5.257  16.785  0.00  0.00    +0.000 C 
ATOM      2  C   UNL     1       4.835   5.753  16.335  0.00  0.00    +0.000 C 
ATOM      3  C   UNL     1       4.020   6.151  17.536  0.00  0.00    +0.000 A 
ATOM      4  C   UNL     1       3.131   7.232  17.493  0.00  0.00    +0.000 A 
ATOM      5  C   UNL     1       2.353   7.537  18.613  0.00  0.00    +0.000 A 
ATOM      6  C   UNL     1       2.459   6.767  19.777  0.00  0.00    +0.000 A 
ATOM      7  C   UNL     1       3.348   5.688  19.827  0.00  0.00    +0.000 A 
ATOM      8  C   UNL     1       4.135   5.380  18.709  0.00  0.00    +0.000 A 
ATOM      9  C   UNL     1       5.133   4.283  18.711  0.00  0.00    +0.000 C 
ATOM     10  O   UNL     1       5.180   3.474  19.625  0.00  0.00    +0.000 OA
ATOM     11  O   UNL     1       6.044   4.214  17.697  0.00  0.00    +0.000 OA
ENDROOT
BRANCH   1  12
ATOM     12  C   UNL     1       7.024   6.422  17.427  0.00  0.00    +0.000 A 
ATOM     13  C   UNL     1       7.801   6.195  18.586  0.00  0.00    +0.000 A 
ATOM     14  C   UNL     1       8.509   7.236  19.192  0.00  0.00    +0.000 A 
ATOM     15  C   UNL     1       8.466   8.521  18.651  0.00  0.00    +0.000 A 
ATOM     16 CL   UNL     1       9.356   9.826  19.412  0.00  0.00    +0.000 Cl
ATOM     17  C   UNL     1       7.708   8.766  17.505  0.00  0.00    +0.000 A 
ATOM     18  C   UNL     1       6.990   7.732  16.900  0.00  0.00    +0.000 A 
ENDBRANCH   1  12
BRANCH   1  19
ATOM     19  C   UNL     1       7.074   4.724  15.590  0.00  0.00    +0.000 C 
BRANCH  19  20
ATOM     20  C   UNL     1       6.281   3.859  14.588  0.00  0.00    +0.000 C 
BRANCH  20  22
ATOM     21  C   UNL     1       7.697   5.044  13.051  0.00  0.00    +0.000 C 
ATOM     22  N   UNL     1       6.415   4.329  13.190  0.00  0.00    +0.000 NA
ATOM     23  C   UNL     1       6.350   3.213  12.224  0.00  0.00    +0.000 C 
ENDBRANCH  20  22
ENDBRANCH  19  20
ENDBRANCH   1  19
TORSDOF 4
ENDMDL
MODEL 5
REMARK VINA RESULT:      -7.1      3.042      5.493
REMARK  Name = 
REMARK  6 active torsions:
REMARK  status: ('A' for Active; 'I' for Inactive)
REMARK    1  A    between atoms: C_1  and  N_2
REMARK    2  A    between atoms: N_2  and  C_3
REMARK    3  A    between atoms: N_2  and  C_4
REMARK    4  A    between atoms: C_4  and  C_5
REMARK    5  A    between atoms: C_5  and  C_6
REMARK    6  A    between atoms: C_6  and  C_7
REMARK                            x       y       z     vdW  Elec       q    Type
REMARK                         _______ _______ _______ _____ _____    ______ ____
ROOT
ATOM      1  C   UNL     1       5.616   4.477  16.907  0.00  0.00    +0.000 C 
ATOM      2  C   UNL     1       4.171   4.958  16.597  0.00  0.00    +0.000 C 
ATOM      3  C   UNL     1       3.499   5.418  17.863  0.00  0.00    +0.000 A 
ATOM      4  C   UNL     1       2.611   6.501  17.871  0.00  0.00    +0.000 A 
ATOM      5  C   UNL     1       1.967   6.864  19.056  0.00  0.00    +0.000 A 
ATOM      6  C   UNL     1       2.206   6.149  20.235  0.00  0.00    +0.000 A 
ATOM      7  C   UNL     1       3.095   5.068  20.235  0.00  0.00    +0.000 A 
ATOM      8  C   UNL     1       3.748   4.703  19.050  0.00  0.00    +0.000 A 
ATOM      9  C   UNL     1       4.740   3.602  18.992  0.00  0.00    +0.000 C 
ATOM     10  O   UNL     1       4.891   2.838  19.932  0.00  0.00    +0.000 OA
ATOM     11  O   UNL     1       5.528   3.480  17.884  0.00  0.00    +0.000 OA
ENDROOT
BRANCH   1  12
ATOM     12  C   UNL     1       6.470   5.667  17.398  0.00  0.00    +0.000 A 
ATOM     13  C   UNL     1       7.423   5.476  18.425  0.00  0.00    +0.000 A 
ATOM     14  C   UNL     1       8.197   6.540  18.894  0.00  0.00    +0.000 A 
ATOM     15  C   UNL     1       8.046   7.813  18.345  0.00  0.00    +0.000 A 
ATOM     16 CL   UNL     1       9.019   9.147  18.934  0.00  0.00    +0.000 Cl
ATOM     17  C   UNL     1       7.115   8.023  17.328  0.00  0.00    +0.000 A 
ATOM     18  C   UNL     1       6.330   6.966  16.860  0.00  0.00    +0.000 A 
ENDBRANCH   1  12
BRANCH   1  19
ATOM     19  C   UNL     1       6.310   3.883  15.650  0.00  0.00    +0.000 C 
BRANCH  19  20
ATOM     20  C   UNL     1       5.715   4.354  14.307  0.00  0.00    +0.000 C 
BRANCH  20  22
ATOM     21  C   UNL     1       5.317   3.323  12.174  0.00  0.00    +0.000 C 
ATOM     22  N   UNL     1       6.361   3.717  13.137  0.00  0.00    +0.000 NA
ATOM     23  C   UNL     1       7.336   4.617  12.488  0.00  0.00    +0.000 C 
ENDBRANCH  20  22
ENDBRANCH  19  20
ENDBRANCH   1  19
TORSDOF 4
ENDMDL
MODEL 6
REMARK VINA RESULT:      -7.1      2.209      4.842
REMARK  Name = 
REMARK  6 active torsions:
REMARK  status: ('A' for Active; 'I' for Inactive)
REMARK    1  A    between atoms: C_1  and  N_2
REMARK    2  A    between atoms: N_2  and  C_3
REMARK    3  A    between atoms: N_2  and  C_4
REMARK    4  A    between atoms: C_4  and  C_5
REMARK    5  A    between atoms: C_5  and  C_6
REMARK    6  A    between atoms: C_6  and  C_7
REMARK                            x       y       z     vdW  Elec       q    Type
REMARK                         _______ _______ _______ _____ _____    ______ ____
ROOT
ATOM      1  C   UNL     1       4.064   5.744  17.581  0.00  0.00    +0.000 C 
ATOM      2  C   UNL     1       3.201   4.558  17.069  0.00  0.00    +0.000 C 
ATOM      3  C   UNL     1       2.572   3.839  18.233  0.00  0.00    +0.000 A 
ATOM      4  C   UNL     1       1.286   3.293  18.149  0.00  0.00    +0.000 A 
ATOM      5  C   UNL     1       0.758   2.587  19.233  0.00  0.00    +0.000 A 
ATOM      6  C   UNL     1       1.510   2.423  20.401  0.00  0.00    +0.000 A 
ATOM      7  C   UNL     1       2.795   2.970  20.492  0.00  0.00    +0.000 A 
ATOM      8  C   UNL     1       3.328   3.684  19.411  0.00  0.00    +0.000 A 
ATOM      9  C   UNL     1       4.661   4.331  19.460  0.00  0.00    +0.000 C 
ATOM     10  O   UNL     1       5.437   4.111  20.376  0.00  0.00    +0.000 OA
ATOM     11  O   UNL     1       4.998   5.227  18.486  0.00  0.00    +0.000 OA
ENDROOT
BRANCH   1  12
ATOM     12  C   UNL     1       3.158   6.799  18.255  0.00  0.00    +0.000 A 
ATOM     13  C   UNL     1       2.751   7.945  17.533  0.00  0.00    +0.000 A 
ATOM     14  C   UNL     1       1.944   8.919  18.125  0.00  0.00    +0.000 A 
ATOM     15  C   UNL     1       1.517   8.768  19.444  0.00  0.00    +0.000 A 
ATOM     16 CL   UNL     1       0.503   9.991  20.186  0.00  0.00    +0.000 Cl
ATOM     17  C   UNL     1       1.904   7.643  20.174  0.00  0.00    +0.000 A 
ATOM     18  C   UNL     1       2.719   6.670  19.591  0.00  0.00    +0.000 A 
ENDBRANCH   1  12
BRANCH   1  19
ATOM     19  C   UNL     1       4.828   6.446  16.425  0.00  0.00    +0.000 C 
BRANCH  19  20
ATOM     20  C   UNL     1       6.345   6.598  16.659  0.00  0.00    +0.000 C 
BRANCH  20  22
ATOM     21  C   UNL     1       7.568   4.539  16.837  0.00  0.00    +0.000 C 
ATOM     22  N   UNL     1       7.146   5.603  15.910  0.00  0.00    +0.000 NA
ATOM     23  C   UNL     1       6.388   5.023  14.782  0.00  0.00    +0.000 C 
ENDBRANCH  20  22
ENDBRANCH  19  20
ENDBRANCH   1  19
TORSDOF 4
ENDMDL
MODEL 7
REMARK VINA RESULT:      -6.9      2.204      4.738
REMARK  Name = 
REMARK  6 active torsions:
REMARK  status: ('A' for Active; 'I' for Inactive)
REMARK    1  A    between atoms: C_1  and  N_2
REMARK    2  A    between atoms: N_2  and  C_3
REMARK    3  A    between atoms: N_2  and  C_4
REMARK    4  A    between atoms: C_4  and  C_5
REMARK    5  A    between atoms: C_5  and  C_6
REMARK    6  A    between atoms: C_6  and  C_7
REMARK                            x       y       z     vdW  Elec       q    Type
REMARK                         _______ _______ _______ _____ _____    ______ ____
ROOT
ATOM      1  C   UNL     1       4.075   5.705  17.561  0.00  0.00    +0.000 C 
ATOM      2  C   UNL     1       3.198   4.521  17.065  0.00  0.00    +0.000 C 
ATOM      3  C   UNL     1       2.565   3.823  18.239  0.00  0.00    +0.000 A 
ATOM      4  C   UNL     1       1.273   3.289  18.164  0.00  0.00    +0.000 A 
ATOM      5  C   UNL     1       0.740   2.601  19.257  0.00  0.00    +0.000 A 
ATOM      6  C   UNL     1       1.494   2.443  20.426  0.00  0.00    +0.000 A 
ATOM      7  C   UNL     1       2.784   2.978  20.507  0.00  0.00    +0.000 A 
ATOM      8  C   UNL     1       3.322   3.674  19.416  0.00  0.00    +0.000 A 
ATOM      9  C   UNL     1       4.661   4.308  19.455  0.00  0.00    +0.000 C 
ATOM     10  O   UNL     1       5.437   4.090  20.372  0.00  0.00    +0.000 OA
ATOM     11  O   UNL     1       5.005   5.188  18.470  0.00  0.00    +0.000 OA
ENDROOT
BRANCH   1  12
ATOM     12  C   UNL     1       3.181   6.777  18.224  0.00  0.00    +0.000 A 
ATOM     13  C   UNL     1       2.762   6.616  19.565  0.00  0.00    +0.000 A 
ATOM     14  C   UNL     1       1.943   7.566  20.181  0.00  0.00    +0.000 A 
ATOM     15  C   UNL     1       1.532   8.698  19.478  0.00  0.00    +0.000 A 
ATOM     16 CL   UNL     1       0.505   9.890  20.253  0.00  0.00    +0.000 Cl
ATOM     17  C   UNL     1       1.937   8.879  18.155  0.00  0.00    +0.000 A 
ATOM     18  C   UNL     1       2.749   7.929  17.530  0.00  0.00    +0.000 A 
ENDBRANCH   1  12
BRANCH   1  19
ATOM     19  C   UNL     1       4.843   6.385  16.395  0.00  0.00    +0.000 C 
BRANCH  19  20
ATOM     20  C   UNL     1       6.352   6.579  16.649  0.00  0.00    +0.000 C 
BRANCH  20  22
ATOM     21  C   UNL     1       7.592   4.535  16.882  0.00  0.00    +0.000 C 
ATOM     22  N   UNL     1       7.188   5.589  15.933  0.00  0.00    +0.000 NA
ATOM     23  C   UNL     1       6.474   4.992  14.786  0.00  0.00    +0.000 C 
ENDBRANCH  20  22
ENDBRANCH  19  20
ENDBRANCH   1  19
TORSDOF 4
ENDMDL
MODEL 8
REMARK VINA RESULT:      -6.9      3.077      5.891
REMARK  Name = 
REMARK  6 active torsions:
REMARK  status: ('A' for Active; 'I' for Inactive)
REMARK    1  A    between atoms: C_1  and  N_2
REMARK    2  A    between atoms: N_2  and  C_3
REMARK    3  A    between atoms: N_2  and  C_4
REMARK    4  A    between atoms: C_4  and  C_5
REMARK    5  A    between atoms: C_5  and  C_6
REMARK    6  A    between atoms: C_6  and  C_7
REMARK                            x       y       z     vdW  Elec       q    Type
REMARK                         _______ _______ _______ _____ _____    ______ ____
ROOT
ATOM      1  C   UNL     1       2.684   6.683  18.408  0.00  0.00    +0.000 C 
ATOM      2  C   UNL     1       2.180   6.508  19.868  0.00  0.00    +0.000 C 
ATOM      3  C   UNL     1       2.014   5.045  20.183  0.00  0.00    +0.000 A 
ATOM      4  C   UNL     1       2.299   4.532  21.454  0.00  0.00    +0.000 A 
ATOM      5  C   UNL     1       2.082   3.178  21.722  0.00  0.00    +0.000 A 
ATOM      6  C   UNL     1       1.580   2.334  20.725  0.00  0.00    +0.000 A 
ATOM      7  C   UNL     1       1.297   2.840  19.452  0.00  0.00    +0.000 A 
ATOM      8  C   UNL     1       1.518   4.196  19.175  0.00  0.00    +0.000 A 
ATOM      9  C   UNL     1       1.288   4.785  17.835  0.00  0.00    +0.000 C 
ATOM     10  O   UNL     1       0.712   4.158  16.959  0.00  0.00    +0.000 OA
ATOM     11  O   UNL     1       1.775   6.032  17.567  0.00  0.00    +0.000 OA
ENDROOT
BRANCH   1  12
ATOM     12  C   UNL     1       4.102   6.086  18.268  0.00  0.00    +0.000 A 
ATOM     13  C   UNL     1       4.621   5.792  16.986  0.00  0.00    +0.000 A 
ATOM     14  C   UNL     1       5.895   5.239  16.836  0.00  0.00    +0.000 A 
ATOM     15  C   UNL     1       6.682   4.976  17.958  0.00  0.00    +0.000 A 
ATOM     16 CL   UNL     1       8.281   4.282  17.767  0.00  0.00    +0.000 Cl
ATOM     17  C   UNL     1       6.191   5.261  19.232  0.00  0.00    +0.000 A 
ATOM     18  C   UNL     1       4.914   5.806  19.390  0.00  0.00    +0.000 A 
ENDBRANCH   1  12
BRANCH   1  19
ATOM     19  C   UNL     1       2.759   8.179  17.997  0.00  0.00    +0.000 C 
BRANCH  19  20
ATOM     20  C   UNL     1       1.416   8.935  18.081  0.00  0.00    +0.000 C 
BRANCH  20  22
ATOM     21  C   UNL     1       1.372  11.261  18.677  0.00  0.00    +0.000 C 
ATOM     22  N   UNL     1       1.363   9.888  19.213  0.00  0.00    +0.000 NA
ATOM     23  C   UNL     1       0.166   9.680  20.054  0.00  0.00    +0.000 C 
ENDBRANCH  20  22
ENDBRANCH  19  20
ENDBRANCH   1  19
TORSDOF 4
ENDMDL
MODEL 9
REMARK VINA RESULT:      -6.9      3.079      5.822
REMARK  Name = 
REMARK  6 active torsions:
REMARK  status: ('A' for Active; 'I' for Inactive)
REMARK    1  A    between atoms: C_1  and  N_2
REMARK    2  A    between atoms: N_2  and  C_3
REMARK    3  A    between atoms: N_2  and  C_4
REMARK    4  A    between atoms: C_4  and  C_5
REMARK    5  A    between atoms: C_5  and  C_6
REMARK    6  A    between atoms: C_6  and  C_7
REMARK                            x       y       z     vdW  Elec       q    Type
REMARK                         _______ _______ _______ _____ _____    ______ ____
ROOT
ATOM      1  C   UNL     1       2.705   6.675  18.386  0.00  0.00    +0.000 C 
ATOM      2  C   UNL     1       2.221   6.494  19.852  0.00  0.00    +0.000 C 
ATOM      3  C   UNL     1       2.045   5.031  20.158  0.00  0.00    +0.000 A 
ATOM      4  C   UNL     1       2.343   4.505  21.421  0.00  0.00    +0.000 A 
ATOM      5  C   UNL     1       2.116   3.151  21.682  0.00  0.00    +0.000 A 
ATOM      6  C   UNL     1       1.591   2.320  20.687  0.00  0.00    +0.000 A 
ATOM      7  C   UNL     1       1.294   2.838  19.422  0.00  0.00    +0.000 A 
ATOM      8  C   UNL     1       1.525   4.194  19.152  0.00  0.00    +0.000 A 
ATOM      9  C   UNL     1       1.281   4.796  17.819  0.00  0.00    +0.000 C 
ATOM     10  O   UNL     1       0.686   4.181  16.947  0.00  0.00    +0.000 OA
ATOM     11  O   UNL     1       1.777   6.039  17.553  0.00  0.00    +0.000 OA
ENDROOT
BRANCH   1  12
ATOM     12  C   UNL     1       4.115   6.064  18.220  0.00  0.00    +0.000 A 
ATOM     13  C   UNL     1       4.906   5.796  19.360  0.00  0.00    +0.000 A 
ATOM     14  C   UNL     1       6.189   5.257  19.234  0.00  0.00    +0.000 A 
ATOM     15  C   UNL     1       6.706   4.965  17.972  0.00  0.00    +0.000 A 
ATOM     16 CL   UNL     1       8.316   4.288  17.816  0.00  0.00    +0.000 Cl
ATOM     17  C   UNL     1       5.941   5.219  16.833  0.00  0.00    +0.000 A 
ATOM     18  C   UNL     1       4.661   5.766  16.951  0.00  0.00    +0.000 A 
ENDBRANCH   1  12
BRANCH   1  19
ATOM     19  C   UNL     1       2.789   8.173  17.985  0.00  0.00    +0.000 C 
BRANCH  19  20
ATOM     20  C   UNL     1       1.447   8.931  18.054  0.00  0.00    +0.000 C 
BRANCH  20  22
ATOM     21  C   UNL     1       1.426  11.265  18.621  0.00  0.00    +0.000 C 
ATOM     22  N   UNL     1       1.390   9.899  19.173  0.00  0.00    +0.000 NA
ATOM     23  C   UNL     1       0.179   9.717  19.999  0.00  0.00    +0.000 C 
ENDBRANCH  20  22
ENDBRANCH  19  20
ENDBRANCH   1  19
TORSDOF 4
ENDMDL
