MODEL 1
REMARK VINA RESULT:      -8.6      0.000      0.000
REMARK  Name = 
REMARK  9 active torsions:
REMARK  status: ('A' for Active; 'I' for Inactive)
REMARK    1  A    between atoms: C_1  and  C_2
REMARK    2  A    between atoms: C_8  and  C_9
REMARK    3  A    between atoms: C_9  and  O_10
REMARK    4  A    between atoms: O_10  and  C_11
REMARK    5  A    between atoms: C_11  and  C_13
REMARK    6  A    between atoms: C_16  and  N_17
REMARK    7  A    between atoms: C_18  and  C_20
REMARK    8  A    between atoms: C_20  and  O_21
REMARK    9  A    between atoms: O_21  and  C_22
REMARK                            x       y       z     vdW  Elec       q    Type
REMARK                         _______ _______ _______ _____ _____    ______ ____
ROOT
ATOM      1  C   UNL     1       2.089   6.256  19.444  0.00  0.00    +0.000 A 
ATOM      2  C   UNL     1       2.310   7.104  18.347  0.00  0.00    +0.000 A 
ATOM      3  C   UNL     1       2.067   8.477  18.457  0.00  0.00    +0.000 A 
ATOM      4  C   UNL     1       1.613   9.006  19.666  0.00  0.00    +0.000 A 
ATOM      5  C   UNL     1       1.404   8.178  20.767  0.00  0.00    +0.000 A 
ATOM      6  C   UNL     1       1.630   6.802  20.653  0.00  0.00    +0.000 A 
ENDROOT
BRANCH   4   7
ATOM      7  N   UNL     1       1.407  10.382  19.766  0.00  0.00    +0.000 N 
ATOM      8  C   UNL     1       0.200  11.025  19.641  0.00  0.00    +0.000 C 
ATOM      9  O   UNL     1       0.147  12.247  19.801  0.00  0.00    +0.000 OA
ATOM     10  H   UNL     1       2.153  10.958  20.141  0.00  0.00    +0.000 HD
BRANCH   8  11
ATOM     11  C   UNL     1      -1.039  10.202  19.311  0.00  0.00    +0.000 C 
BRANCH  11  12
ATOM     12  O   UNL     1      -2.068  11.113  18.932  0.00  0.00    +0.000 OA
BRANCH  12  13
ATOM     13  C   UNL     1      -2.636  10.891  17.709  0.00  0.00    +0.000 A 
ATOM     14  C   UNL     1      -1.968   9.968  16.900  0.00  0.00    +0.000 A 
ATOM     15  C   UNL     1      -2.467   9.642  15.637  0.00  0.00    +0.000 A 
ATOM     16  C   UNL     1      -3.638  10.244  15.184  0.00  0.00    +0.000 A 
ATOM     17 CL   UNL     1      -4.261   9.849  13.632  0.00  0.00    +0.000 Cl
ATOM     18  C   UNL     1      -4.313  11.163  15.986  0.00  0.00    +0.000 A 
ATOM     19  C   UNL     1      -3.816  11.481  17.252  0.00  0.00    +0.000 A 
ENDBRANCH  12  13
ENDBRANCH  11  12
ENDBRANCH   8  11
ENDBRANCH   4   7
BRANCH   1  20
ATOM     20  C   UNL     1       2.351   4.794  19.287  0.00  0.00    +0.000 C 
ATOM     21  O   UNL     1       1.562   4.023  18.771  0.00  0.00    +0.000 OA
BRANCH  20  22
ATOM     22  O   UNL     1       3.559   4.479  19.807  0.00  0.00    +0.000 OA
BRANCH  22  23
ATOM     23  C   UNL     1       4.315   3.458  19.139  0.00  0.00    +0.000 C 
BRANCH  23  31
ATOM     24  C   UNL     1       7.808   5.293  12.767  0.00  0.00    +0.000 C 
ATOM     25  C   UNL     1       7.221   5.053  14.117  0.00  0.00    +0.000 A 
ATOM     26  N   UNL     1       7.582   5.685  15.188  0.00  0.00    +0.000 NA
ATOM     27  N   UNL     1       6.842   5.212  16.251  0.00  0.00    +0.000 N 
ATOM     28  C   UNL     1       7.001   5.700  17.528  0.00  0.00    +0.000 A 
ATOM     29  O   UNL     1       7.774   6.581  17.889  0.00  0.00    +0.000 OA
ATOM     30  C   UNL     1       6.109   5.058  18.521  0.00  0.00    +0.000 A 
ATOM     31  C   UNL     1       5.252   4.100  18.134  0.00  0.00    +0.000 A 
ATOM     32  N   UNL     1       5.138   3.667  16.824  0.00  0.00    +0.000 NA
ATOM     33  C   UNL     1       5.927   4.231  15.974  0.00  0.00    +0.000 A 
ATOM     34  S   UNL     1       5.968   3.846  14.283  0.00  0.00    +0.000 S 
ENDBRANCH  23  31
ENDBRANCH  22  23
ENDBRANCH  20  22
ENDBRANCH   1  20
TORSDOF 8
ENDMDL
MODEL 2
REMARK VINA RESULT:      -8.4      0.813      1.496
REMARK  Name = 
REMARK  9 active torsions:
REMARK  status: ('A' for Active; 'I' for Inactive)
REMARK    1  A    between atoms: C_1  and  C_2
REMARK    2  A    between atoms: C_8  and  C_9
REMARK    3  A    between atoms: C_9  and  O_10
REMARK    4  A    between atoms: O_10  and  C_11
REMARK    5  A    between atoms: C_11  and  C_13
REMARK    6  A    between atoms: C_16  and  N_17
REMARK    7  A    between atoms: C_18  and  C_20
REMARK    8  A    between atoms: C_20  and  O_21
REMARK    9  A    between atoms: O_21  and  C_22
REMARK                            x       y       z     vdW  Elec       q    Type
REMARK                         _______ _______ _______ _____ _____    ______ ____
ROOT
ATOM      1  C   UNL     1       1.914   6.904  19.894  0.00  0.00    +0.000 A 
ATOM      2  C   UNL     1       1.480   7.694  20.970  0.00  0.00    +0.000 A 
ATOM      3  C   UNL     1       1.258   9.064  20.794  0.00  0.00    +0.000 A 
ATOM      4  C   UNL     1       1.458   9.643  19.540  0.00  0.00    +0.000 A 
ATOM      5  C   UNL     1       1.874   8.868  18.460  0.00  0.00    +0.000 A 
ATOM      6  C   UNL     1       2.114   7.501  18.639  0.00  0.00    +0.000 A 
ENDROOT
BRANCH   4   7
ATOM      7  N   UNL     1       1.199  11.004  19.376  0.00  0.00    +0.000 N 
ATOM      8  C   UNL     1      -0.039  11.597  19.417  0.00  0.00    +0.000 C 
ATOM      9  O   UNL     1      -0.127  12.822  19.305  0.00  0.00    +0.000 OA
ATOM     10  H   UNL     1       1.977  11.654  19.412  0.00  0.00    +0.000 HD
BRANCH   8  11
ATOM     11  C   UNL     1      -1.268  10.716  19.602  0.00  0.00    +0.000 C 
BRANCH  11  12
ATOM     12  O   UNL     1      -2.371  11.390  19.000  0.00  0.00    +0.000 OA
BRANCH  12  13
ATOM     13  C   UNL     1      -2.710  10.969  17.745  0.00  0.00    +0.000 A 
ATOM     14  C   UNL     1      -3.851  11.567  17.203  0.00  0.00    +0.000 A 
ATOM     15  C   UNL     1      -4.282  11.233  15.917  0.00  0.00    +0.000 A 
ATOM     16  C   UNL     1      -3.567  10.298  15.174  0.00  0.00    +0.000 A 
ATOM     17 CL   UNL     1      -4.089   9.881  13.590  0.00  0.00    +0.000 Cl
ATOM     18  C   UNL     1      -2.426   9.700  15.704  0.00  0.00    +0.000 A 
ATOM     19  C   UNL     1      -1.992  10.041  16.987  0.00  0.00    +0.000 A 
ENDBRANCH  12  13
ENDBRANCH  11  12
ENDBRANCH   8  11
ENDBRANCH   4   7
BRANCH   1  20
ATOM     20  C   UNL     1       2.150   5.446  20.121  0.00  0.00    +0.000 C 
ATOM     21  O   UNL     1       2.191   4.938  21.227  0.00  0.00    +0.000 OA
BRANCH  20  22
ATOM     22  O   UNL     1       2.319   4.813  18.939  0.00  0.00    +0.000 OA
BRANCH  22  23
ATOM     23  C   UNL     1       3.197   3.676  18.923  0.00  0.00    +0.000 C 
BRANCH  23  31
ATOM     24  C   UNL     1       7.853   5.104  13.227  0.00  0.00    +0.000 C 
ATOM     25  C   UNL     1       7.071   4.850  14.470  0.00  0.00    +0.000 A 
ATOM     26  N   UNL     1       7.563   4.930  15.666  0.00  0.00    +0.000 NA
ATOM     27  N   UNL     1       6.570   4.630  16.574  0.00  0.00    +0.000 N 
ATOM     28  C   UNL     1       6.793   4.638  17.932  0.00  0.00    +0.000 A 
ATOM     29  O   UNL     1       7.845   4.902  18.504  0.00  0.00    +0.000 OA
ATOM     30  C   UNL     1       5.596   4.288  18.730  0.00  0.00    +0.000 A 
ATOM     31  C   UNL     1       4.436   4.006  18.113  0.00  0.00    +0.000 A 
ATOM     32  N   UNL     1       4.282   4.031  16.738  0.00  0.00    +0.000 NA
ATOM     33  C   UNL     1       5.337   4.330  16.059  0.00  0.00    +0.000 A 
ATOM     34  S   UNL     1       5.384   4.415  14.326  0.00  0.00    +0.000 S 
ENDBRANCH  23  31
ENDBRANCH  22  23
ENDBRANCH  20  22
ENDBRANCH   1  20
TORSDOF 8
ENDMDL
MODEL 3
REMARK VINA RESULT:      -8.4      1.135      1.453
REMARK  Name = 
REMARK  9 active torsions:
REMARK  status: ('A' for Active; 'I' for Inactive)
REMARK    1  A    between atoms: C_1  and  C_2
REMARK    2  A    between atoms: C_8  and  C_9
REMARK    3  A    between atoms: C_9  and  O_10
REMARK    4  A    between atoms: O_10  and  C_11
REMARK    5  A    between atoms: C_11  and  C_13
REMARK    6  A    between atoms: C_16  and  N_17
REMARK    7  A    between atoms: C_18  and  C_20
REMARK    8  A    between atoms: C_20  and  O_21
REMARK    9  A    between atoms: O_21  and  C_22
REMARK                            x       y       z     vdW  Elec       q    Type
REMARK                         _______ _______ _______ _____ _____    ______ ____
ROOT
ATOM      1  C   UNL     1       2.279   6.291  19.039  0.00  0.00    +0.000 A 
ATOM      2  C   UNL     1       2.432   6.975  17.822  0.00  0.00    +0.000 A 
ATOM      3  C   UNL     1       2.206   8.354  17.756  0.00  0.00    +0.000 A 
ATOM      4  C   UNL     1       1.837   9.052  18.907  0.00  0.00    +0.000 A 
ATOM      5  C   UNL     1       1.697   8.388  20.124  0.00  0.00    +0.000 A 
ATOM      6  C   UNL     1       1.906   7.006  20.188  0.00  0.00    +0.000 A 
ENDROOT
BRANCH   4   7
ATOM      7  N   UNL     1       1.648  10.432  18.828  0.00  0.00    +0.000 N 
ATOM      8  C   UNL     1       0.437  11.079  18.840  0.00  0.00    +0.000 C 
ATOM      9  O   UNL     1       0.410  12.311  18.813  0.00  0.00    +0.000 OA
ATOM     10  H   UNL     1       2.450  11.040  18.957  0.00  0.00    +0.000 HD
BRANCH   8  11
ATOM     11  C   UNL     1      -0.838  10.247  18.888  0.00  0.00    +0.000 C 
BRANCH  11  12
ATOM     12  O   UNL     1      -1.351  10.173  17.560  0.00  0.00    +0.000 OA
BRANCH  12  13
ATOM     13  C   UNL     1      -2.595  10.707  17.373  0.00  0.00    +0.000 A 
ATOM     14  C   UNL     1      -3.167  11.297  18.503  0.00  0.00    +0.000 A 
ATOM     15  C   UNL     1      -4.426  11.896  18.428  0.00  0.00    +0.000 A 
ATOM     16  C   UNL     1      -5.113  11.904  17.217  0.00  0.00    +0.000 A 
ATOM     17 CL   UNL     1      -6.663  12.640  17.115  0.00  0.00    +0.000 Cl
ATOM     18  C   UNL     1      -4.549  11.321  16.085  0.00  0.00    +0.000 A 
ATOM     19  C   UNL     1      -3.286  10.729  16.160  0.00  0.00    +0.000 A 
ENDBRANCH  12  13
ENDBRANCH  11  12
ENDBRANCH   8  11
ENDBRANCH   4   7
BRANCH   1  20
ATOM     20  C   UNL     1       2.520   4.817  19.070  0.00  0.00    +0.000 C 
ATOM     21  O   UNL     1       1.883   4.019  18.405  0.00  0.00    +0.000 OA
BRANCH  20  22
ATOM     22  O   UNL     1       3.515   4.526  19.937  0.00  0.00    +0.000 OA
BRANCH  22  23
ATOM     23  C   UNL     1       4.502   3.575  19.509  0.00  0.00    +0.000 C 
BRANCH  23  31
ATOM     24  C   UNL     1       7.739   5.309  12.976  0.00  0.00    +0.000 C 
ATOM     25  C   UNL     1       7.203   5.093  14.350  0.00  0.00    +0.000 A 
ATOM     26  N   UNL     1       7.586   5.761  15.392  0.00  0.00    +0.000 NA
ATOM     27  N   UNL     1       6.892   5.303  16.491  0.00  0.00    +0.000 N 
ATOM     28  C   UNL     1       7.083   5.829  17.749  0.00  0.00    +0.000 A 
ATOM     29  O   UNL     1       7.849   6.735  18.060  0.00  0.00    +0.000 OA
ATOM     30  C   UNL     1       6.240   5.195  18.788  0.00  0.00    +0.000 A 
ATOM     31  C   UNL     1       5.390   4.209  18.456  0.00  0.00    +0.000 A 
ATOM     32  N   UNL     1       5.243   3.738  17.163  0.00  0.00    +0.000 NA
ATOM     33  C   UNL     1       5.990   4.296  16.272  0.00  0.00    +0.000 A 
ATOM     34  S   UNL     1       5.983   3.865  14.591  0.00  0.00    +0.000 S 
ENDBRANCH  23  31
ENDBRANCH  22  23
ENDBRANCH  20  22
ENDBRANCH   1  20
TORSDOF 8
ENDMDL
MODEL 4
REMARK VINA RESULT:      -8.3      4.253     10.091
REMARK  Name = 
REMARK  9 active torsions:
REMARK  status: ('A' for Active; 'I' for Inactive)
REMARK    1  A    between atoms: C_1  and  C_2
REMARK    2  A    between atoms: C_8  and  C_9
REMARK    3  A    between atoms: C_9  and  O_10
REMARK    4  A    between atoms: O_10  and  C_11
REMARK    5  A    between atoms: C_11  and  C_13
REMARK    6  A    between atoms: C_16  and  N_17
REMARK    7  A    between atoms: C_18  and  C_20
REMARK    8  A    between atoms: C_20  and  O_21
REMARK    9  A    between atoms: O_21  and  C_22
REMARK                            x       y       z     vdW  Elec       q    Type
REMARK                         _______ _______ _______ _____ _____    ______ ____
ROOT
ATOM      1  C   UNL     1       1.765   7.608  19.711  0.00  0.00    +0.000 A 
ATOM      2  C   UNL     1       1.575   6.561  20.627  0.00  0.00    +0.000 A 
ATOM      3  C   UNL     1       1.812   5.237  20.243  0.00  0.00    +0.000 A 
ATOM      4  C   UNL     1       2.250   4.959  18.947  0.00  0.00    +0.000 A 
ATOM      5  C   UNL     1       2.457   5.989  18.033  0.00  0.00    +0.000 A 
ATOM      6  C   UNL     1       2.203   7.313  18.410  0.00  0.00    +0.000 A 
ENDROOT
BRANCH   4   7
ATOM      7  N   UNL     1       2.513   3.635  18.593  0.00  0.00    +0.000 N 
ATOM      8  C   UNL     1       3.695   2.969  18.798  0.00  0.00    +0.000 C 
ATOM      9  O   UNL     1       3.783   1.780  18.481  0.00  0.00    +0.000 OA
ATOM     10  H   UNL     1       1.735   3.039  18.331  0.00  0.00    +0.000 HD
BRANCH   8  11
ATOM     11  C   UNL     1       4.866   3.724  19.416  0.00  0.00    +0.000 C 
BRANCH  11  12
ATOM     12  O   UNL     1       5.895   3.795  18.433  0.00  0.00    +0.000 OA
BRANCH  12  13
ATOM     13  C   UNL     1       6.504   5.012  18.298  0.00  0.00    +0.000 A 
ATOM     14  C   UNL     1       5.875   5.900  17.422  0.00  0.00    +0.000 A 
ATOM     15  C   UNL     1       6.392   7.181  17.221  0.00  0.00    +0.000 A 
ATOM     16  C   UNL     1       7.543   7.573  17.901  0.00  0.00    +0.000 A 
ATOM     17 CL   UNL     1       8.187   9.149  17.661  0.00  0.00    +0.000 Cl
ATOM     18  C   UNL     1       8.174   6.695  18.779  0.00  0.00    +0.000 A 
ATOM     19  C   UNL     1       7.650   5.417  18.985  0.00  0.00    +0.000 A 
ENDBRANCH  12  13
ENDBRANCH  11  12
ENDBRANCH   8  11
ENDBRANCH   4   7
BRANCH   1  20
ATOM     20  C   UNL     1       1.493   9.009  20.153  0.00  0.00    +0.000 C 
ATOM     21  O   UNL     1       1.373   9.332  21.321  0.00  0.00    +0.000 OA
BRANCH  20  22
ATOM     22  O   UNL     1       1.392   9.824  19.079  0.00  0.00    +0.000 OA
BRANCH  22  23
ATOM     23  C   UNL     1       0.844  11.133  19.298  0.00  0.00    +0.000 C 
BRANCH  23  31
ATOM     24  C   UNL     1      -6.500  12.624  19.297  0.00  0.00    +0.000 C 
ATOM     25  C   UNL     1      -5.074  12.212  19.158  0.00  0.00    +0.000 A 
ATOM     26  N   UNL     1      -4.646  11.369  18.273  0.00  0.00    +0.000 NA
ATOM     27  N   UNL     1      -3.285  11.217  18.430  0.00  0.00    +0.000 N 
ATOM     28  C   UNL     1      -2.543  10.382  17.625  0.00  0.00    +0.000 A 
ATOM     29  O   UNL     1      -2.958   9.694  16.698  0.00  0.00    +0.000 OA
ATOM     30  C   UNL     1      -1.101  10.364  17.960  0.00  0.00    +0.000 A 
ATOM     31  C   UNL     1      -0.636  11.122  18.967  0.00  0.00    +0.000 A 
ATOM     32  N   UNL     1      -1.442  11.950  19.729  0.00  0.00    +0.000 NA
ATOM     33  C   UNL     1      -2.695  11.948  19.427  0.00  0.00    +0.000 A 
ATOM     34  S   UNL     1      -3.893  12.898  20.249  0.00  0.00    +0.000 S 
ENDBRANCH  23  31
ENDBRANCH  22  23
ENDBRANCH  20  22
ENDBRANCH   1  20
TORSDOF 8
ENDMDL
MODEL 5
REMARK VINA RESULT:      -8.3      4.308      9.920
REMARK  Name = 
REMARK  9 active torsions:
REMARK  status: ('A' for Active; 'I' for Inactive)
REMARK    1  A    between atoms: C_1  and  C_2
REMARK    2  A    between atoms: C_8  and  C_9
REMARK    3  A    between atoms: C_9  and  O_10
REMARK    4  A    between atoms: O_10  and  C_11
REMARK    5  A    between atoms: C_11  and  C_13
REMARK    6  A    between atoms: C_16  and  N_17
REMARK    7  A    between atoms: C_18  and  C_20
REMARK    8  A    between atoms: C_20  and  O_21
REMARK    9  A    between atoms: O_21  and  C_22
REMARK                            x       y       z     vdW  Elec       q    Type
REMARK                         _______ _______ _______ _____ _____    ______ ____
ROOT
ATOM      1  C   UNL     1       1.709   6.975  19.881  0.00  0.00    +0.000 A 
ATOM      2  C   UNL     1       2.006   6.670  18.543  0.00  0.00    +0.000 A 
ATOM      3  C   UNL     1       2.234   5.346  18.156  0.00  0.00    +0.000 A 
ATOM      4  C   UNL     1       2.156   4.323  19.102  0.00  0.00    +0.000 A 
ATOM      5  C   UNL     1       1.848   4.609  20.430  0.00  0.00    +0.000 A 
ATOM      6  C   UNL     1       1.636   5.936  20.823  0.00  0.00    +0.000 A 
ENDROOT
BRANCH   4   7
ATOM      7  N   UNL     1       2.355   3.005  18.689  0.00  0.00    +0.000 N 
ATOM      8  C   UNL     1       3.571   2.391  18.521  0.00  0.00    +0.000 C 
ATOM      9  O   UNL     1       3.608   1.201  18.198  0.00  0.00    +0.000 OA
ATOM     10  H   UNL     1       1.562   2.374  18.684  0.00  0.00    +0.000 HD
BRANCH   8  11
ATOM     11  C   UNL     1       4.841   3.203  18.744  0.00  0.00    +0.000 C 
BRANCH  11  12
ATOM     12  O   UNL     1       5.171   3.828  17.506  0.00  0.00    +0.000 OA
BRANCH  12  13
ATOM     13  C   UNL     1       5.869   4.999  17.599  0.00  0.00    +0.000 A 
ATOM     14  C   UNL     1       6.903   5.004  18.539  0.00  0.00    +0.000 A 
ATOM     15  C   UNL     1       7.700   6.139  18.707  0.00  0.00    +0.000 A 
ATOM     16  C   UNL     1       7.459   7.270  17.932  0.00  0.00    +0.000 A 
ATOM     17 CL   UNL     1       8.436   8.671  18.132  0.00  0.00    +0.000 Cl
ATOM     18  C   UNL     1       6.433   7.272  16.990  0.00  0.00    +0.000 A 
ATOM     19  C   UNL     1       5.642   6.134  16.817  0.00  0.00    +0.000 A 
ENDBRANCH  12  13
ENDBRANCH  11  12
ENDBRANCH   8  11
ENDBRANCH   4   7
BRANCH   1  20
ATOM     20  C   UNL     1       1.480   8.401  20.261  0.00  0.00    +0.000 C 
ATOM     21  O   UNL     1       1.413   8.786  21.415  0.00  0.00    +0.000 OA
BRANCH  20  22
ATOM     22  O   UNL     1       1.351   9.162  19.151  0.00  0.00    +0.000 OA
BRANCH  22  23
ATOM     23  C   UNL     1       0.980  10.537  19.338  0.00  0.00    +0.000 C 
BRANCH  23  31
ATOM     24  C   UNL     1      -6.134  12.891  19.239  0.00  0.00    +0.000 C 
ATOM     25  C   UNL     1      -4.763  12.320  19.113  0.00  0.00    +0.000 A 
ATOM     26  N   UNL     1      -4.409  11.481  18.192  0.00  0.00    +0.000 NA
ATOM     27  N   UNL     1      -3.080  11.160  18.374  0.00  0.00    +0.000 N 
ATOM     28  C   UNL     1      -2.417  10.287  17.541  0.00  0.00    +0.000 A 
ATOM     29  O   UNL     1      -2.880   9.704  16.566  0.00  0.00    +0.000 OA
ATOM     30  C   UNL     1      -0.998  10.079  17.910  0.00  0.00    +0.000 A 
ATOM     31  C   UNL     1      -0.479  10.721  18.970  0.00  0.00    +0.000 A 
ATOM     32  N   UNL     1      -1.206  11.597  19.758  0.00  0.00    +0.000 NA
ATOM     33  C   UNL     1      -2.441  11.760  19.426  0.00  0.00    +0.000 A 
ATOM     34  S   UNL     1      -3.544  12.800  20.270  0.00  0.00    +0.000 S 
ENDBRANCH  23  31
ENDBRANCH  22  23
ENDBRANCH  20  22
ENDBRANCH   1  20
TORSDOF 8
ENDMDL
MODEL 6
REMARK VINA RESULT:      -8.2      4.299      9.998
REMARK  Name = 
REMARK  9 active torsions:
REMARK  status: ('A' for Active; 'I' for Inactive)
REMARK    1  A    between atoms: C_1  and  C_2
REMARK    2  A    between atoms: C_8  and  C_9
REMARK    3  A    between atoms: C_9  and  O_10
REMARK    4  A    between atoms: O_10  and  C_11
REMARK    5  A    between atoms: C_11  and  C_13
REMARK    6  A    between atoms: C_16  and  N_17
REMARK    7  A    between atoms: C_18  and  C_20
REMARK    8  A    between atoms: C_20  and  O_21
REMARK    9  A    between atoms: O_21  and  C_22
REMARK                            x       y       z     vdW  Elec       q    Type
REMARK                         _______ _______ _______ _____ _____    ______ ____
ROOT
ATOM      1  C   UNL     1       1.951   7.497  18.764  0.00  0.00    +0.000 A 
ATOM      2  C   UNL     1       2.295   6.988  20.027  0.00  0.00    +0.000 A 
ATOM      3  C   UNL     1       2.494   5.614  20.202  0.00  0.00    +0.000 A 
ATOM      4  C   UNL     1       2.359   4.750  19.115  0.00  0.00    +0.000 A 
ATOM      5  C   UNL     1       2.033   5.243  17.853  0.00  0.00    +0.000 A 
ATOM      6  C   UNL     1       1.816   6.615  17.680  0.00  0.00    +0.000 A 
ENDROOT
BRANCH   4   7
ATOM      7  N   UNL     1       2.594   3.387  19.303  0.00  0.00    +0.000 N 
ATOM      8  C   UNL     1       3.676   2.686  18.830  0.00  0.00    +0.000 C 
ATOM      9  O   UNL     1       3.790   1.490  19.108  0.00  0.00    +0.000 OA
ATOM     10  H   UNL     1       2.039   2.889  19.989  0.00  0.00    +0.000 HD
BRANCH   8  11
ATOM     11  C   UNL     1       4.706   3.414  17.975  0.00  0.00    +0.000 C 
BRANCH  11  12
ATOM     12  O   UNL     1       5.692   3.948  18.855  0.00  0.00    +0.000 OA
BRANCH  12  13
ATOM     13  C   UNL     1       6.207   5.164  18.503  0.00  0.00    +0.000 A 
ATOM     14  C   UNL     1       7.457   5.463  19.051  0.00  0.00    +0.000 A 
ATOM     15  C   UNL     1       8.093   6.668  18.744  0.00  0.00    +0.000 A 
ATOM     16  C   UNL     1       7.475   7.574  17.886  0.00  0.00    +0.000 A 
ATOM     17 CL   UNL     1       8.251   9.058  17.501  0.00  0.00    +0.000 Cl
ATOM     18  C   UNL     1       6.231   7.281  17.332  0.00  0.00    +0.000 A 
ATOM     19  C   UNL     1       5.599   6.072  17.634  0.00  0.00    +0.000 A 
ENDBRANCH  12  13
ENDBRANCH  11  12
ENDBRANCH   8  11
ENDBRANCH   4   7
BRANCH   1  20
ATOM     20  C   UNL     1       1.736   8.968  18.616  0.00  0.00    +0.000 C 
ATOM     21  O   UNL     1       2.413   9.674  17.890  0.00  0.00    +0.000 OA
BRANCH  20  22
ATOM     22  O   UNL     1       0.714   9.370  19.404  0.00  0.00    +0.000 OA
BRANCH  22  23
ATOM     23  C   UNL     1       0.275  10.731  19.266  0.00  0.00    +0.000 C 
BRANCH  23  31
ATOM     24  C   UNL     1      -6.909  12.223  17.745  0.00  0.00    +0.000 C 
ATOM     25  C   UNL     1      -5.480  11.826  17.893  0.00  0.00    +0.000 A 
ATOM     26  N   UNL     1      -4.844  11.077  17.049  0.00  0.00    +0.000 NA
ATOM     27  N   UNL     1      -3.551  10.908  17.495  0.00  0.00    +0.000 N 
ATOM     28  C   UNL     1      -2.629  10.159  16.800  0.00  0.00    +0.000 A 
ATOM     29  O   UNL     1      -2.808   9.570  15.740  0.00  0.00    +0.000 OA
ATOM     30  C   UNL     1      -1.299  10.105  17.451  0.00  0.00    +0.000 A 
ATOM     31  C   UNL     1      -1.091  10.756  18.608  0.00  0.00    +0.000 A 
ATOM     32  N   UNL     1      -2.066  11.503  19.245  0.00  0.00    +0.000 NA
ATOM     33  C   UNL     1      -3.219  11.532  18.668  0.00  0.00    +0.000 A 
ATOM     34  S   UNL     1      -4.591  12.395  19.287  0.00  0.00    +0.000 S 
ENDBRANCH  23  31
ENDBRANCH  22  23
ENDBRANCH  20  22
ENDBRANCH   1  20
TORSDOF 8
ENDMDL
MODEL 7
REMARK VINA RESULT:      -8.2      4.698      9.461
REMARK  Name = 
REMARK  9 active torsions:
REMARK  status: ('A' for Active; 'I' for Inactive)
REMARK    1  A    between atoms: C_1  and  C_2
REMARK    2  A    between atoms: C_8  and  C_9
REMARK    3  A    between atoms: C_9  and  O_10
REMARK    4  A    between atoms: O_10  and  C_11
REMARK    5  A    between atoms: C_11  and  C_13
REMARK    6  A    between atoms: C_16  and  N_17
REMARK    7  A    between atoms: C_18  and  C_20
REMARK    8  A    between atoms: C_20  and  O_21
REMARK    9  A    between atoms: O_21  and  C_22
REMARK                            x       y       z     vdW  Elec       q    Type
REMARK                         _______ _______ _______ _____ _____    ______ ____
ROOT
ATOM      1  C   UNL     1       2.202   6.916  18.610  0.00  0.00    +0.000 A 
ATOM      2  C   UNL     1       2.259   6.957  20.012  0.00  0.00    +0.000 A 
ATOM      3  C   UNL     1       1.866   5.847  20.766  0.00  0.00    +0.000 A 
ATOM      4  C   UNL     1       1.424   4.692  20.121  0.00  0.00    +0.000 A 
ATOM      5  C   UNL     1       1.375   4.632  18.730  0.00  0.00    +0.000 A 
ATOM      6  C   UNL     1       1.752   5.748  17.974  0.00  0.00    +0.000 A 
ENDROOT
BRANCH   4   7
ATOM      7  N   UNL     1       1.066   3.583  20.889  0.00  0.00    +0.000 N 
ATOM      8  C   UNL     1       1.935   2.673  21.439  0.00  0.00    +0.000 C 
ATOM      9  O   UNL     1       1.492   1.762  22.141  0.00  0.00    +0.000 OA
ATOM     10  H   UNL     1       0.117   3.521  21.240  0.00  0.00    +0.000 HD
BRANCH   8  11
ATOM     11  C   UNL     1       3.426   2.823  21.163  0.00  0.00    +0.000 C 
BRANCH  11  12
ATOM     12  O   UNL     1       3.696   2.191  19.914  0.00  0.00    +0.000 OA
BRANCH  12  13
ATOM     13  C   UNL     1       4.179   3.006  18.929  0.00  0.00    +0.000 A 
ATOM     14  C   UNL     1       4.924   4.101  19.373  0.00  0.00    +0.000 A 
ATOM     15  C   UNL     1       5.489   4.991  18.457  0.00  0.00    +0.000 A 
ATOM     16  C   UNL     1       5.306   4.782  17.092  0.00  0.00    +0.000 A 
ATOM     17 CL   UNL     1       5.998   5.871  15.957  0.00  0.00    +0.000 Cl
ATOM     18  C   UNL     1       4.568   3.690  16.641  0.00  0.00    +0.000 A 
ATOM     19  C   UNL     1       4.011   2.796  17.558  0.00  0.00    +0.000 A 
ENDBRANCH  12  13
ENDBRANCH  11  12
ENDBRANCH   8  11
ENDBRANCH   4   7
BRANCH   1  20
ATOM     20  C   UNL     1       2.621   8.124  17.837  0.00  0.00    +0.000 C 
ATOM     21  O   UNL     1       3.272   8.070  16.810  0.00  0.00    +0.000 OA
BRANCH  20  22
ATOM     22  O   UNL     1       2.186   9.245  18.455  0.00  0.00    +0.000 OA
BRANCH  22  23
ATOM     23  C   UNL     1       0.859   9.695  18.138  0.00  0.00    +0.000 C 
BRANCH  23  31
ATOM     24  C   UNL     1      -3.699  13.481  22.726  0.00  0.00    +0.000 C 
ATOM     25  C   UNL     1      -2.706  12.670  21.966  0.00  0.00    +0.000 A 
ATOM     26  N   UNL     1      -1.771  11.963  22.518  0.00  0.00    +0.000 NA
ATOM     27  N   UNL     1      -1.036  11.350  21.526  0.00  0.00    +0.000 N 
ATOM     28  C   UNL     1       0.029  10.525  21.807  0.00  0.00    +0.000 A 
ATOM     29  O   UNL     1       0.454  10.224  22.917  0.00  0.00    +0.000 OA
ATOM     30  C   UNL     1       0.681   9.968  20.599  0.00  0.00    +0.000 A 
ATOM     31  C   UNL     1       0.216  10.284  19.379  0.00  0.00    +0.000 A 
ATOM     32  N   UNL     1      -0.872  11.114  19.172  0.00  0.00    +0.000 NA
ATOM     33  C   UNL     1      -1.422  11.595  20.234  0.00  0.00    +0.000 A 
ATOM     34  S   UNL     1      -2.791  12.662  20.220  0.00  0.00    +0.000 S 
ENDBRANCH  23  31
ENDBRANCH  22  23
ENDBRANCH  20  22
ENDBRANCH   1  20
TORSDOF 8
ENDMDL
MODEL 8
REMARK VINA RESULT:      -8.2      2.168      2.992
REMARK  Name = 
REMARK  9 active torsions:
REMARK  status: ('A' for Active; 'I' for Inactive)
REMARK    1  A    between atoms: C_1  and  C_2
REMARK    2  A    between atoms: C_8  and  C_9
REMARK    3  A    between atoms: C_9  and  O_10
REMARK    4  A    between atoms: O_10  and  C_11
REMARK    5  A    between atoms: C_11  and  C_13
REMARK    6  A    between atoms: C_16  and  N_17
REMARK    7  A    between atoms: C_18  and  C_20
REMARK    8  A    between atoms: C_20  and  O_21
REMARK    9  A    between atoms: O_21  and  C_22
REMARK                            x       y       z     vdW  Elec       q    Type
REMARK                         _______ _______ _______ _____ _____    ______ ____
ROOT
ATOM      1  C   UNL     1       2.002   4.830  19.065  0.00  0.00    +0.000 A 
ATOM      2  C   UNL     1       1.491   4.797  20.372  0.00  0.00    +0.000 A 
ATOM      3  C   UNL     1       1.436   5.966  21.138  0.00  0.00    +0.000 A 
ATOM      4  C   UNL     1       1.882   7.172  20.595  0.00  0.00    +0.000 A 
ATOM      5  C   UNL     1       2.378   7.222  19.294  0.00  0.00    +0.000 A 
ATOM      6  C   UNL     1       2.450   6.050  18.533  0.00  0.00    +0.000 A 
ENDROOT
BRANCH   4   7
ATOM      7  N   UNL     1       1.788   8.334  21.362  0.00  0.00    +0.000 N 
ATOM      8  C   UNL     1       1.018   9.431  21.066  0.00  0.00    +0.000 C 
ATOM      9  O   UNL     1       0.986  10.378  21.856  0.00  0.00    +0.000 OA
ATOM     10  H   UNL     1       2.159   8.324  22.305  0.00  0.00    +0.000 HD
BRANCH   8  11
ATOM     11  C   UNL     1       0.223   9.442  19.766  0.00  0.00    +0.000 C 
BRANCH  11  12
ATOM     12  O   UNL     1      -0.214  10.780  19.544  0.00  0.00    +0.000 OA
BRANCH  12  13
ATOM     13  C   UNL     1      -1.452  10.914  18.979  0.00  0.00    +0.000 A 
ATOM     14  C   UNL     1      -2.260  11.904  19.543  0.00  0.00    +0.000 A 
ATOM     15  C   UNL     1      -3.538  12.149  19.035  0.00  0.00    +0.000 A 
ATOM     16  C   UNL     1      -4.005  11.399  17.959  0.00  0.00    +0.000 A 
ATOM     17 CL   UNL     1      -5.576  11.693  17.326  0.00  0.00    +0.000 Cl
ATOM     18  C   UNL     1      -3.205  10.412  17.389  0.00  0.00    +0.000 A 
ATOM     19  C   UNL     1      -1.924  10.174  17.893  0.00  0.00    +0.000 A 
ENDBRANCH  12  13
ENDBRANCH  11  12
ENDBRANCH   8  11
ENDBRANCH   4   7
BRANCH   1  20
ATOM     20  C   UNL     1       2.055   3.560  18.280  0.00  0.00    +0.000 C 
ATOM     21  O   UNL     1       1.152   3.182  17.556  0.00  0.00    +0.000 OA
BRANCH  20  22
ATOM     22  O   UNL     1       3.222   2.919  18.512  0.00  0.00    +0.000 OA
BRANCH  22  23
ATOM     23  C   UNL     1       4.136   2.803  17.411  0.00  0.00    +0.000 C 
BRANCH  23  31
ATOM     24  C   UNL     1       8.761   8.615  18.409  0.00  0.00    +0.000 C 
ATOM     25  C   UNL     1       7.788   7.542  18.055  0.00  0.00    +0.000 A 
ATOM     26  N   UNL     1       7.063   7.546  16.982  0.00  0.00    +0.000 NA
ATOM     27  N   UNL     1       6.279   6.412  16.975  0.00  0.00    +0.000 N 
ATOM     28  C   UNL     1       5.401   6.136  15.951  0.00  0.00    +0.000 A 
ATOM     29  O   UNL     1       5.202   6.814  14.948  0.00  0.00    +0.000 OA
ATOM     30  C   UNL     1       4.655   4.870  16.137  0.00  0.00    +0.000 A 
ATOM     31  C   UNL     1       4.873   4.115  17.227  0.00  0.00    +0.000 A 
ATOM     32  N   UNL     1       5.785   4.452  18.213  0.00  0.00    +0.000 NA
ATOM     33  C   UNL     1       6.419   5.561  18.038  0.00  0.00    +0.000 A 
ATOM     34  S   UNL     1       7.600   6.188  19.144  0.00  0.00    +0.000 S 
ENDBRANCH  23  31
ENDBRANCH  22  23
ENDBRANCH  20  22
ENDBRANCH   1  20
TORSDOF 8
ENDMDL
MODEL 9
REMARK VINA RESULT:      -8.2      1.255      1.821
REMARK  Name = 
REMARK  9 active torsions:
REMARK  status: ('A' for Active; 'I' for Inactive)
REMARK    1  A    between atoms: C_1  and  C_2
REMARK    2  A    between atoms: C_8  and  C_9
REMARK    3  A    between atoms: C_9  and  O_10
REMARK    4  A    between atoms: O_10  and  C_11
REMARK    5  A    between atoms: C_11  and  C_13
REMARK    6  A    between atoms: C_16  and  N_17
REMARK    7  A    between atoms: C_18  and  C_20
REMARK    8  A    between atoms: C_20  and  O_21
REMARK    9  A    between atoms: O_21  and  C_22
REMARK                            x       y       z     vdW  Elec       q    Type
REMARK                         _______ _______ _______ _____ _____    ______ ____
ROOT
ATOM      1  C   UNL     1       1.857   4.989  19.166  0.00  0.00    +0.000 A 
ATOM      2  C   UNL     1       1.526   5.384  20.472  0.00  0.00    +0.000 A 
ATOM      3  C   UNL     1       1.570   6.735  20.832  0.00  0.00    +0.000 A 
ATOM      4  C   UNL     1       1.934   7.693  19.885  0.00  0.00    +0.000 A 
ATOM      5  C   UNL     1       2.251   7.317  18.581  0.00  0.00    +0.000 A 
ATOM      6  C   UNL     1       2.225   5.963  18.225  0.00  0.00    +0.000 A 
ENDROOT
BRANCH   4   7
ATOM      7  N   UNL     1       1.940   9.039  20.253  0.00  0.00    +0.000 N 
ATOM      8  C   UNL     1       0.906   9.924  20.077  0.00  0.00    +0.000 C 
ATOM      9  O   UNL     1       1.021  11.080  20.493  0.00  0.00    +0.000 OA
ATOM     10  H   UNL     1       2.678   9.372  20.864  0.00  0.00    +0.000 HD
BRANCH   8  11
ATOM     11  C   UNL     1      -0.358   9.446  19.373  0.00  0.00    +0.000 C 
BRANCH  11  12
ATOM     12  O   UNL     1      -0.488  10.200  18.170  0.00  0.00    +0.000 OA
BRANCH  12  13
ATOM     13  C   UNL     1      -1.757  10.595  17.851  0.00  0.00    +0.000 A 
ATOM     14  C   UNL     1      -2.395  11.383  18.812  0.00  0.00    +0.000 A 
ATOM     15  C   UNL     1      -3.687  11.865  18.587  0.00  0.00    +0.000 A 
ATOM     16  C   UNL     1      -4.338  11.556  17.396  0.00  0.00    +0.000 A 
ATOM     17 CL   UNL     1      -5.928  12.146  17.110  0.00  0.00    +0.000 Cl
ATOM     18  C   UNL     1      -3.708  10.774  16.431  0.00  0.00    +0.000 A 
ATOM     19  C   UNL     1      -2.413  10.300  16.654  0.00  0.00    +0.000 A 
ENDBRANCH  12  13
ENDBRANCH  11  12
ENDBRANCH   8  11
ENDBRANCH   4   7
BRANCH   1  20
ATOM     20  C   UNL     1       1.809   3.536  18.821  0.00  0.00    +0.000 C 
ATOM     21  O   UNL     1       0.902   2.796  19.159  0.00  0.00    +0.000 OA
BRANCH  20  22
ATOM     22  O   UNL     1       2.905   3.191  18.109  0.00  0.00    +0.000 OA
BRANCH  22  23
ATOM     23  C   UNL     1       4.177   3.313  18.764  0.00  0.00    +0.000 C 
BRANCH  23  31
ATOM     24  C   UNL     1       7.895   5.317  12.574  0.00  0.00    +0.000 C 
ATOM     25  C   UNL     1       7.271   5.028  13.896  0.00  0.00    +0.000 A 
ATOM     26  N   UNL     1       7.661   5.557  15.013  0.00  0.00    +0.000 NA
ATOM     27  N   UNL     1       6.872   5.069  16.032  0.00  0.00    +0.000 N 
ATOM     28  C   UNL     1       7.046   5.455  17.342  0.00  0.00    +0.000 A 
ATOM     29  O   UNL     1       7.876   6.248  17.772  0.00  0.00    +0.000 OA
ATOM     30  C   UNL     1       6.094   4.814  18.279  0.00  0.00    +0.000 A 
ATOM     31  C   UNL     1       5.174   3.951  17.817  0.00  0.00    +0.000 A 
ATOM     32  N   UNL     1       5.050   3.619  16.479  0.00  0.00    +0.000 NA
ATOM     33  C   UNL     1       5.891   4.180  15.679  0.00  0.00    +0.000 A 
ATOM     34  S   UNL     1       5.930   3.909  13.965  0.00  0.00    +0.000 S 
ENDBRANCH  23  31
ENDBRANCH  22  23
ENDBRANCH  20  22
ENDBRANCH   1  20
TORSDOF 8
ENDMDL
