MODEL 1
REMARK VINA RESULT:      -8.6      0.000      0.000
REMARK  Name = 
REMARK  7 active torsions:
REMARK  status: ('A' for Active; 'I' for Inactive)
REMARK    1  A    between atoms: C_1  and  C_2
REMARK    2  A    between atoms: C_2  and  C_3
REMARK    3  A    between atoms: C_6  and  C_7
REMARK    4  A    between atoms: N_11  and  C1*_12
REMARK    5  A    between atoms: C3*_14  and  O3*_15
REMARK    6  A    between atoms: C4*_16  and  C5*_17
REMARK    7  A    between atoms: C5*_17  and  O5*_18
REMARK                            x       y       z     vdW  Elec       q    Type
REMARK                         _______ _______ _______ _____ _____    ______ ____
ROOT
ATOM      1  C   UNL     1       1.231   8.005  20.654  0.00  0.00    +0.000 A 
ATOM      2  C   UNL     1       1.972   8.059  19.545  0.00  0.00    +0.000 A 
ATOM      3  C   UNL     1       2.491   6.756  19.426  0.00  0.00    +0.000 A 
ATOM      4  C   UNL     1       3.333   6.155  18.601  0.00  0.00    +0.000 A 
ATOM      5  N   UNL     1       3.678   4.833  18.822  0.00  0.00    +0.000 N 
ATOM      6  C   UNL     1       3.092   4.074  19.861  0.00  0.00    +0.000 A 
ATOM      7  O   UNL     1       3.356   2.877  19.978  0.00  0.00    +0.000 OA
ATOM      8  N   UNL     1       2.231   4.698  20.744  0.00  0.00    +0.000 NA
ATOM      9  C   UNL     1       1.988   5.936  20.520  0.00  0.00    +0.000 A 
ATOM     10  O   UNL     1       1.188   6.740  21.302  0.00  0.00    +0.000 OA
ENDROOT
BRANCH   1  14
ATOM     11  C   UNL     1      -0.729  11.347  22.491  0.00  0.00    +0.000 A 
ATOM     12  C   UNL     1      -0.161  11.471  21.220  0.00  0.00    +0.000 A 
ATOM     13  C   UNL     1       0.461  10.375  20.616  0.00  0.00    +0.000 A 
ATOM     14  C   UNL     1       0.532   9.136  21.271  0.00  0.00    +0.000 A 
ATOM     15  C   UNL     1      -0.054   9.013  22.537  0.00  0.00    +0.000 A 
ATOM     16  C   UNL     1      -0.674  10.110  23.143  0.00  0.00    +0.000 A 
BRANCH  11  18
ATOM     17  C   UNL     1      -2.929  12.200  23.285  0.00  0.00    +0.000 C 
ATOM     18  C   UNL     1      -1.451  12.514  23.112  0.00  0.00    +0.000 C 
ENDBRANCH  11  18
ENDBRANCH   1  14
BRANCH   5  19
ATOM     19  C1* UNL     1       4.669   4.179  17.977  0.00  0.00    +0.000 C 
ATOM     20  C2* UNL     1       4.745   4.734  16.562  0.00  0.00    +0.000 C 
ATOM     21  C3* UNL     1       6.183   4.454  16.184  0.00  0.00    +0.000 C 
ATOM     22  C4* UNL     1       6.934   4.608  17.504  0.00  0.00    +0.000 C 
ATOM     23  O4* UNL     1       5.983   4.331  18.558  0.00  0.00    +0.000 OA
BRANCH  21  24
ATOM     24  O3* UNL     1       6.292   3.123  15.678  0.00  0.00    +0.000 OA
ATOM     25  H3* UNL     1       5.652   2.546  16.132  0.00  0.00    +0.000 HD
ENDBRANCH  21  24
BRANCH  22  26
ATOM     26  C5* UNL     1       7.479   6.026  17.704  0.00  0.00    +0.000 C 
BRANCH  26  27
ATOM     27  O5* UNL     1       7.627   6.691  16.450  0.00  0.00    +0.000 OA
ATOM     28  H5* UNL     1       7.155   6.152  15.789  0.00  0.00    +0.000 HD
ENDBRANCH  26  27
ENDBRANCH  22  26
ENDBRANCH   5  19
TORSDOF 6
ENDMDL
MODEL 2
REMARK VINA RESULT:      -8.1      3.099      9.007
REMARK  Name = 
REMARK  7 active torsions:
REMARK  status: ('A' for Active; 'I' for Inactive)
REMARK    1  A    between atoms: C_1  and  C_2
REMARK    2  A    between atoms: C_2  and  C_3
REMARK    3  A    between atoms: C_6  and  C_7
REMARK    4  A    between atoms: N_11  and  C1*_12
REMARK    5  A    between atoms: C3*_14  and  O3*_15
REMARK    6  A    between atoms: C4*_16  and  C5*_17
REMARK    7  A    between atoms: C5*_17  and  O5*_18
REMARK                            x       y       z     vdW  Elec       q    Type
REMARK                         _______ _______ _______ _____ _____    ______ ____
ROOT
ATOM      1  C   UNL     1       3.019   7.162  18.303  0.00  0.00    +0.000 A 
ATOM      2  C   UNL     1       2.529   8.348  17.931  0.00  0.00    +0.000 A 
ATOM      3  C   UNL     1       1.755   8.752  19.035  0.00  0.00    +0.000 A 
ATOM      4  C   UNL     1       0.966   9.780  19.299  0.00  0.00    +0.000 A 
ATOM      5  N   UNL     1       0.290   9.828  20.506  0.00  0.00    +0.000 N 
ATOM      6  C   UNL     1       0.481   8.848  21.506  0.00  0.00    +0.000 A 
ATOM      7  O   UNL     1      -0.069   8.966  22.602  0.00  0.00    +0.000 OA
ATOM      8  N   UNL     1       1.283   7.756  21.232  0.00  0.00    +0.000 NA
ATOM      9  C   UNL     1       1.842   7.740  20.079  0.00  0.00    +0.000 A 
ATOM     10  O   UNL     1       2.647   6.727  19.604  0.00  0.00    +0.000 OA
ENDROOT
BRANCH   1  14
ATOM     11  C   UNL     1       5.336   4.575  15.789  0.00  0.00    +0.000 A 
ATOM     12  C   UNL     1       5.509   5.960  15.729  0.00  0.00    +0.000 A 
ATOM     13  C   UNL     1       4.765   6.800  16.562  0.00  0.00    +0.000 A 
ATOM     14  C   UNL     1       3.832   6.274  17.468  0.00  0.00    +0.000 A 
ATOM     15  C   UNL     1       3.676   4.884  17.538  0.00  0.00    +0.000 A 
ATOM     16  C   UNL     1       4.418   4.043  16.701  0.00  0.00    +0.000 A 
BRANCH  11  18
ATOM     17  C   UNL     1       5.860   3.871  13.460  0.00  0.00    +0.000 C 
ATOM     18  C   UNL     1       6.182   3.670  14.932  0.00  0.00    +0.000 C 
ENDBRANCH  11  18
ENDBRANCH   1  14
BRANCH   5  19
ATOM     19  C1* UNL     1      -0.650  10.907  20.781  0.00  0.00    +0.000 C 
ATOM     20  C2* UNL     1       0.001  12.186  21.288  0.00  0.00    +0.000 C 
ATOM     21  C3* UNL     1      -0.969  13.248  20.817  0.00  0.00    +0.000 C 
ATOM     22  C4* UNL     1      -1.494  12.690  19.496  0.00  0.00    +0.000 C 
ATOM     23  O4* UNL     1      -1.365  11.252  19.574  0.00  0.00    +0.000 OA
BRANCH  21  24
ATOM     24  O3* UNL     1      -2.020  13.393  21.773  0.00  0.00    +0.000 OA
ATOM     25  H3* UNL     1      -1.641  13.481  22.666  0.00  0.00    +0.000 HD
ENDBRANCH  21  24
BRANCH  22  26
ATOM     26  C5* UNL     1      -0.686  13.184  18.291  0.00  0.00    +0.000 C 
BRANCH  26  27
ATOM     27  O5* UNL     1      -1.201  12.633  17.079  0.00  0.00    +0.000 OA
ATOM     28  H5* UNL     1      -2.105  12.982  16.973  0.00  0.00    +0.000 HD
ENDBRANCH  26  27
ENDBRANCH  22  26
ENDBRANCH   5  19
TORSDOF 6
ENDMDL
MODEL 3
REMARK VINA RESULT:      -7.7      3.187      9.089
REMARK  Name = 
REMARK  7 active torsions:
REMARK  status: ('A' for Active; 'I' for Inactive)
REMARK    1  A    between atoms: C_1  and  C_2
REMARK    2  A    between atoms: C_2  and  C_3
REMARK    3  A    between atoms: C_6  and  C_7
REMARK    4  A    between atoms: N_11  and  C1*_12
REMARK    5  A    between atoms: C3*_14  and  O3*_15
REMARK    6  A    between atoms: C4*_16  and  C5*_17
REMARK    7  A    between atoms: C5*_17  and  O5*_18
REMARK                            x       y       z     vdW  Elec       q    Type
REMARK                         _______ _______ _______ _____ _____    ______ ____
ROOT
ATOM      1  C   UNL     1       3.003   7.202  18.225  0.00  0.00    +0.000 A 
ATOM      2  C   UNL     1       2.514   8.375  17.814  0.00  0.00    +0.000 A 
ATOM      3  C   UNL     1       1.758   8.825  18.912  0.00  0.00    +0.000 A 
ATOM      4  C   UNL     1       0.976   9.867  19.148  0.00  0.00    +0.000 A 
ATOM      5  N   UNL     1       0.318   9.965  20.361  0.00  0.00    +0.000 N 
ATOM      6  C   UNL     1       0.520   9.023  21.396  0.00  0.00    +0.000 A 
ATOM      7  O   UNL     1      -0.014   9.186  22.494  0.00  0.00    +0.000 OA
ATOM      8  N   UNL     1       1.313   7.918  21.153  0.00  0.00    +0.000 NA
ATOM      9  C   UNL     1       1.855   7.854  19.993  0.00  0.00    +0.000 A 
ATOM     10  O   UNL     1       2.649   6.819  19.547  0.00  0.00    +0.000 OA
ENDROOT
BRANCH   1  14
ATOM     11  C   UNL     1       5.396   4.486  15.926  0.00  0.00    +0.000 A 
ATOM     12  C   UNL     1       4.391   4.005  16.769  0.00  0.00    +0.000 A 
ATOM     13  C   UNL     1       3.601   4.893  17.503  0.00  0.00    +0.000 A 
ATOM     14  C   UNL     1       3.801   6.278  17.413  0.00  0.00    +0.000 A 
ATOM     15  C   UNL     1       4.798   6.757  16.554  0.00  0.00    +0.000 A 
ATOM     16  C   UNL     1       5.591   5.869  15.821  0.00  0.00    +0.000 A 
BRANCH  11  18
ATOM     17  C   UNL     1       6.102   3.884  13.616  0.00  0.00    +0.000 C 
ATOM     18  C   UNL     1       6.206   3.529  15.091  0.00  0.00    +0.000 C 
ENDBRANCH  11  18
ENDBRANCH   1  14
BRANCH   5  19
ATOM     19  C1* UNL     1      -0.613  11.058  20.607  0.00  0.00    +0.000 C 
ATOM     20  C2* UNL     1      -0.119  12.416  20.129  0.00  0.00    +0.000 C 
ATOM     21  C3* UNL     1      -1.414  13.143  19.836  0.00  0.00    +0.000 C 
ATOM     22  C4* UNL     1      -2.340  12.035  19.340  0.00  0.00    +0.000 C 
ATOM     23  O4* UNL     1      -1.859  10.802  19.924  0.00  0.00    +0.000 OA
BRANCH  21  24
ATOM     24  O3* UNL     1      -1.911  13.736  21.036  0.00  0.00    +0.000 OA
ATOM     25  H3* UNL     1      -2.315  14.599  20.833  0.00  0.00    +0.000 HD
ENDBRANCH  21  24
BRANCH  22  26
ATOM     26  C5* UNL     1      -2.314  11.891  17.815  0.00  0.00    +0.000 C 
BRANCH  26  27
ATOM     27  O5* UNL     1      -1.260  12.671  17.253  0.00  0.00    +0.000 OA
ATOM     28  H5* UNL     1      -1.177  12.400  16.319  0.00  0.00    +0.000 HD
ENDBRANCH  26  27
ENDBRANCH  22  26
ENDBRANCH   5  19
TORSDOF 6
ENDMDL
MODEL 4
REMARK VINA RESULT:      -7.5      2.211      3.779
REMARK  Name = 
REMARK  7 active torsions:
REMARK  status: ('A' for Active; 'I' for Inactive)
REMARK    1  A    between atoms: C_1  and  C_2
REMARK    2  A    between atoms: C_2  and  C_3
REMARK    3  A    between atoms: C_6  and  C_7
REMARK    4  A    between atoms: N_11  and  C1*_12
REMARK    5  A    between atoms: C3*_14  and  O3*_15
REMARK    6  A    between atoms: C4*_16  and  C5*_17
REMARK    7  A    between atoms: C5*_17  and  O5*_18
REMARK                            x       y       z     vdW  Elec       q    Type
REMARK                         _______ _______ _______ _____ _____    ______ ____
ROOT
ATOM      1  C   UNL     1       0.292   9.897  20.617  0.00  0.00    +0.000 A 
ATOM      2  C   UNL     1       0.763   8.753  21.120  0.00  0.00    +0.000 A 
ATOM      3  C   UNL     1       1.568   8.239  20.087  0.00  0.00    +0.000 A 
ATOM      4  C   UNL     1       2.266   7.129  19.906  0.00  0.00    +0.000 A 
ATOM      5  N   UNL     1       2.911   6.918  18.700  0.00  0.00    +0.000 N 
ATOM      6  C   UNL     1       2.918   7.894  17.678  0.00  0.00    +0.000 A 
ATOM      7  O   UNL     1       3.573   7.712  16.651  0.00  0.00    +0.000 OA
ATOM      8  N   UNL     1       2.173   9.046  17.845  0.00  0.00    +0.000 NA
ATOM      9  C   UNL     1       1.555   9.164  18.961  0.00  0.00    +0.000 A 
ATOM     10  O   UNL     1       0.735  10.218  19.305  0.00  0.00    +0.000 OA
ENDROOT
BRANCH   1  14
ATOM     11  C   UNL     1      -2.592  12.427  22.531  0.00  0.00    +0.000 A 
ATOM     12  C   UNL     1      -1.825  11.534  23.283  0.00  0.00    +0.000 A 
ATOM     13  C   UNL     1      -0.873  10.723  22.659  0.00  0.00    +0.000 A 
ATOM     14  C   UNL     1      -0.672  10.785  21.272  0.00  0.00    +0.000 A 
ATOM     15  C   UNL     1      -1.431  11.695  20.525  0.00  0.00    +0.000 A 
ATOM     16  C   UNL     1      -2.386  12.504  21.149  0.00  0.00    +0.000 A 
BRANCH  11  18
ATOM     17  C   UNL     1      -4.288  12.614  24.344  0.00  0.00    +0.000 C 
ATOM     18  C   UNL     1      -3.575  13.341  23.215  0.00  0.00    +0.000 C 
ENDBRANCH  11  18
ENDBRANCH   1  14
BRANCH   5  19
ATOM     19  C1* UNL     1       3.611   5.665  18.449  0.00  0.00    +0.000 C 
ATOM     20  C2* UNL     1       4.105   4.965  19.707  0.00  0.00    +0.000 C 
ATOM     21  C3* UNL     1       4.107   3.512  19.286  0.00  0.00    +0.000 C 
ATOM     22  C4* UNL     1       2.922   3.417  18.327  0.00  0.00    +0.000 C 
ATOM     23  O4* UNL     1       2.732   4.740  17.773  0.00  0.00    +0.000 OA
BRANCH  21  24
ATOM     24  O3* UNL     1       5.335   3.208  18.623  0.00  0.00    +0.000 OA
ATOM     25  H3* UNL     1       5.461   2.243  18.592  0.00  0.00    +0.000 HD
ENDBRANCH  21  24
BRANCH  22  26
ATOM     26  C5* UNL     1       1.630   2.998  19.035  0.00  0.00    +0.000 C 
BRANCH  26  27
ATOM     27  O5* UNL     1       1.186   1.726  18.564  0.00  0.00    +0.000 OA
ATOM     28  H5* UNL     1       1.423   1.074  19.249  0.00  0.00    +0.000 HD
ENDBRANCH  26  27
ENDBRANCH  22  26
ENDBRANCH   5  19
TORSDOF 6
ENDMDL
MODEL 5
REMARK VINA RESULT:      -7.4      2.222      3.727
REMARK  Name = 
REMARK  7 active torsions:
REMARK  status: ('A' for Active; 'I' for Inactive)
REMARK    1  A    between atoms: C_1  and  C_2
REMARK    2  A    between atoms: C_2  and  C_3
REMARK    3  A    between atoms: C_6  and  C_7
REMARK    4  A    between atoms: N_11  and  C1*_12
REMARK    5  A    between atoms: C3*_14  and  O3*_15
REMARK    6  A    between atoms: C4*_16  and  C5*_17
REMARK    7  A    between atoms: C5*_17  and  O5*_18
REMARK                            x       y       z     vdW  Elec       q    Type
REMARK                         _______ _______ _______ _____ _____    ______ ____
ROOT
ATOM      1  C   UNL     1       0.680   9.311  20.666  0.00  0.00    +0.000 A 
ATOM      2  C   UNL     1       0.848   8.087  21.174  0.00  0.00    +0.000 A 
ATOM      3  C   UNL     1       1.669   7.442  20.230  0.00  0.00    +0.000 A 
ATOM      4  C   UNL     1       2.155   6.219  20.091  0.00  0.00    +0.000 A 
ATOM      5  N   UNL     1       2.903   5.906  18.970  0.00  0.00    +0.000 N 
ATOM      6  C   UNL     1       3.236   6.880  18.001  0.00  0.00    +0.000 A 
ATOM      7  O   UNL     1       3.975   6.590  17.059  0.00  0.00    +0.000 OA
ATOM      8  N   UNL     1       2.714   8.154  18.122  0.00  0.00    +0.000 NA
ATOM      9  C   UNL     1       1.986   8.372  19.155  0.00  0.00    +0.000 A 
ATOM     10  O   UNL     1       1.349   9.561  19.437  0.00  0.00    +0.000 OA
ENDROOT
BRANCH   1  14
ATOM     11  C   UNL     1      -1.886  12.326  22.312  0.00  0.00    +0.000 A 
ATOM     12  C   UNL     1      -1.350  11.328  23.131  0.00  0.00    +0.000 A 
ATOM     13  C   UNL     1      -0.500  10.358  22.595  0.00  0.00    +0.000 A 
ATOM     14  C   UNL     1      -0.171  10.361  21.232  0.00  0.00    +0.000 A 
ATOM     15  C   UNL     1      -0.696  11.373  20.418  0.00  0.00    +0.000 A 
ATOM     16  C   UNL     1      -1.550  12.343  20.953  0.00  0.00    +0.000 A 
BRANCH  11  18
ATOM     17  C   UNL     1      -1.972  14.227  23.917  0.00  0.00    +0.000 C 
ATOM     18  C   UNL     1      -2.754  13.405  22.904  0.00  0.00    +0.000 C 
ENDBRANCH  11  18
ENDBRANCH   1  14
BRANCH   5  19
ATOM     19  C1* UNL     1       3.373   4.544  18.755  0.00  0.00    +0.000 C 
ATOM     20  C2* UNL     1       3.459   3.708  20.024  0.00  0.00    +0.000 C 
ATOM     21  C3* UNL     1       3.252   2.304  19.498  0.00  0.00    +0.000 C 
ATOM     22  C4* UNL     1       2.285   2.499  18.332  0.00  0.00    +0.000 C 
ATOM     23  O4* UNL     1       2.476   3.853  17.858  0.00  0.00    +0.000 OA
BRANCH  21  24
ATOM     24  O3* UNL     1       4.500   1.773  19.052  0.00  0.00    +0.000 OA
ATOM     25  H3* UNL     1       4.426   1.498  18.120  0.00  0.00    +0.000 HD
ENDBRANCH  21  24
BRANCH  22  26
ATOM     26  C5* UNL     1       0.821   2.337  18.754  0.00  0.00    +0.000 C 
BRANCH  26  27
ATOM     27  O5* UNL     1       0.578   2.996  19.996  0.00  0.00    +0.000 OA
ATOM     28  H5* UNL     1       1.207   3.739  20.048  0.00  0.00    +0.000 HD
ENDBRANCH  26  27
ENDBRANCH  22  26
ENDBRANCH   5  19
TORSDOF 6
ENDMDL
MODEL 6
REMARK VINA RESULT:      -7.4      2.144      2.683
REMARK  Name = 
REMARK  7 active torsions:
REMARK  status: ('A' for Active; 'I' for Inactive)
REMARK    1  A    between atoms: C_1  and  C_2
REMARK    2  A    between atoms: C_2  and  C_3
REMARK    3  A    between atoms: C_6  and  C_7
REMARK    4  A    between atoms: N_11  and  C1*_12
REMARK    5  A    between atoms: C3*_14  and  O3*_15
REMARK    6  A    between atoms: C4*_16  and  C5*_17
REMARK    7  A    between atoms: C5*_17  and  O5*_18
REMARK                            x       y       z     vdW  Elec       q    Type
REMARK                         _______ _______ _______ _____ _____    ______ ____
ROOT
ATOM      1  C   UNL     1       1.277   9.967  19.026  0.00  0.00    +0.000 A 
ATOM      2  C   UNL     1       2.015   9.532  18.001  0.00  0.00    +0.000 A 
ATOM      3  C   UNL     1       2.388   8.231  18.385  0.00  0.00    +0.000 A 
ATOM      4  C   UNL     1       3.155   7.285  17.867  0.00  0.00    +0.000 A 
ATOM      5  N   UNL     1       3.355   6.109  18.569  0.00  0.00    +0.000 N 
ATOM      6  C   UNL     1       2.695   5.850  19.792  0.00  0.00    +0.000 A 
ATOM      7  O   UNL     1       2.827   4.760  20.348  0.00  0.00    +0.000 OA
ATOM      8  N   UNL     1       1.911   6.840  20.355  0.00  0.00    +0.000 NA
ATOM      9  C   UNL     1       1.804   7.927  19.684  0.00  0.00    +0.000 A 
ATOM     10  O   UNL     1       1.100   9.041  20.090  0.00  0.00    +0.000 OA
ENDROOT
BRANCH   1  14
ATOM     11  C   UNL     1      -0.328  13.915  19.496  0.00  0.00    +0.000 A 
ATOM     12  C   UNL     1       0.858  13.713  18.784  0.00  0.00    +0.000 A 
ATOM     13  C   UNL     1       1.369  12.424  18.617  0.00  0.00    +0.000 A 
ATOM     14  C   UNL     1       0.710  11.312  19.161  0.00  0.00    +0.000 A 
ATOM     15  C   UNL     1      -0.487  11.517  19.858  0.00  0.00    +0.000 A 
ATOM     16  C   UNL     1      -0.998  12.808  20.029  0.00  0.00    +0.000 A 
BRANCH  11  18
ATOM     17  C   UNL     1      -0.269  16.242  18.613  0.00  0.00    +0.000 C 
ATOM     18  C   UNL     1      -0.907  15.300  19.622  0.00  0.00    +0.000 C 
ENDBRANCH  11  18
ENDBRANCH   1  14
BRANCH   5  19
ATOM     19  C1* UNL     1       4.264   5.092  18.057  0.00  0.00    +0.000 C 
ATOM     20  C2* UNL     1       4.564   5.215  16.571  0.00  0.00    +0.000 C 
ATOM     21  C3* UNL     1       5.945   4.605  16.470  0.00  0.00    +0.000 C 
ATOM     22  C4* UNL     1       6.601   4.989  17.794  0.00  0.00    +0.000 C 
ATOM     23  O4* UNL     1       5.529   5.176  18.748  0.00  0.00    +0.000 OA
BRANCH  21  24
ATOM     24  O3* UNL     1       5.832   3.188  16.339  0.00  0.00    +0.000 OA
ATOM     25  H3* UNL     1       6.369   2.751  17.024  0.00  0.00    +0.000 HD
ENDBRANCH  21  24
BRANCH  22  26
ATOM     26  C5* UNL     1       7.395   6.295  17.696  0.00  0.00    +0.000 C 
BRANCH  26  27
ATOM     27  O5* UNL     1       7.677   6.613  16.334  0.00  0.00    +0.000 OA
ATOM     28  H5* UNL     1       7.656   5.773  15.839  0.00  0.00    +0.000 HD
ENDBRANCH  26  27
ENDBRANCH  22  26
ENDBRANCH   5  19
TORSDOF 6
ENDMDL
MODEL 7
REMARK VINA RESULT:      -7.4      2.572      3.275
REMARK  Name = 
REMARK  7 active torsions:
REMARK  status: ('A' for Active; 'I' for Inactive)
REMARK    1  A    between atoms: C_1  and  C_2
REMARK    2  A    between atoms: C_2  and  C_3
REMARK    3  A    between atoms: C_6  and  C_7
REMARK    4  A    between atoms: N_11  and  C1*_12
REMARK    5  A    between atoms: C3*_14  and  O3*_15
REMARK    6  A    between atoms: C4*_16  and  C5*_17
REMARK    7  A    between atoms: C5*_17  and  O5*_18
REMARK                            x       y       z     vdW  Elec       q    Type
REMARK                         _______ _______ _______ _____ _____    ______ ____
ROOT
ATOM      1  C   UNL     1       1.284  10.200  18.941  0.00  0.00    +0.000 A 
ATOM      2  C   UNL     1       1.913   9.494  17.998  0.00  0.00    +0.000 A 
ATOM      3  C   UNL     1       2.099   8.232  18.592  0.00  0.00    +0.000 A 
ATOM      4  C   UNL     1       2.697   7.107  18.236  0.00  0.00    +0.000 A 
ATOM      5  N   UNL     1       2.741   6.046  19.124  0.00  0.00    +0.000 N 
ATOM      6  C   UNL     1       2.090   6.098  20.378  0.00  0.00    +0.000 A 
ATOM      7  O   UNL     1       2.075   5.107  21.109  0.00  0.00    +0.000 OA
ATOM      8  N   UNL     1       1.484   7.276  20.772  0.00  0.00    +0.000 NA
ATOM      9  C   UNL     1       1.520   8.241  19.929  0.00  0.00    +0.000 A 
ATOM     10  O   UNL     1       1.005   9.501  20.146  0.00  0.00    +0.000 OA
ENDROOT
BRANCH   1  14
ATOM     11  C   UNL     1       0.272  14.363  18.771  0.00  0.00    +0.000 A 
ATOM     12  C   UNL     1       1.592  13.947  18.579  0.00  0.00    +0.000 A 
ATOM     13  C   UNL     1       1.916  12.589  18.617  0.00  0.00    +0.000 A 
ATOM     14  C   UNL     1       0.930  11.619  18.851  0.00  0.00    +0.000 A 
ATOM     15  C   UNL     1      -0.395  12.040  19.026  0.00  0.00    +0.000 A 
ATOM     16  C   UNL     1      -0.719  13.400  18.992  0.00  0.00    +0.000 A 
BRANCH  11  18
ATOM     17  C   UNL     1       1.123  16.692  18.994  0.00  0.00    +0.000 C 
ATOM     18  C   UNL     1      -0.083  15.823  18.670  0.00  0.00    +0.000 C 
ENDBRANCH  11  18
ENDBRANCH   1  14
BRANCH   5  19
ATOM     19  C1* UNL     1       3.469   4.831  18.784  0.00  0.00    +0.000 C 
ATOM     20  C2* UNL     1       3.403   4.457  17.310  0.00  0.00    +0.000 C 
ATOM     21  C3* UNL     1       4.700   3.703  17.112  0.00  0.00    +0.000 C 
ATOM     22  C4* UNL     1       5.669   4.406  18.061  0.00  0.00    +0.000 C 
ATOM     23  O4* UNL     1       4.866   4.990  19.114  0.00  0.00    +0.000 OA
BRANCH  21  24
ATOM     24  O3* UNL     1       4.518   2.335  17.477  0.00  0.00    +0.000 OA
ATOM     25  H3* UNL     1       5.192   1.786  17.038  0.00  0.00    +0.000 HD
ENDBRANCH  21  24
BRANCH  22  26
ATOM     26  C5* UNL     1       6.453   5.527  17.372  0.00  0.00    +0.000 C 
BRANCH  26  27
ATOM     27  O5* UNL     1       7.592   5.001  16.692  0.00  0.00    +0.000 OA
ATOM     28  H5* UNL     1       8.325   4.993  17.336  0.00  0.00    +0.000 HD
ENDBRANCH  26  27
ENDBRANCH  22  26
ENDBRANCH   5  19
TORSDOF 6
ENDMDL
MODEL 8
REMARK VINA RESULT:      -7.3      2.180      3.579
REMARK  Name = 
REMARK  7 active torsions:
REMARK  status: ('A' for Active; 'I' for Inactive)
REMARK    1  A    between atoms: C_1  and  C_2
REMARK    2  A    between atoms: C_2  and  C_3
REMARK    3  A    between atoms: C_6  and  C_7
REMARK    4  A    between atoms: N_11  and  C1*_12
REMARK    5  A    between atoms: C3*_14  and  O3*_15
REMARK    6  A    between atoms: C4*_16  and  C5*_17
REMARK    7  A    between atoms: C5*_17  and  O5*_18
REMARK                            x       y       z     vdW  Elec       q    Type
REMARK                         _______ _______ _______ _____ _____    ______ ____
ROOT
ATOM      1  C   UNL     1       0.428   9.598  20.612  0.00  0.00    +0.000 A 
ATOM      2  C   UNL     1       0.808   8.448  21.175  0.00  0.00    +0.000 A 
ATOM      3  C   UNL     1       1.675   7.880  20.223  0.00  0.00    +0.000 A 
ATOM      4  C   UNL     1       2.339   6.740  20.122  0.00  0.00    +0.000 A 
ATOM      5  N   UNL     1       3.074   6.477  18.980  0.00  0.00    +0.000 N 
ATOM      6  C   UNL     1       3.208   7.430  17.945  0.00  0.00    +0.000 A 
ATOM      7  O   UNL     1       3.939   7.199  16.981  0.00  0.00    +0.000 OA
ATOM      8  N   UNL     1       2.499   8.614  18.026  0.00  0.00    +0.000 NA
ATOM      9  C   UNL     1       1.794   8.780  19.084  0.00  0.00    +0.000 A 
ATOM     10  O   UNL     1       0.993   9.873  19.337  0.00  0.00    +0.000 OA
ENDROOT
BRANCH   1  14
ATOM     11  C   UNL     1      -2.365  12.416  22.238  0.00  0.00    +0.000 A 
ATOM     12  C   UNL     1      -2.125  12.371  20.862  0.00  0.00    +0.000 A 
ATOM     13  C   UNL     1      -1.228  11.439  20.333  0.00  0.00    +0.000 A 
ATOM     14  C   UNL     1      -0.550  10.538  21.167  0.00  0.00    +0.000 A 
ATOM     15  C   UNL     1      -0.807  10.575  22.543  0.00  0.00    +0.000 A 
ATOM     16  C   UNL     1      -1.702  11.510  23.074  0.00  0.00    +0.000 A 
BRANCH  11  18
ATOM     17  C   UNL     1      -4.756  13.109  22.217  0.00  0.00    +0.000 C 
ATOM     18  C   UNL     1      -3.377  13.381  22.797  0.00  0.00    +0.000 C 
ENDBRANCH  11  18
ENDBRANCH   1  14
BRANCH   5  19
ATOM     19  C1* UNL     1       3.741   5.192  18.813  0.00  0.00    +0.000 C 
ATOM     20  C2* UNL     1       3.674   4.291  20.037  0.00  0.00    +0.000 C 
ATOM     21  C3* UNL     1       3.750   2.910  19.424  0.00  0.00    +0.000 C 
ATOM     22  C4* UNL     1       3.018   3.070  18.094  0.00  0.00    +0.000 C 
ATOM     23  O4* UNL     1       3.133   4.464  17.723  0.00  0.00    +0.000 OA
BRANCH  21  24
ATOM     24  O3* UNL     1       5.117   2.551  19.224  0.00  0.00    +0.000 OA
ATOM     25  H3* UNL     1       5.570   2.491  20.085  0.00  0.00    +0.000 HD
ENDBRANCH  21  24
BRANCH  22  26
ATOM     26  C5* UNL     1       1.531   2.719  18.198  0.00  0.00    +0.000 C 
BRANCH  26  27
ATOM     27  O5* UNL     1       1.348   1.520  18.951  0.00  0.00    +0.000 OA
ATOM     28  H5* UNL     1       1.924   0.844  18.549  0.00  0.00    +0.000 HD
ENDBRANCH  26  27
ENDBRANCH  22  26
ENDBRANCH   5  19
TORSDOF 6
ENDMDL
MODEL 9
REMARK VINA RESULT:      -7.3      2.241      2.894
REMARK  Name = 
REMARK  7 active torsions:
REMARK  status: ('A' for Active; 'I' for Inactive)
REMARK    1  A    between atoms: C_1  and  C_2
REMARK    2  A    between atoms: C_2  and  C_3
REMARK    3  A    between atoms: C_6  and  C_7
REMARK    4  A    between atoms: N_11  and  C1*_12
REMARK    5  A    between atoms: C3*_14  and  O3*_15
REMARK    6  A    between atoms: C4*_16  and  C5*_17
REMARK    7  A    between atoms: C5*_17  and  O5*_18
REMARK                            x       y       z     vdW  Elec       q    Type
REMARK                         _______ _______ _______ _____ _____    ______ ____
ROOT
ATOM      1  C   UNL     1       1.368   9.933  18.948  0.00  0.00    +0.000 A 
ATOM      2  C   UNL     1       2.102   9.505  17.918  0.00  0.00    +0.000 A 
ATOM      3  C   UNL     1       2.467   8.197  18.288  0.00  0.00    +0.000 A 
ATOM      4  C   UNL     1       3.227   7.252  17.760  0.00  0.00    +0.000 A 
ATOM      5  N   UNL     1       3.420   6.067  18.449  0.00  0.00    +0.000 N 
ATOM      6  C   UNL     1       2.758   5.799  19.669  0.00  0.00    +0.000 A 
ATOM      7  O   UNL     1       2.883   4.702  20.214  0.00  0.00    +0.000 OA
ATOM      8  N   UNL     1       1.982   6.788  20.243  0.00  0.00    +0.000 NA
ATOM      9  C   UNL     1       1.882   7.883  19.584  0.00  0.00    +0.000 A 
ATOM     10  O   UNL     1       1.185   8.996  20.002  0.00  0.00    +0.000 OA
ENDROOT
BRANCH   1  14
ATOM     11  C   UNL     1      -0.301  13.867  19.296  0.00  0.00    +0.000 A 
ATOM     12  C   UNL     1      -1.084  12.740  19.561  0.00  0.00    +0.000 A 
ATOM     13  C   UNL     1      -0.533  11.461  19.464  0.00  0.00    +0.000 A 
ATOM     14  C   UNL     1       0.809  11.280  19.098  0.00  0.00    +0.000 A 
ATOM     15  C   UNL     1       1.594  12.413  18.850  0.00  0.00    +0.000 A 
ATOM     16  C   UNL     1       1.042  13.694  18.943  0.00  0.00    +0.000 A 
BRANCH  11  18
ATOM     17  C   UNL     1      -0.214  16.227  18.507  0.00  0.00    +0.000 C 
ATOM     18  C   UNL     1      -0.883  15.247  19.459  0.00  0.00    +0.000 C 
ENDBRANCH  11  18
ENDBRANCH   1  14
BRANCH   5  19
ATOM     19  C1* UNL     1       4.322   5.049  17.925  0.00  0.00    +0.000 C 
ATOM     20  C2* UNL     1       4.843   5.339  16.526  0.00  0.00    +0.000 C 
ATOM     21  C3* UNL     1       6.179   4.628  16.527  0.00  0.00    +0.000 C 
ATOM     22  C4* UNL     1       6.660   4.776  17.969  0.00  0.00    +0.000 C 
ATOM     23  O4* UNL     1       5.476   4.930  18.786  0.00  0.00    +0.000 OA
BRANCH  21  24
ATOM     24  O3* UNL     1       5.990   3.256  16.182  0.00  0.00    +0.000 OA
ATOM     25  H3* UNL     1       6.310   3.098  15.276  0.00  0.00    +0.000 HD
ENDBRANCH  21  24
BRANCH  22  26
ATOM     26  C5* UNL     1       7.547   6.010  18.165  0.00  0.00    +0.000 C 
BRANCH  26  27
ATOM     27  O5* UNL     1       8.125   6.013  19.470  0.00  0.00    +0.000 OA
ATOM     28  H5* UNL     1       8.725   6.781  19.510  0.00  0.00    +0.000 HD
ENDBRANCH  26  27
ENDBRANCH  22  26
ENDBRANCH   5  19
TORSDOF 6
ENDMDL
