MODEL 1
REMARK VINA RESULT:      -7.4      0.000      0.000
REMARK  Name = 
REMARK  6 active torsions:
REMARK  status: ('A' for Active; 'I' for Inactive)
REMARK    1  A    between atoms: C_2  and  C_15
REMARK    2  A    between atoms: N_3  and  C_4
REMARK    3  A    between atoms: C_4  and  N_6
REMARK    4  A    between atoms: N_6  and  C_7
REMARK    5  A    between atoms: C_7  and  C_8
REMARK    6  A    between atoms: C_8  and  C_9
REMARK                            x       y       z     vdW  Elec       q    Type
REMARK                         _______ _______ _______ _____ _____    ______ ____
ROOT
ATOM      1  C   UNL     1       6.234   6.740  17.180  0.00  0.00    +0.000 C 
ATOM      2  S   UNL     1       7.467   7.771  17.630  0.00  0.00    +0.000 S 
ENDROOT
BRANCH   1   5
ATOM      3  O   UNL     1       7.753   4.461  16.302  0.00  0.00    +0.000 OA
ATOM      4  C   UNL     1       6.992   5.048  15.528  0.00  0.00    +0.000 C 
ATOM      5  N   UNL     1       6.272   6.170  15.922  0.00  0.00    +0.000 N 
ATOM      6  H   UNL     1       5.623   6.555  15.247  0.00  0.00    +0.000 HD
BRANCH   4   7
ATOM      7  C   UNL     1       6.804   4.604  14.170  0.00  0.00    +0.000 A 
ATOM      8  C   UNL     1       5.848   3.743  13.666  0.00  0.00    +0.000 A 
ATOM      9  C   UNL     1       6.138   3.564  12.298  0.00  0.00    +0.000 A 
ATOM     10  C   UNL     1       7.237   4.352  12.038  0.00  0.00    +0.000 A 
ATOM     11  O   UNL     1       7.645   5.000  13.165  0.00  0.00    +0.000 OA
ENDBRANCH   4   7
ENDBRANCH   1   5
BRANCH   1  12
ATOM     12  N   UNL     1       5.153   6.399  17.956  0.00  0.00    +0.000 N 
ATOM     13  H   UNL     1       5.299   5.581  18.549  0.00  0.00    +0.000 HD
BRANCH  12  14
ATOM     14  C   UNL     1       3.760   6.714  17.659  0.00  0.00    +0.000 C 
BRANCH  14  15
ATOM     15  C   UNL     1       2.887   6.754  18.918  0.00  0.00    +0.000 C 
BRANCH  15  16
ATOM     16  C   UNL     1       2.171   5.440  19.121  0.00  0.00    +0.000 A 
ATOM     17  C   UNL     1       1.766   5.038  20.401  0.00  0.00    +0.000 A 
ATOM     18  C   UNL     1       1.171   3.789  20.596  0.00  0.00    +0.000 A 
ATOM     19  C   UNL     1       0.976   2.933  19.514  0.00  0.00    +0.000 A 
ATOM     20  C   UNL     1       1.367   3.327  18.236  0.00  0.00    +0.000 A 
ATOM     21  C   UNL     1       1.963   4.574  18.040  0.00  0.00    +0.000 A 
ENDBRANCH  15  16
ENDBRANCH  14  15
ENDBRANCH  12  14
ENDBRANCH   1  12
TORSDOF 6
ENDMDL
MODEL 2
REMARK VINA RESULT:      -7.4      0.753      1.335
REMARK  Name = 
REMARK  6 active torsions:
REMARK  status: ('A' for Active; 'I' for Inactive)
REMARK    1  A    between atoms: C_2  and  C_15
REMARK    2  A    between atoms: N_3  and  C_4
REMARK    3  A    between atoms: C_4  and  N_6
REMARK    4  A    between atoms: N_6  and  C_7
REMARK    5  A    between atoms: C_7  and  C_8
REMARK    6  A    between atoms: C_8  and  C_9
REMARK                            x       y       z     vdW  Elec       q    Type
REMARK                         _______ _______ _______ _____ _____    ______ ____
ROOT
ATOM      1  C   UNL     1       6.433   6.883  17.225  0.00  0.00    +0.000 C 
ATOM      2  S   UNL     1       7.689   7.886  17.676  0.00  0.00    +0.000 S 
ENDROOT
BRANCH   1   5
ATOM      3  O   UNL     1       7.836   4.518  16.382  0.00  0.00    +0.000 OA
ATOM      4  C   UNL     1       7.125   5.145  15.592  0.00  0.00    +0.000 C 
ATOM      5  N   UNL     1       6.463   6.308  15.970  0.00  0.00    +0.000 N 
ATOM      6  H   UNL     1       5.850   6.726  15.281  0.00  0.00    +0.000 HD
BRANCH   4   7
ATOM      7  C   UNL     1       6.938   4.707  14.232  0.00  0.00    +0.000 A 
ATOM      8  C   UNL     1       6.096   3.724  13.748  0.00  0.00    +0.000 A 
ATOM      9  C   UNL     1       6.341   3.621  12.363  0.00  0.00    +0.000 A 
ATOM     10  C   UNL     1       7.296   4.569  12.076  0.00  0.00    +0.000 A 
ATOM     11  O   UNL     1       7.659   5.247  13.201  0.00  0.00    +0.000 OA
ENDBRANCH   4   7
ENDBRANCH   1   5
BRANCH   1  12
ATOM     12  N   UNL     1       5.341   6.571  17.997  0.00  0.00    +0.000 N 
ATOM     13  H   UNL     1       5.159   7.227  18.758  0.00  0.00    +0.000 HD
BRANCH  12  14
ATOM     14  C   UNL     1       4.778   5.238  18.174  0.00  0.00    +0.000 C 
BRANCH  14  15
ATOM     15  C   UNL     1       3.368   5.113  17.587  0.00  0.00    +0.000 C 
BRANCH  15  16
ATOM     16  C   UNL     1       2.455   4.363  18.527  0.00  0.00    +0.000 A 
ATOM     17  C   UNL     1       1.802   3.195  18.107  0.00  0.00    +0.000 A 
ATOM     18  C   UNL     1       0.901   2.545  18.954  0.00  0.00    +0.000 A 
ATOM     19  C   UNL     1       0.647   3.055  20.226  0.00  0.00    +0.000 A 
ATOM     20  C   UNL     1       1.298   4.209  20.656  0.00  0.00    +0.000 A 
ATOM     21  C   UNL     1       2.198   4.860  19.811  0.00  0.00    +0.000 A 
ENDBRANCH  15  16
ENDBRANCH  14  15
ENDBRANCH  12  14
ENDBRANCH   1  12
TORSDOF 6
ENDMDL
MODEL 3
REMARK VINA RESULT:      -7.3      0.950      1.467
REMARK  Name = 
REMARK  6 active torsions:
REMARK  status: ('A' for Active; 'I' for Inactive)
REMARK    1  A    between atoms: C_2  and  C_15
REMARK    2  A    between atoms: N_3  and  C_4
REMARK    3  A    between atoms: C_4  and  N_6
REMARK    4  A    between atoms: N_6  and  C_7
REMARK    5  A    between atoms: C_7  and  C_8
REMARK    6  A    between atoms: C_8  and  C_9
REMARK                            x       y       z     vdW  Elec       q    Type
REMARK                         _______ _______ _______ _____ _____    ______ ____
ROOT
ATOM      1  C   UNL     1       6.427   5.746  17.826  0.00  0.00    +0.000 C 
ATOM      2  S   UNL     1       7.696   6.009  18.879  0.00  0.00    +0.000 S 
ENDROOT
BRANCH   1   5
ATOM      3  O   UNL     1       5.517   3.591  16.154  0.00  0.00    +0.000 OA
ATOM      4  C   UNL     1       6.231   4.487  15.695  0.00  0.00    +0.000 C 
ATOM      5  N   UNL     1       6.708   5.521  16.493  0.00  0.00    +0.000 N 
ATOM      6  H   UNL     1       7.235   6.249  16.027  0.00  0.00    +0.000 HD
BRANCH   4   7
ATOM      7  C   UNL     1       6.612   4.514  14.306  0.00  0.00    +0.000 A 
ATOM      8  C   UNL     1       6.174   3.707  13.273  0.00  0.00    +0.000 A 
ATOM      9  C   UNL     1       6.904   4.078  12.125  0.00  0.00    +0.000 A 
ATOM     10  C   UNL     1       7.725   5.111  12.517  0.00  0.00    +0.000 A 
ATOM     11  O   UNL     1       7.548   5.396  13.838  0.00  0.00    +0.000 OA
ENDBRANCH   4   7
ENDBRANCH   1   5
BRANCH   1  12
ATOM     12  N   UNL     1       5.096   5.739  18.164  0.00  0.00    +0.000 N 
ATOM     13  H   UNL     1       4.771   4.868  18.586  0.00  0.00    +0.000 HD
BRANCH  12  14
ATOM     14  C   UNL     1       4.059   6.561  17.551  0.00  0.00    +0.000 C 
BRANCH  14  15
ATOM     15  C   UNL     1       2.874   6.807  18.491  0.00  0.00    +0.000 C 
BRANCH  15  16
ATOM     16  C   UNL     1       2.245   5.503  18.920  0.00  0.00    +0.000 A 
ATOM     17  C   UNL     1       1.913   4.524  17.973  0.00  0.00    +0.000 A 
ATOM     18  C   UNL     1       1.264   3.351  18.366  0.00  0.00    +0.000 A 
ATOM     19  C   UNL     1       0.942   3.146  19.706  0.00  0.00    +0.000 A 
ATOM     20  C   UNL     1       1.276   4.109  20.656  0.00  0.00    +0.000 A 
ATOM     21  C   UNL     1       1.924   5.282  20.266  0.00  0.00    +0.000 A 
ENDBRANCH  15  16
ENDBRANCH  14  15
ENDBRANCH  12  14
ENDBRANCH   1  12
TORSDOF 6
ENDMDL
MODEL 4
REMARK VINA RESULT:      -7.3      1.588      1.620
REMARK  Name = 
REMARK  6 active torsions:
REMARK  status: ('A' for Active; 'I' for Inactive)
REMARK    1  A    between atoms: C_2  and  C_15
REMARK    2  A    between atoms: N_3  and  C_4
REMARK    3  A    between atoms: C_4  and  N_6
REMARK    4  A    between atoms: N_6  and  C_7
REMARK    5  A    between atoms: C_7  and  C_8
REMARK    6  A    between atoms: C_8  and  C_9
REMARK                            x       y       z     vdW  Elec       q    Type
REMARK                         _______ _______ _______ _____ _____    ______ ____
ROOT
ATOM      1  C   UNL     1       7.176   5.136  17.894  0.00  0.00    +0.000 C 
ATOM      2  S   UNL     1       7.870   6.422  18.702  0.00  0.00    +0.000 S 
ENDROOT
BRANCH   1   5
ATOM      3  O   UNL     1       5.491   3.792  15.990  0.00  0.00    +0.000 OA
ATOM      4  C   UNL     1       6.484   4.423  15.618  0.00  0.00    +0.000 C 
ATOM      5  N   UNL     1       7.329   5.054  16.524  0.00  0.00    +0.000 N 
ATOM      6  H   UNL     1       8.085   5.604  16.134  0.00  0.00    +0.000 HD
BRANCH   4   7
ATOM      7  C   UNL     1       6.824   4.545  14.224  0.00  0.00    +0.000 A 
ATOM      8  C   UNL     1       6.339   3.824  13.149  0.00  0.00    +0.000 A 
ATOM      9  C   UNL     1       7.044   4.263  12.009  0.00  0.00    +0.000 A 
ATOM     10  C   UNL     1       7.897   5.250  12.449  0.00  0.00    +0.000 A 
ATOM     11  O   UNL     1       7.765   5.441  13.792  0.00  0.00    +0.000 OA
ENDBRANCH   4   7
ENDBRANCH   1   5
BRANCH   1  12
ATOM     12  N   UNL     1       6.442   4.129  18.472  0.00  0.00    +0.000 N 
ATOM     13  H   UNL     1       6.316   3.306  17.883  0.00  0.00    +0.000 HD
BRANCH  12  14
ATOM     14  C   UNL     1       5.454   4.298  19.531  0.00  0.00    +0.000 C 
BRANCH  14  15
ATOM     15  C   UNL     1       4.258   5.147  19.088  0.00  0.00    +0.000 C 
BRANCH  15  16
ATOM     16  C   UNL     1       2.979   4.344  19.131  0.00  0.00    +0.000 A 
ATOM     17  C   UNL     1       1.985   4.636  20.075  0.00  0.00    +0.000 A 
ATOM     18  C   UNL     1       0.837   3.844  20.161  0.00  0.00    +0.000 A 
ATOM     19  C   UNL     1       0.673   2.757  19.305  0.00  0.00    +0.000 A 
ATOM     20  C   UNL     1       1.651   2.465  18.357  0.00  0.00    +0.000 A 
ATOM     21  C   UNL     1       2.799   3.254  18.270  0.00  0.00    +0.000 A 
ENDBRANCH  15  16
ENDBRANCH  14  15
ENDBRANCH  12  14
ENDBRANCH   1  12
TORSDOF 6
ENDMDL
MODEL 5
REMARK VINA RESULT:      -7.2      1.273      1.677
REMARK  Name = 
REMARK  6 active torsions:
REMARK  status: ('A' for Active; 'I' for Inactive)
REMARK    1  A    between atoms: C_2  and  C_15
REMARK    2  A    between atoms: N_3  and  C_4
REMARK    3  A    between atoms: C_4  and  N_6
REMARK    4  A    between atoms: N_6  and  C_7
REMARK    5  A    between atoms: C_7  and  C_8
REMARK    6  A    between atoms: C_8  and  C_9
REMARK                            x       y       z     vdW  Elec       q    Type
REMARK                         _______ _______ _______ _____ _____    ______ ____
ROOT
ATOM      1  C   UNL     1       5.128   5.329  17.628  0.00  0.00    +0.000 C 
ATOM      2  S   UNL     1       5.531   4.240  18.827  0.00  0.00    +0.000 S 
ENDROOT
BRANCH   1   5
ATOM      3  O   UNL     1       7.438   6.083  16.089  0.00  0.00    +0.000 OA
ATOM      4  C   UNL     1       6.563   5.362  15.601  0.00  0.00    +0.000 C 
ATOM      5  N   UNL     1       5.424   5.011  16.317  0.00  0.00    +0.000 N 
ATOM      6  H   UNL     1       4.786   4.366  15.868  0.00  0.00    +0.000 HD
BRANCH   4   7
ATOM      7  C   UNL     1       6.672   4.841  14.263  0.00  0.00    +0.000 A 
ATOM      8  C   UNL     1       5.978   3.796  13.682  0.00  0.00    +0.000 A 
ATOM      9  C   UNL     1       6.504   3.625  12.386  0.00  0.00    +0.000 A 
ATOM     10  C   UNL     1       7.469   4.597  12.237  0.00  0.00    +0.000 A 
ATOM     11  O   UNL     1       7.572   5.352  13.367  0.00  0.00    +0.000 OA
ENDBRANCH   4   7
ENDBRANCH   1   5
BRANCH   1  12
ATOM     12  N   UNL     1       4.522   6.546  17.823  0.00  0.00    +0.000 N 
ATOM     13  H   UNL     1       5.113   7.247  18.272  0.00  0.00    +0.000 HD
BRANCH  12  14
ATOM     14  C   UNL     1       3.086   6.770  17.945  0.00  0.00    +0.000 C 
BRANCH  14  15
ATOM     15  C   UNL     1       2.584   6.595  19.382  0.00  0.00    +0.000 C 
BRANCH  15  16
ATOM     16  C   UNL     1       2.103   5.183  19.618  0.00  0.00    +0.000 A 
ATOM     17  C   UNL     1       1.675   4.386  18.548  0.00  0.00    +0.000 A 
ATOM     18  C   UNL     1       1.161   3.108  18.779  0.00  0.00    +0.000 A 
ATOM     19  C   UNL     1       1.072   2.615  20.080  0.00  0.00    +0.000 A 
ATOM     20  C   UNL     1       1.505   3.396  21.150  0.00  0.00    +0.000 A 
ATOM     21  C   UNL     1       2.017   4.674  20.921  0.00  0.00    +0.000 A 
ENDBRANCH  15  16
ENDBRANCH  14  15
ENDBRANCH  12  14
ENDBRANCH   1  12
TORSDOF 6
ENDMDL
MODEL 6
REMARK VINA RESULT:      -7.1      1.290      1.692
REMARK  Name = 
REMARK  6 active torsions:
REMARK  status: ('A' for Active; 'I' for Inactive)
REMARK    1  A    between atoms: C_2  and  C_15
REMARK    2  A    between atoms: N_3  and  C_4
REMARK    3  A    between atoms: C_4  and  N_6
REMARK    4  A    between atoms: N_6  and  C_7
REMARK    5  A    between atoms: C_7  and  C_8
REMARK    6  A    between atoms: C_8  and  C_9
REMARK                            x       y       z     vdW  Elec       q    Type
REMARK                         _______ _______ _______ _____ _____    ______ ____
ROOT
ATOM      1  C   UNL     1       6.402   4.994  17.920  0.00  0.00    +0.000 C 
ATOM      2  S   UNL     1       7.769   5.443  18.765  0.00  0.00    +0.000 S 
ENDROOT
BRANCH   1   5
ATOM      3  O   UNL     1       5.691   6.537  15.599  0.00  0.00    +0.000 OA
ATOM      4  C   UNL     1       6.207   5.422  15.481  0.00  0.00    +0.000 C 
ATOM      5  N   UNL     1       6.530   4.647  16.589  0.00  0.00    +0.000 N 
ATOM      6  H   UNL     1       7.008   3.772  16.409  0.00  0.00    +0.000 HD
BRANCH   4   7
ATOM      7  C   UNL     1       6.506   4.860  14.189  0.00  0.00    +0.000 A 
ATOM      8  C   UNL     1       5.916   3.782  13.557  0.00  0.00    +0.000 A 
ATOM      9  C   UNL     1       6.617   3.580  12.350  0.00  0.00    +0.000 A 
ATOM     10  C   UNL     1       7.575   4.568  12.300  0.00  0.00    +0.000 A 
ATOM     11  O   UNL     1       7.511   5.361  13.406  0.00  0.00    +0.000 OA
ENDBRANCH   4   7
ENDBRANCH   1   5
BRANCH   1  12
ATOM     12  N   UNL     1       5.127   4.942  18.429  0.00  0.00    +0.000 N 
ATOM     13  H   UNL     1       4.658   4.044  18.304  0.00  0.00    +0.000 HD
BRANCH  12  14
ATOM     14  C   UNL     1       4.245   6.085  18.631  0.00  0.00    +0.000 C 
BRANCH  14  15
ATOM     15  C   UNL     1       2.843   5.854  18.057  0.00  0.00    +0.000 C 
BRANCH  15  16
ATOM     16  C   UNL     1       2.154   4.708  18.759  0.00  0.00    +0.000 A 
ATOM     17  C   UNL     1       1.693   3.600  18.035  0.00  0.00    +0.000 A 
ATOM     18  C   UNL     1       0.991   2.577  18.677  0.00  0.00    +0.000 A 
ATOM     19  C   UNL     1       0.743   2.653  20.046  0.00  0.00    +0.000 A 
ATOM     20  C   UNL     1       1.205   3.746  20.777  0.00  0.00    +0.000 A 
ATOM     21  C   UNL     1       1.907   4.770  20.137  0.00  0.00    +0.000 A 
ENDBRANCH  15  16
ENDBRANCH  14  15
ENDBRANCH  12  14
ENDBRANCH   1  12
TORSDOF 6
ENDMDL
MODEL 7
REMARK VINA RESULT:      -7.0      0.774      1.482
REMARK  Name = 
REMARK  6 active torsions:
REMARK  status: ('A' for Active; 'I' for Inactive)
REMARK    1  A    between atoms: C_2  and  C_15
REMARK    2  A    between atoms: N_3  and  C_4
REMARK    3  A    between atoms: C_4  and  N_6
REMARK    4  A    between atoms: N_6  and  C_7
REMARK    5  A    between atoms: C_7  and  C_8
REMARK    6  A    between atoms: C_8  and  C_9
REMARK                            x       y       z     vdW  Elec       q    Type
REMARK                         _______ _______ _______ _____ _____    ______ ____
ROOT
ATOM      1  C   UNL     1       6.202   6.838  16.966  0.00  0.00    +0.000 C 
ATOM      2  S   UNL     1       7.547   7.583  17.615  0.00  0.00    +0.000 S 
ENDROOT
BRANCH   1   5
ATOM      3  O   UNL     1       7.708   4.482  16.294  0.00  0.00    +0.000 OA
ATOM      4  C   UNL     1       7.027   5.058  15.442  0.00  0.00    +0.000 C 
ATOM      5  N   UNL     1       6.315   6.216  15.738  0.00  0.00    +0.000 N 
ATOM      6  H   UNL     1       5.731   6.592  15.001  0.00  0.00    +0.000 HD
BRANCH   4   7
ATOM      7  C   UNL     1       6.926   4.565  14.093  0.00  0.00    +0.000 A 
ATOM      8  C   UNL     1       7.622   4.971  12.969  0.00  0.00    +0.000 A 
ATOM      9  C   UNL     1       7.105   4.239  11.881  0.00  0.00    +0.000 A 
ATOM     10  C   UNL     1       6.145   3.405  12.408  0.00  0.00    +0.000 A 
ATOM     11  O   UNL     1       6.035   3.583  13.754  0.00  0.00    +0.000 OA
ENDBRANCH   4   7
ENDBRANCH   1   5
BRANCH   1  12
ATOM     12  N   UNL     1       4.958   6.786  17.547  0.00  0.00    +0.000 N 
ATOM     13  H   UNL     1       4.426   7.655  17.484  0.00  0.00    +0.000 HD
BRANCH  12  14
ATOM     14  C   UNL     1       4.557   5.884  18.619  0.00  0.00    +0.000 C 
BRANCH  14  15
ATOM     15  C   UNL     1       3.148   6.184  19.143  0.00  0.00    +0.000 C 
BRANCH  15  16
ATOM     16  C   UNL     1       2.350   4.912  19.305  0.00  0.00    +0.000 A 
ATOM     17  C   UNL     1       2.001   4.140  18.189  0.00  0.00    +0.000 A 
ATOM     18  C   UNL     1       1.200   3.005  18.335  0.00  0.00    +0.000 A 
ATOM     19  C   UNL     1       0.741   2.633  19.598  0.00  0.00    +0.000 A 
ATOM     20  C   UNL     1       1.090   3.388  20.715  0.00  0.00    +0.000 A 
ATOM     21  C   UNL     1       1.890   4.523  20.570  0.00  0.00    +0.000 A 
ENDBRANCH  15  16
ENDBRANCH  14  15
ENDBRANCH  12  14
ENDBRANCH   1  12
TORSDOF 6
ENDMDL
MODEL 8
REMARK VINA RESULT:      -7.0      2.316      3.317
REMARK  Name = 
REMARK  6 active torsions:
REMARK  status: ('A' for Active; 'I' for Inactive)
REMARK    1  A    between atoms: C_2  and  C_15
REMARK    2  A    between atoms: N_3  and  C_4
REMARK    3  A    between atoms: C_4  and  N_6
REMARK    4  A    between atoms: N_6  and  C_7
REMARK    5  A    between atoms: C_7  and  C_8
REMARK    6  A    between atoms: C_8  and  C_9
REMARK                            x       y       z     vdW  Elec       q    Type
REMARK                         _______ _______ _______ _____ _____    ______ ____
ROOT
ATOM      1  C   UNL     1       2.862   6.842  18.866  0.00  0.00    +0.000 C 
ATOM      2  S   UNL     1       2.042   8.259  18.540  0.00  0.00    +0.000 S 
ENDROOT
BRANCH   1   5
ATOM      3  O   UNL     1       5.379   5.486  19.177  0.00  0.00    +0.000 OA
ATOM      4  C   UNL     1       4.871   5.624  18.061  0.00  0.00    +0.000 C 
ATOM      5  N   UNL     1       3.670   6.303  17.884  0.00  0.00    +0.000 N 
ATOM      6  H   UNL     1       3.289   6.318  16.946  0.00  0.00    +0.000 HD
BRANCH   4   7
ATOM      7  C   UNL     1       5.491   5.089  16.876  0.00  0.00    +0.000 A 
ATOM      8  C   UNL     1       4.948   4.253  15.918  0.00  0.00    +0.000 A 
ATOM      9  C   UNL     1       5.981   3.951  15.006  0.00  0.00    +0.000 A 
ATOM     10  C   UNL     1       7.086   4.646  15.442  0.00  0.00    +0.000 A 
ATOM     11  O   UNL     1       6.799   5.352  16.572  0.00  0.00    +0.000 OA
ENDBRANCH   4   7
ENDBRANCH   1   5
BRANCH   1  12
ATOM     12  N   UNL     1       2.804   6.137  20.043  0.00  0.00    +0.000 N 
ATOM     13  H   UNL     1       3.659   5.631  20.276  0.00  0.00    +0.000 HD
BRANCH  12  14
ATOM     14  C   UNL     1       1.589   5.634  20.674  0.00  0.00    +0.000 C 
BRANCH  14  15
ATOM     15  C   UNL     1       1.740   4.192  21.172  0.00  0.00    +0.000 C 
BRANCH  15  16
ATOM     16  C   UNL     1       2.314   3.305  20.093  0.00  0.00    +0.000 A 
ATOM     17  C   UNL     1       3.570   2.704  20.256  0.00  0.00    +0.000 A 
ATOM     18  C   UNL     1       4.130   1.945  19.225  0.00  0.00    +0.000 A 
ATOM     19  C   UNL     1       3.440   1.780  18.026  0.00  0.00    +0.000 A 
ATOM     20  C   UNL     1       2.188   2.365  17.858  0.00  0.00    +0.000 A 
ATOM     21  C   UNL     1       1.627   3.125  18.886  0.00  0.00    +0.000 A 
ENDBRANCH  15  16
ENDBRANCH  14  15
ENDBRANCH  12  14
ENDBRANCH   1  12
TORSDOF 6
ENDMDL
MODEL 9
REMARK VINA RESULT:      -7.0      0.953      1.122
REMARK  Name = 
REMARK  6 active torsions:
REMARK  status: ('A' for Active; 'I' for Inactive)
REMARK    1  A    between atoms: C_2  and  C_15
REMARK    2  A    between atoms: N_3  and  C_4
REMARK    3  A    between atoms: C_4  and  N_6
REMARK    4  A    between atoms: N_6  and  C_7
REMARK    5  A    between atoms: C_7  and  C_8
REMARK    6  A    between atoms: C_8  and  C_9
REMARK                            x       y       z     vdW  Elec       q    Type
REMARK                         _______ _______ _______ _____ _____    ______ ____
ROOT
ATOM      1  C   UNL     1       6.421   6.460  17.134  0.00  0.00    +0.000 C 
ATOM      2  S   UNL     1       7.719   6.918  18.078  0.00  0.00    +0.000 S 
ENDROOT
BRANCH   1   5
ATOM      3  O   UNL     1       5.678   3.869  16.130  0.00  0.00    +0.000 OA
ATOM      4  C   UNL     1       6.271   4.678  15.410  0.00  0.00    +0.000 C 
ATOM      5  N   UNL     1       6.666   5.924  15.885  0.00  0.00    +0.000 N 
ATOM      6  H   UNL     1       7.090   6.553  15.214  0.00  0.00    +0.000 HD
BRANCH   4   7
ATOM      7  C   UNL     1       6.585   4.380  14.036  0.00  0.00    +0.000 A 
ATOM      8  C   UNL     1       7.495   5.002  13.203  0.00  0.00    +0.000 A 
ATOM      9  C   UNL     1       7.371   4.396  11.936  0.00  0.00    +0.000 A 
ATOM     10  C   UNL     1       6.414   3.416  12.077  0.00  0.00    +0.000 A 
ATOM     11  O   UNL     1       5.936   3.387  13.353  0.00  0.00    +0.000 OA
ENDBRANCH   4   7
ENDBRANCH   1   5
BRANCH   1  12
ATOM     12  N   UNL     1       5.098   6.572  17.484  0.00  0.00    +0.000 N 
ATOM     13  H   UNL     1       4.625   7.389  17.095  0.00  0.00    +0.000 HD
BRANCH  12  14
ATOM     14  C   UNL     1       4.483   6.005  18.678  0.00  0.00    +0.000 C 
BRANCH  14  15
ATOM     15  C   UNL     1       2.990   6.333  18.782  0.00  0.00    +0.000 C 
BRANCH  15  16
ATOM     16  C   UNL     1       2.184   5.093  19.088  0.00  0.00    +0.000 A 
ATOM     17  C   UNL     1       1.791   4.802  20.402  0.00  0.00    +0.000 A 
ATOM     18  C   UNL     1       1.110   3.618  20.692  0.00  0.00    +0.000 A 
ATOM     19  C   UNL     1       0.815   2.715  19.672  0.00  0.00    +0.000 A 
ATOM     20  C   UNL     1       1.193   2.999  18.361  0.00  0.00    +0.000 A 
ATOM     21  C   UNL     1       1.874   4.182  18.070  0.00  0.00    +0.000 A 
ENDBRANCH  15  16
ENDBRANCH  14  15
ENDBRANCH  12  14
ENDBRANCH   1  12
TORSDOF 6
ENDMDL
