MODEL 1
REMARK VINA RESULT:      -6.8      0.000      0.000
REMARK  Name = 
REMARK  12 active torsions:
REMARK  status: ('A' for Active; 'I' for Inactive)
REMARK    1  A    between atoms: C_1  and  C_2
REMARK    2  A    between atoms: C_2  and  C_3
REMARK    3  A    between atoms: C_3  and  C_4
REMARK    4  A    between atoms: C_4  and  N_5
REMARK    5  A    between atoms: C_12  and  C_13
REMARK    6  A    between atoms: C_12  and  N_14
REMARK    7  A    between atoms: N_14  and  C_15
REMARK    8  A    between atoms: C_15  and  C_16
REMARK    9  A    between atoms: C_16  and  C_17
REMARK   10  A    between atoms: C_17  and  N_18
REMARK   11  A    between atoms: N_18  and  C_19
REMARK   12  A    between atoms: N_18  and  C_20
REMARK                            x       y       z     vdW  Elec       q    Type
REMARK                         _______ _______ _______ _____ _____    ______ ____
ROOT
ATOM      1  N   UNL     1       6.771   6.036  17.118  0.00  0.00    +0.000 N 
ATOM      2  C   UNL     1       7.042   4.729  17.466  0.00  0.00    +0.000 C 
ATOM      3  O   UNL     1       8.172   4.253  17.546  0.00  0.00    +0.000 OA
ATOM      4  N   UNL     1       5.965   3.926  17.711  0.00  0.00    +0.000 N 
ATOM      5  C   UNL     1       4.643   4.271  17.617  0.00  0.00    +0.000 C 
ATOM      6  O   UNL     1       3.766   3.435  17.783  0.00  0.00    +0.000 OA
ATOM      7  C   UNL     1       4.434   5.707  17.308  0.00  0.00    +0.000 C 
ATOM      8  C   UNL     1       3.396   6.424  17.800  0.00  0.00    +0.000 C 
ATOM      9  C   UNL     1       3.244   7.920  17.568  0.00  0.00    +0.000 C 
ATOM     10  C   UNL     1       5.545   6.372  16.597  0.00  0.00    +0.000 C 
ATOM     11  O   UNL     1       5.372   7.140  15.647  0.00  0.00    +0.000 OA
ATOM     12  H   UNL     1       6.158   2.967  17.956  0.00  0.00    +0.000 HD
ENDROOT
BRANCH   8  13
ATOM     13  N   UNL     1       2.401   5.875  18.609  0.00  0.00    +0.000 N 
ATOM     14  H   UNL     1       1.512   5.724  18.131  0.00  0.00    +0.000 HD
BRANCH  13  15
ATOM     15  C   UNL     1       2.246   6.189  20.034  0.00  0.00    +0.000 C 
BRANCH  15  16
ATOM     16  C   UNL     1       2.137   4.923  20.883  0.00  0.00    +0.000 C 
BRANCH  16  17
ATOM     17  C   UNL     1       0.871   4.141  20.505  0.00  0.00    +0.000 C 
BRANCH  17  18
ATOM     18  N   UNL     1       1.007   2.680  20.645  0.00  0.00    +0.000 NA
ATOM     19  C   UNL     1       1.262   2.021  19.363  0.00  0.00    +0.000 C 
ATOM     20  C   UNL     1       2.100   2.372  21.577  0.00  0.00    +0.000 C 
ENDBRANCH  17  18
ENDBRANCH  16  17
ENDBRANCH  15  16
ENDBRANCH  13  15
ENDBRANCH   8  13
BRANCH   1  21
ATOM     21  C   UNL     1       7.862   6.983  16.961  0.00  0.00    +0.000 C 
BRANCH  21  22
ATOM     22  C   UNL     1       8.089   7.788  18.254  0.00  0.00    +0.000 C 
BRANCH  22  24
ATOM     23  C   UNL     1       9.134   9.940  19.056  0.00  0.00    +0.000 C 
ATOM     24  C   UNL     1       8.223   9.296  18.018  0.00  0.00    +0.000 C 
ENDBRANCH  22  24
ENDBRANCH  21  22
ENDBRANCH   1  21
TORSDOF 8
ENDMDL
MODEL 2
REMARK VINA RESULT:      -6.5      1.897      6.551
REMARK  Name = 
REMARK  12 active torsions:
REMARK  status: ('A' for Active; 'I' for Inactive)
REMARK    1  A    between atoms: C_1  and  C_2
REMARK    2  A    between atoms: C_2  and  C_3
REMARK    3  A    between atoms: C_3  and  C_4
REMARK    4  A    between atoms: C_4  and  N_5
REMARK    5  A    between atoms: C_12  and  C_13
REMARK    6  A    between atoms: C_12  and  N_14
REMARK    7  A    between atoms: N_14  and  C_15
REMARK    8  A    between atoms: C_15  and  C_16
REMARK    9  A    between atoms: C_16  and  C_17
REMARK   10  A    between atoms: C_17  and  N_18
REMARK   11  A    between atoms: N_18  and  C_19
REMARK   12  A    between atoms: N_18  and  C_20
REMARK                            x       y       z     vdW  Elec       q    Type
REMARK                         _______ _______ _______ _____ _____    ______ ____
ROOT
ATOM      1  N   UNL     1       1.594   4.788  19.604  0.00  0.00    +0.000 N 
ATOM      2  C   UNL     1       2.007   6.081  19.849  0.00  0.00    +0.000 C 
ATOM      3  O   UNL     1       1.539   6.804  20.723  0.00  0.00    +0.000 OA
ATOM      4  N   UNL     1       2.988   6.572  19.035  0.00  0.00    +0.000 N 
ATOM      5  C   UNL     1       3.583   5.930  17.982  0.00  0.00    +0.000 C 
ATOM      6  O   UNL     1       4.395   6.510  17.275  0.00  0.00    +0.000 OA
ATOM      7  C   UNL     1       3.137   4.524  17.828  0.00  0.00    +0.000 C 
ATOM      8  C   UNL     1       3.956   3.533  17.401  0.00  0.00    +0.000 C 
ATOM      9  C   UNL     1       3.525   2.074  17.345  0.00  0.00    +0.000 C 
ATOM     10  C   UNL     1       1.797   4.219  18.370  0.00  0.00    +0.000 C 
ATOM     11  O   UNL     1       0.969   3.529  17.769  0.00  0.00    +0.000 OA
ATOM     12  H   UNL     1       3.286   7.521  19.204  0.00  0.00    +0.000 HD
ENDROOT
BRANCH   8  13
ATOM     13  N   UNL     1       5.282   3.744  17.024  0.00  0.00    +0.000 N 
ATOM     14  H   UNL     1       5.847   4.211  17.734  0.00  0.00    +0.000 HD
BRANCH  13  15
ATOM     15  C   UNL     1       5.696   4.063  15.653  0.00  0.00    +0.000 C 
BRANCH  15  16
ATOM     16  C   UNL     1       7.021   4.822  15.625  0.00  0.00    +0.000 C 
BRANCH  16  17
ATOM     17  C   UNL     1       7.690   4.770  17.006  0.00  0.00    +0.000 C 
BRANCH  17  18
ATOM     18  N   UNL     1       7.260   5.845  17.919  0.00  0.00    +0.000 NA
ATOM     19  C   UNL     1       7.826   5.693  19.261  0.00  0.00    +0.000 C 
ATOM     20  C   UNL     1       7.654   7.148  17.368  0.00  0.00    +0.000 C 
ENDBRANCH  17  18
ENDBRANCH  16  17
ENDBRANCH  15  16
ENDBRANCH  13  15
ENDBRANCH   8  13
BRANCH   1  21
ATOM     21  C   UNL     1       0.644   4.152  20.501  0.00  0.00    +0.000 C 
BRANCH  21  22
ATOM     22  C   UNL     1       1.171   2.793  20.997  0.00  0.00    +0.000 C 
BRANCH  22  24
ATOM     23  C   UNL     1       3.641   2.282  20.958  0.00  0.00    +0.000 C 
ATOM     24  C   UNL     1       2.497   2.892  21.758  0.00  0.00    +0.000 C 
ENDBRANCH  22  24
ENDBRANCH  21  22
ENDBRANCH   1  21
TORSDOF 8
ENDMDL
MODEL 3
REMARK VINA RESULT:      -6.4      3.000      4.562
REMARK  Name = 
REMARK  12 active torsions:
REMARK  status: ('A' for Active; 'I' for Inactive)
REMARK    1  A    between atoms: C_1  and  C_2
REMARK    2  A    between atoms: C_2  and  C_3
REMARK    3  A    between atoms: C_3  and  C_4
REMARK    4  A    between atoms: C_4  and  N_5
REMARK    5  A    between atoms: C_12  and  C_13
REMARK    6  A    between atoms: C_12  and  N_14
REMARK    7  A    between atoms: N_14  and  C_15
REMARK    8  A    between atoms: C_15  and  C_16
REMARK    9  A    between atoms: C_16  and  C_17
REMARK   10  A    between atoms: C_17  and  N_18
REMARK   11  A    between atoms: N_18  and  C_19
REMARK   12  A    between atoms: N_18  and  C_20
REMARK                            x       y       z     vdW  Elec       q    Type
REMARK                         _______ _______ _______ _____ _____    ______ ____
ROOT
ATOM      1  N   UNL     1       6.383   4.283  14.567  0.00  0.00    +0.000 N 
ATOM      2  C   UNL     1       7.317   5.294  14.656  0.00  0.00    +0.000 C 
ATOM      3  O   UNL     1       8.149   5.547  13.788  0.00  0.00    +0.000 OA
ATOM      4  N   UNL     1       7.310   6.034  15.805  0.00  0.00    +0.000 N 
ATOM      5  C   UNL     1       6.495   5.858  16.891  0.00  0.00    +0.000 C 
ATOM      6  O   UNL     1       6.643   6.537  17.898  0.00  0.00    +0.000 OA
ATOM      7  C   UNL     1       5.475   4.801  16.692  0.00  0.00    +0.000 C 
ATOM      8  C   UNL     1       4.228   4.872  17.216  0.00  0.00    +0.000 C 
ATOM      9  C   UNL     1       3.150   3.838  16.922  0.00  0.00    +0.000 C 
ATOM     10  C   UNL     1       5.825   3.757  15.708  0.00  0.00    +0.000 C 
ATOM     11  O   UNL     1       5.629   2.555  15.903  0.00  0.00    +0.000 OA
ATOM     12  H   UNL     1       7.998   6.768  15.878  0.00  0.00    +0.000 HD
ENDROOT
BRANCH   8  13
ATOM     13  N   UNL     1       3.797   5.920  18.028  0.00  0.00    +0.000 N 
ATOM     14  H   UNL     1       4.156   6.835  17.753  0.00  0.00    +0.000 HD
BRANCH  13  15
ATOM     15  C   UNL     1       3.584   5.794  19.475  0.00  0.00    +0.000 C 
BRANCH  15  16
ATOM     16  C   UNL     1       2.118   5.525  19.809  0.00  0.00    +0.000 C 
BRANCH  16  17
ATOM     17  C   UNL     1       2.003   4.869  21.192  0.00  0.00    +0.000 C 
BRANCH  17  18
ATOM     18  N   UNL     1       1.569   3.461  21.151  0.00  0.00    +0.000 NA
ATOM     19  C   UNL     1       0.836   3.141  19.925  0.00  0.00    +0.000 C 
ATOM     20  C   UNL     1       2.738   2.580  21.263  0.00  0.00    +0.000 C 
ENDBRANCH  17  18
ENDBRANCH  16  17
ENDBRANCH  15  16
ENDBRANCH  13  15
ENDBRANCH   8  13
BRANCH   1  21
ATOM     21  C   UNL     1       6.246   3.533  13.331  0.00  0.00    +0.000 C 
BRANCH  21  22
ATOM     22  C   UNL     1       4.936   3.891  12.605  0.00  0.00    +0.000 C 
BRANCH  22  24
ATOM     23  C   UNL     1       3.468   3.514  10.589  0.00  0.00    +0.000 C 
ATOM     24  C   UNL     1       4.622   2.970  11.421  0.00  0.00    +0.000 C 
ENDBRANCH  22  24
ENDBRANCH  21  22
ENDBRANCH   1  21
TORSDOF 8
ENDMDL
MODEL 4
REMARK VINA RESULT:      -6.4      2.409      3.624
REMARK  Name = 
REMARK  12 active torsions:
REMARK  status: ('A' for Active; 'I' for Inactive)
REMARK    1  A    between atoms: C_1  and  C_2
REMARK    2  A    between atoms: C_2  and  C_3
REMARK    3  A    between atoms: C_3  and  C_4
REMARK    4  A    between atoms: C_4  and  N_5
REMARK    5  A    between atoms: C_12  and  C_13
REMARK    6  A    between atoms: C_12  and  N_14
REMARK    7  A    between atoms: N_14  and  C_15
REMARK    8  A    between atoms: C_15  and  C_16
REMARK    9  A    between atoms: C_16  and  C_17
REMARK   10  A    between atoms: C_17  and  N_18
REMARK   11  A    between atoms: N_18  and  C_19
REMARK   12  A    between atoms: N_18  and  C_20
REMARK                            x       y       z     vdW  Elec       q    Type
REMARK                         _______ _______ _______ _____ _____    ______ ____
ROOT
ATOM      1  N   UNL     1       5.745   4.861  16.350  0.00  0.00    +0.000 N 
ATOM      2  C   UNL     1       6.885   4.563  17.066  0.00  0.00    +0.000 C 
ATOM      3  O   UNL     1       8.009   4.484  16.579  0.00  0.00    +0.000 OA
ATOM      4  N   UNL     1       6.721   4.321  18.401  0.00  0.00    +0.000 N 
ATOM      5  C   UNL     1       5.542   4.312  19.097  0.00  0.00    +0.000 C 
ATOM      6  O   UNL     1       5.518   3.999  20.279  0.00  0.00    +0.000 OA
ATOM      7  C   UNL     1       4.374   4.710  18.274  0.00  0.00    +0.000 C 
ATOM      8  C   UNL     1       3.328   5.413  18.770  0.00  0.00    +0.000 C 
ATOM      9  C   UNL     1       2.182   5.910  17.900  0.00  0.00    +0.000 C 
ATOM     10  C   UNL     1       4.512   4.480  16.822  0.00  0.00    +0.000 C 
ATOM     11  O   UNL     1       3.611   4.000  16.129  0.00  0.00    +0.000 OA
ATOM     12  H   UNL     1       7.551   4.093  18.927  0.00  0.00    +0.000 HD
ENDROOT
BRANCH   8  13
ATOM     13  N   UNL     1       3.225   5.791  20.109  0.00  0.00    +0.000 N 
ATOM     14  H   UNL     1       4.113   5.788  20.611  0.00  0.00    +0.000 HD
BRANCH  13  15
ATOM     15  C   UNL     1       2.076   5.462  20.961  0.00  0.00    +0.000 C 
BRANCH  15  16
ATOM     16  C   UNL     1       1.297   4.264  20.421  0.00  0.00    +0.000 C 
BRANCH  16  17
ATOM     17  C   UNL     1       2.099   2.973  20.634  0.00  0.00    +0.000 C 
BRANCH  17  18
ATOM     18  N   UNL     1       1.857   1.943  19.607  0.00  0.00    +0.000 NA
ATOM     19  C   UNL     1       0.884   2.378  18.604  0.00  0.00    +0.000 C 
ATOM     20  C   UNL     1       3.120   1.599  18.943  0.00  0.00    +0.000 C 
ENDBRANCH  17  18
ENDBRANCH  16  17
ENDBRANCH  15  16
ENDBRANCH  13  15
ENDBRANCH   8  13
BRANCH   1  21
ATOM     21  C   UNL     1       5.851   5.249  14.953  0.00  0.00    +0.000 C 
BRANCH  21  22
ATOM     22  C   UNL     1       6.259   4.054  14.073  0.00  0.00    +0.000 C 
BRANCH  22  24
ATOM     23  C   UNL     1       5.849   2.889  11.873  0.00  0.00    +0.000 C 
ATOM     24  C   UNL     1       5.225   3.704  12.999  0.00  0.00    +0.000 C 
ENDBRANCH  22  24
ENDBRANCH  21  22
ENDBRANCH   1  21
TORSDOF 8
ENDMDL
MODEL 5
REMARK VINA RESULT:      -6.4      3.057      6.678
REMARK  Name = 
REMARK  12 active torsions:
REMARK  status: ('A' for Active; 'I' for Inactive)
REMARK    1  A    between atoms: C_1  and  C_2
REMARK    2  A    between atoms: C_2  and  C_3
REMARK    3  A    between atoms: C_3  and  C_4
REMARK    4  A    between atoms: C_4  and  N_5
REMARK    5  A    between atoms: C_12  and  C_13
REMARK    6  A    between atoms: C_12  and  N_14
REMARK    7  A    between atoms: N_14  and  C_15
REMARK    8  A    between atoms: C_15  and  C_16
REMARK    9  A    between atoms: C_16  and  C_17
REMARK   10  A    between atoms: C_17  and  N_18
REMARK   11  A    between atoms: N_18  and  C_19
REMARK   12  A    between atoms: N_18  and  C_20
REMARK                            x       y       z     vdW  Elec       q    Type
REMARK                         _______ _______ _______ _____ _____    ______ ____
ROOT
ATOM      1  N   UNL     1       3.813   4.598  18.461  0.00  0.00    +0.000 N 
ATOM      2  C   UNL     1       4.574   3.655  19.121  0.00  0.00    +0.000 C 
ATOM      3  O   UNL     1       4.127   2.847  19.930  0.00  0.00    +0.000 OA
ATOM      4  N   UNL     1       5.914   3.657  18.854  0.00  0.00    +0.000 N 
ATOM      5  C   UNL     1       6.588   4.515  18.027  0.00  0.00    +0.000 C 
ATOM      6  O   UNL     1       7.806   4.466  17.936  0.00  0.00    +0.000 OA
ATOM      7  C   UNL     1       5.694   5.451  17.303  0.00  0.00    +0.000 C 
ATOM      8  C   UNL     1       5.938   5.875  16.040  0.00  0.00    +0.000 C 
ATOM      9  C   UNL     1       4.966   6.751  15.262  0.00  0.00    +0.000 C 
ATOM     10  C   UNL     1       4.403   5.735  17.961  0.00  0.00    +0.000 C 
ATOM     11  O   UNL     1       3.923   6.868  18.041  0.00  0.00    +0.000 OA
ATOM     12  H   UNL     1       6.475   2.976  19.342  0.00  0.00    +0.000 HD
ENDROOT
BRANCH   8  13
ATOM     13  N   UNL     1       7.072   5.509  15.315  0.00  0.00    +0.000 N 
ATOM     14  H   UNL     1       7.676   6.292  15.063  0.00  0.00    +0.000 HD
BRANCH  13  15
ATOM     15  C   UNL     1       7.090   4.423  14.328  0.00  0.00    +0.000 C 
BRANCH  15  16
ATOM     16  C   UNL     1       7.264   4.954  12.906  0.00  0.00    +0.000 C 
BRANCH  16  17
ATOM     17  C   UNL     1       7.063   3.821  11.890  0.00  0.00    +0.000 C 
BRANCH  17  18
ATOM     18  N   UNL     1       5.893   2.970  12.168  0.00  0.00    +0.000 NA
ATOM     19  C   UNL     1       4.635   3.608  11.774  0.00  0.00    +0.000 C 
ATOM     20  C   UNL     1       6.032   1.691  11.459  0.00  0.00    +0.000 C 
ENDBRANCH  17  18
ENDBRANCH  16  17
ENDBRANCH  15  16
ENDBRANCH  13  15
ENDBRANCH   8  13
BRANCH   1  21
ATOM     21  C   UNL     1       2.367   4.582  18.596  0.00  0.00    +0.000 C 
BRANCH  21  22
ATOM     22  C   UNL     1       1.945   4.700  20.073  0.00  0.00    +0.000 C 
BRANCH  22  24
ATOM     23  C   UNL     1       1.307   2.875  21.693  0.00  0.00    +0.000 C 
ATOM     24  C   UNL     1       0.869   3.690  20.483  0.00  0.00    +0.000 C 
ENDBRANCH  22  24
ENDBRANCH  21  22
ENDBRANCH   1  21
TORSDOF 8
ENDMDL
MODEL 6
REMARK VINA RESULT:      -6.3      2.146      3.759
REMARK  Name = 
REMARK  12 active torsions:
REMARK  status: ('A' for Active; 'I' for Inactive)
REMARK    1  A    between atoms: C_1  and  C_2
REMARK    2  A    between atoms: C_2  and  C_3
REMARK    3  A    between atoms: C_3  and  C_4
REMARK    4  A    between atoms: C_4  and  N_5
REMARK    5  A    between atoms: C_12  and  C_13
REMARK    6  A    between atoms: C_12  and  N_14
REMARK    7  A    between atoms: N_14  and  C_15
REMARK    8  A    between atoms: C_15  and  C_16
REMARK    9  A    between atoms: C_16  and  C_17
REMARK   10  A    between atoms: C_17  and  N_18
REMARK   11  A    between atoms: N_18  and  C_19
REMARK   12  A    between atoms: N_18  and  C_20
REMARK                            x       y       z     vdW  Elec       q    Type
REMARK                         _______ _______ _______ _____ _____    ______ ____
ROOT
ATOM      1  N   UNL     1       5.973   5.361  17.416  0.00  0.00    +0.000 N 
ATOM      2  C   UNL     1       5.510   6.647  17.229  0.00  0.00    +0.000 C 
ATOM      3  O   UNL     1       6.198   7.579  16.822  0.00  0.00    +0.000 OA
ATOM      4  N   UNL     1       4.201   6.877  17.545  0.00  0.00    +0.000 N 
ATOM      5  C   UNL     1       3.308   5.975  18.058  0.00  0.00    +0.000 C 
ATOM      6  O   UNL     1       2.180   6.326  18.378  0.00  0.00    +0.000 OA
ATOM      7  C   UNL     1       3.859   4.602  18.164  0.00  0.00    +0.000 C 
ATOM      8  C   UNL     1       3.110   3.490  17.972  0.00  0.00    +0.000 C 
ATOM      9  C   UNL     1       3.701   2.088  17.977  0.00  0.00    +0.000 C 
ATOM     10  C   UNL     1       5.328   4.515  18.286  0.00  0.00    +0.000 C 
ATOM     11  O   UNL     1       5.894   3.760  19.081  0.00  0.00    +0.000 OA
ATOM     12  H   UNL     1       3.861   7.818  17.419  0.00  0.00    +0.000 HD
ENDROOT
BRANCH   8  13
ATOM     13  N   UNL     1       1.743   3.525  17.699  0.00  0.00    +0.000 N 
ATOM     14  H   UNL     1       1.430   4.387  17.250  0.00  0.00    +0.000 HD
BRANCH  13  15
ATOM     15  C   UNL     1       0.724   2.923  18.568  0.00  0.00    +0.000 C 
BRANCH  15  16
ATOM     16  C   UNL     1       0.661   3.615  19.928  0.00  0.00    +0.000 C 
BRANCH  16  17
ATOM     17  C   UNL     1       1.066   2.636  21.039  0.00  0.00    +0.000 C 
BRANCH  17  18
ATOM     18  N   UNL     1       2.251   3.061  21.806  0.00  0.00    +0.000 NA
ATOM     19  C   UNL     1       3.439   2.272  21.474  0.00  0.00    +0.000 C 
ATOM     20  C   UNL     1       2.522   4.481  21.551  0.00  0.00    +0.000 C 
ENDBRANCH  17  18
ENDBRANCH  16  17
ENDBRANCH  15  16
ENDBRANCH  13  15
ENDBRANCH   8  13
BRANCH   1  21
ATOM     21  C   UNL     1       7.316   5.008  16.989  0.00  0.00    +0.000 C 
BRANCH  21  22
ATOM     22  C   UNL     1       7.345   4.637  15.495  0.00  0.00    +0.000 C 
BRANCH  22  24
ATOM     23  C   UNL     1       5.489   4.291  13.821  0.00  0.00    +0.000 C 
ATOM     24  C   UNL     1       6.179   3.742  15.064  0.00  0.00    +0.000 C 
ENDBRANCH  22  24
ENDBRANCH  21  22
ENDBRANCH   1  21
TORSDOF 8
ENDMDL
MODEL 7
REMARK VINA RESULT:      -6.3      3.192      6.643
REMARK  Name = 
REMARK  12 active torsions:
REMARK  status: ('A' for Active; 'I' for Inactive)
REMARK    1  A    between atoms: C_1  and  C_2
REMARK    2  A    between atoms: C_2  and  C_3
REMARK    3  A    between atoms: C_3  and  C_4
REMARK    4  A    between atoms: C_4  and  N_5
REMARK    5  A    between atoms: C_12  and  C_13
REMARK    6  A    between atoms: C_12  and  N_14
REMARK    7  A    between atoms: N_14  and  C_15
REMARK    8  A    between atoms: C_15  and  C_16
REMARK    9  A    between atoms: C_16  and  C_17
REMARK   10  A    between atoms: C_17  and  N_18
REMARK   11  A    between atoms: N_18  and  C_19
REMARK   12  A    between atoms: N_18  and  C_20
REMARK                            x       y       z     vdW  Elec       q    Type
REMARK                         _______ _______ _______ _____ _____    ______ ____
ROOT
ATOM      1  N   UNL     1       3.901   4.776  18.657  0.00  0.00    +0.000 N 
ATOM      2  C   UNL     1       4.710   3.824  19.241  0.00  0.00    +0.000 C 
ATOM      3  O   UNL     1       4.334   3.022  20.091  0.00  0.00    +0.000 OA
ATOM      4  N   UNL     1       6.018   3.810  18.848  0.00  0.00    +0.000 N 
ATOM      5  C   UNL     1       6.620   4.660  17.958  0.00  0.00    +0.000 C 
ATOM      6  O   UNL     1       7.823   4.596  17.750  0.00  0.00    +0.000 OA
ATOM      7  C   UNL     1       5.671   5.607  17.322  0.00  0.00    +0.000 C 
ATOM      8  C   UNL     1       5.798   6.027  16.041  0.00  0.00    +0.000 C 
ATOM      9  C   UNL     1       4.766   6.914  15.359  0.00  0.00    +0.000 C 
ATOM     10  C   UNL     1       4.453   5.905  18.101  0.00  0.00    +0.000 C 
ATOM     11  O   UNL     1       3.997   7.045  18.226  0.00  0.00    +0.000 OA
ATOM     12  H   UNL     1       6.616   3.122  19.280  0.00  0.00    +0.000 HD
ENDROOT
BRANCH   8  13
ATOM     13  N   UNL     1       6.852   5.648  15.211  0.00  0.00    +0.000 N 
ATOM     14  H   UNL     1       7.216   6.402  14.628  0.00  0.00    +0.000 HD
BRANCH  13  15
ATOM     15  C   UNL     1       6.954   4.327  14.577  0.00  0.00    +0.000 C 
BRANCH  15  16
ATOM     16  C   UNL     1       6.024   4.206  13.372  0.00  0.00    +0.000 C 
BRANCH  16  17
ATOM     17  C   UNL     1       6.714   3.419  12.249  0.00  0.00    +0.000 C 
BRANCH  17  18
ATOM     18  N   UNL     1       5.779   2.779  11.306  0.00  0.00    +0.000 NA
ATOM     19  C   UNL     1       5.905   1.321  11.301  0.00  0.00    +0.000 C 
ATOM     20  C   UNL     1       4.399   3.147  11.651  0.00  0.00    +0.000 C 
ENDBRANCH  17  18
ENDBRANCH  16  17
ENDBRANCH  15  16
ENDBRANCH  13  15
ENDBRANCH   8  13
BRANCH   1  21
ATOM     21  C   UNL     1       2.474   4.777  18.931  0.00  0.00    +0.000 C 
BRANCH  21  22
ATOM     22  C   UNL     1       1.720   3.853  17.957  0.00  0.00    +0.000 C 
BRANCH  22  24
ATOM     23  C   UNL     1       0.823   2.940  20.132  0.00  0.00    +0.000 C 
ATOM     24  C   UNL     1       1.030   2.671  18.646  0.00  0.00    +0.000 C 
ENDBRANCH  22  24
ENDBRANCH  21  22
ENDBRANCH   1  21
TORSDOF 8
ENDMDL
MODEL 8
REMARK VINA RESULT:      -6.2      1.247      1.438
REMARK  Name = 
REMARK  12 active torsions:
REMARK  status: ('A' for Active; 'I' for Inactive)
REMARK    1  A    between atoms: C_1  and  C_2
REMARK    2  A    between atoms: C_2  and  C_3
REMARK    3  A    between atoms: C_3  and  C_4
REMARK    4  A    between atoms: C_4  and  N_5
REMARK    5  A    between atoms: C_12  and  C_13
REMARK    6  A    between atoms: C_12  and  N_14
REMARK    7  A    between atoms: N_14  and  C_15
REMARK    8  A    between atoms: C_15  and  C_16
REMARK    9  A    between atoms: C_16  and  C_17
REMARK   10  A    between atoms: C_17  and  N_18
REMARK   11  A    between atoms: N_18  and  C_19
REMARK   12  A    between atoms: N_18  and  C_20
REMARK                            x       y       z     vdW  Elec       q    Type
REMARK                         _______ _______ _______ _____ _____    ______ ____
ROOT
ATOM      1  N   UNL     1       6.478   5.854  17.409  0.00  0.00    +0.000 N 
ATOM      2  C   UNL     1       7.125   4.699  17.795  0.00  0.00    +0.000 C 
ATOM      3  O   UNL     1       8.282   4.418  17.493  0.00  0.00    +0.000 OA
ATOM      4  N   UNL     1       6.400   3.814  18.543  0.00  0.00    +0.000 N 
ATOM      5  C   UNL     1       5.091   3.938  18.923  0.00  0.00    +0.000 C 
ATOM      6  O   UNL     1       4.528   3.034  19.526  0.00  0.00    +0.000 OA
ATOM      7  C   UNL     1       4.488   5.235  18.532  0.00  0.00    +0.000 C 
ATOM      8  C   UNL     1       3.567   5.878  19.288  0.00  0.00    +0.000 C 
ATOM      9  C   UNL     1       3.030   7.258  18.936  0.00  0.00    +0.000 C 
ATOM     10  C   UNL     1       5.105   5.896  17.364  0.00  0.00    +0.000 C 
ATOM     11  O   UNL     1       4.447   6.422  16.463  0.00  0.00    +0.000 OA
ATOM     12  H   UNL     1       6.866   2.963  18.819  0.00  0.00    +0.000 HD
ENDROOT
BRANCH   8  13
ATOM     13  N   UNL     1       3.065   5.366  20.484  0.00  0.00    +0.000 N 
ATOM     14  H   UNL     1       3.394   4.425  20.704  0.00  0.00    +0.000 HD
BRANCH  13  15
ATOM     15  C   UNL     1       1.710   5.636  20.980  0.00  0.00    +0.000 C 
BRANCH  15  16
ATOM     16  C   UNL     1       0.660   4.825  20.223  0.00  0.00    +0.000 C 
BRANCH  16  17
ATOM     17  C   UNL     1       1.038   3.337  20.225  0.00  0.00    +0.000 C 
BRANCH  17  18
ATOM     18  N   UNL     1       0.969   2.701  18.897  0.00  0.00    +0.000 NA
ATOM     19  C   UNL     1       1.282   3.638  17.816  0.00  0.00    +0.000 C 
ATOM     20  C   UNL     1       1.901   1.567  18.843  0.00  0.00    +0.000 C 
ENDBRANCH  17  18
ENDBRANCH  16  17
ENDBRANCH  15  16
ENDBRANCH  13  15
ENDBRANCH   8  13
BRANCH   1  21
ATOM     21  C   UNL     1       7.216   6.898  16.718  0.00  0.00    +0.000 C 
BRANCH  21  22
ATOM     22  C   UNL     1       7.190   8.217  17.512  0.00  0.00    +0.000 C 
BRANCH  22  24
ATOM     23  C   UNL     1       8.813   9.943  18.378  0.00  0.00    +0.000 C 
ATOM     24  C   UNL     1       8.460   8.462  18.332  0.00  0.00    +0.000 C 
ENDBRANCH  22  24
ENDBRANCH  21  22
ENDBRANCH   1  21
TORSDOF 8
ENDMDL
MODEL 9
REMARK VINA RESULT:      -6.2      2.304      6.138
REMARK  Name = 
REMARK  12 active torsions:
REMARK  status: ('A' for Active; 'I' for Inactive)
REMARK    1  A    between atoms: C_1  and  C_2
REMARK    2  A    between atoms: C_2  and  C_3
REMARK    3  A    between atoms: C_3  and  C_4
REMARK    4  A    between atoms: C_4  and  N_5
REMARK    5  A    between atoms: C_12  and  C_13
REMARK    6  A    between atoms: C_12  and  N_14
REMARK    7  A    between atoms: N_14  and  C_15
REMARK    8  A    between atoms: C_15  and  C_16
REMARK    9  A    between atoms: C_16  and  C_17
REMARK   10  A    between atoms: C_17  and  N_18
REMARK   11  A    between atoms: N_18  and  C_19
REMARK   12  A    between atoms: N_18  and  C_20
REMARK                            x       y       z     vdW  Elec       q    Type
REMARK                         _______ _______ _______ _____ _____    ______ ____
ROOT
ATOM      1  N   UNL     1       3.253   3.663  18.457  0.00  0.00    +0.000 N 
ATOM      2  C   UNL     1       4.176   2.805  19.018  0.00  0.00    +0.000 C 
ATOM      3  O   UNL     1       3.987   1.605  19.198  0.00  0.00    +0.000 OA
ATOM      4  N   UNL     1       5.361   3.358  19.412  0.00  0.00    +0.000 N 
ATOM      5  C   UNL     1       5.719   4.677  19.339  0.00  0.00    +0.000 C 
ATOM      6  O   UNL     1       6.784   5.062  19.803  0.00  0.00    +0.000 OA
ATOM      7  C   UNL     1       4.705   5.521  18.662  0.00  0.00    +0.000 C 
ATOM      8  C   UNL     1       5.028   6.582  17.885  0.00  0.00    +0.000 C 
ATOM      9  C   UNL     1       3.992   7.381  17.107  0.00  0.00    +0.000 C 
ATOM     10  C   UNL     1       3.320   5.012  18.710  0.00  0.00    +0.000 C 
ATOM     11  O   UNL     1       2.346   5.731  18.949  0.00  0.00    +0.000 OA
ATOM     12  H   UNL     1       6.036   2.736  19.832  0.00  0.00    +0.000 HD
ENDROOT
BRANCH   8  13
ATOM     13  N   UNL     1       6.340   7.011  17.681  0.00  0.00    +0.000 N 
ATOM     14  H   UNL     1       6.548   7.923  18.089  0.00  0.00    +0.000 HD
BRANCH  13  15
ATOM     15  C   UNL     1       7.105   6.735  16.459  0.00  0.00    +0.000 C 
BRANCH  15  16
ATOM     16  C   UNL     1       7.345   5.239  16.268  0.00  0.00    +0.000 C 
BRANCH  16  17
ATOM     17  C   UNL     1       7.186   4.862  14.788  0.00  0.00    +0.000 C 
BRANCH  17  18
ATOM     18  N   UNL     1       6.285   3.720  14.555  0.00  0.00    +0.000 NA
ATOM     19  C   UNL     1       5.130   3.731  15.455  0.00  0.00    +0.000 C 
ATOM     20  C   UNL     1       5.818   3.733  13.163  0.00  0.00    +0.000 C 
ENDBRANCH  17  18
ENDBRANCH  16  17
ENDBRANCH  15  16
ENDBRANCH  13  15
ENDBRANCH   8  13
BRANCH   1  21
ATOM     21  C   UNL     1       2.019   3.132  17.902  0.00  0.00    +0.000 C 
BRANCH  21  22
ATOM     22  C   UNL     1       1.252   2.301  18.947  0.00  0.00    +0.000 C 
BRANCH  22  24
ATOM     23  C   UNL     1       1.400   2.739  21.427  0.00  0.00    +0.000 C 
ATOM     24  C   UNL     1       0.722   3.131  20.120  0.00  0.00    +0.000 C 
ENDBRANCH  22  24
ENDBRANCH  21  22
ENDBRANCH   1  21
TORSDOF 8
ENDMDL
