MODEL 1
REMARK VINA RESULT:      -8.5      0.000      0.000
REMARK  Name = 
REMARK  2 active torsions:
REMARK  status: ('A' for Active; 'I' for Inactive)
REMARK    1  A    between atoms: C_2  and  C_10
REMARK    2  A    between atoms: N_3  and  C_4
REMARK                            x       y       z     vdW  Elec       q    Type
REMARK                         _______ _______ _______ _____ _____    ______ ____
ROOT
ATOM      1  C   UNL     1       2.993   4.636  18.575  0.00  0.00    +0.000 C 
ATOM      2  C   UNL     1       2.905   6.146  18.862  0.00  0.00    +0.000 C 
ATOM      3  C   UNL     1       1.983   6.601  19.994  0.00  0.00    +0.000 C 
ATOM      4  C   UNL     1       1.322   5.560  20.895  0.00  0.00    +0.000 C 
ATOM      5  C   UNL     1       1.680   4.091  20.651  0.00  0.00    +0.000 C 
ATOM      6  C   UNL     1       0.576   3.372  19.837  0.00  0.00    +0.000 C 
ATOM      7  C   UNL     1       1.178   2.838  18.537  0.00  0.00    +0.000 C 
ATOM      8  C   UNL     1       2.262   1.807  18.888  0.00  0.00    +0.000 C 
ATOM      9  C   UNL     1       3.318   2.418  19.804  0.00  0.00    +0.000 C 
ATOM     10  C   UNL     1       3.062   3.922  19.960  0.00  0.00    +0.000 C 
ATOM     11  C   UNL     1       1.763   4.067  17.806  0.00  0.00    +0.000 C 
ENDROOT
BRANCH   1  13
ATOM     12  O   UNL     1       4.107   3.996  16.501  0.00  0.00    +0.000 OA
ATOM     13  C   UNL     1       4.216   4.475  17.627  0.00  0.00    +0.000 C 
ATOM     14  N   UNL     1       5.404   5.000  18.071  0.00  0.00    +0.000 N 
ATOM     15  H   UNL     1       5.373   5.632  18.859  0.00  0.00    +0.000 HD
BRANCH  14  16
ATOM     16  C   UNL     1       6.649   4.920  17.310  0.00  0.00    +0.000 C 
ATOM     17  C   UNL     1       6.802   6.190  16.461  0.00  0.00    +0.000 C 
ATOM     18  C   UNL     1       6.995   7.431  17.336  0.00  0.00    +0.000 C 
ATOM     19  C   UNL     1       8.156   7.278  18.318  0.00  0.00    +0.000 C 
ATOM     20  C   UNL     1       8.114   5.973  19.106  0.00  0.00    +0.000 C 
ATOM     21  C   UNL     1       7.900   4.765  18.194  0.00  0.00    +0.000 C 
ENDBRANCH  14  16
ENDBRANCH   1  13
TORSDOF 2
ENDMDL
MODEL 2
REMARK VINA RESULT:      -8.4      0.972      2.360
REMARK  Name = 
REMARK  2 active torsions:
REMARK  status: ('A' for Active; 'I' for Inactive)
REMARK    1  A    between atoms: C_2  and  C_10
REMARK    2  A    between atoms: N_3  and  C_4
REMARK                            x       y       z     vdW  Elec       q    Type
REMARK                         _______ _______ _______ _____ _____    ______ ____
ROOT
ATOM      1  C   UNL     1       3.351   3.708  19.394  0.00  0.00    +0.000 C 
ATOM      2  C   UNL     1       3.620   2.580  20.407  0.00  0.00    +0.000 C 
ATOM      3  C   UNL     1       2.526   2.268  21.428  0.00  0.00    +0.000 C 
ATOM      4  C   UNL     1       1.165   2.952  21.311  0.00  0.00    +0.000 C 
ATOM      5  C   UNL     1       0.947   3.880  20.113  0.00  0.00    +0.000 C 
ATOM      6  C   UNL     1       1.111   5.366  20.517  0.00  0.00    +0.000 C 
ATOM      7  C   UNL     1       2.239   5.988  19.694  0.00  0.00    +0.000 C 
ATOM      8  C   UNL     1       1.847   5.936  18.209  0.00  0.00    +0.000 C 
ATOM      9  C   UNL     1       1.540   4.506  17.777  0.00  0.00    +0.000 C 
ATOM     10  C   UNL     1       1.877   3.536  18.916  0.00  0.00    +0.000 C 
ATOM     11  C   UNL     1       3.496   5.140  19.990  0.00  0.00    +0.000 C 
ENDROOT
BRANCH   1  13
ATOM     12  O   UNL     1       4.451   2.674  17.477  0.00  0.00    +0.000 OA
ATOM     13  C   UNL     1       4.471   3.564  18.322  0.00  0.00    +0.000 C 
ATOM     14  N   UNL     1       5.422   4.553  18.301  0.00  0.00    +0.000 N 
ATOM     15  H   UNL     1       5.230   5.403  18.813  0.00  0.00    +0.000 HD
BRANCH  14  16
ATOM     16  C   UNL     1       6.548   4.560  17.369  0.00  0.00    +0.000 C 
ATOM     17  C   UNL     1       6.299   5.620  16.287  0.00  0.00    +0.000 C 
ATOM     18  C   UNL     1       6.309   7.034  16.872  0.00  0.00    +0.000 C 
ATOM     19  C   UNL     1       7.587   7.333  17.656  0.00  0.00    +0.000 C 
ATOM     20  C   UNL     1       7.944   6.249  18.666  0.00  0.00    +0.000 C 
ATOM     21  C   UNL     1       7.901   4.853  18.043  0.00  0.00    +0.000 C 
ENDBRANCH  14  16
ENDBRANCH   1  13
TORSDOF 2
ENDMDL
MODEL 3
REMARK VINA RESULT:      -8.3      0.808      2.526
REMARK  Name = 
REMARK  2 active torsions:
REMARK  status: ('A' for Active; 'I' for Inactive)
REMARK    1  A    between atoms: C_2  and  C_10
REMARK    2  A    between atoms: N_3  and  C_4
REMARK                            x       y       z     vdW  Elec       q    Type
REMARK                         _______ _______ _______ _____ _____    ______ ____
ROOT
ATOM      1  C   UNL     1       3.327   3.570  18.254  0.00  0.00    +0.000 C 
ATOM      2  C   UNL     1       2.953   2.092  18.042  0.00  0.00    +0.000 C 
ATOM      3  C   UNL     1       1.616   1.611  18.607  0.00  0.00    +0.000 C 
ATOM      4  C   UNL     1       0.639   2.622  19.203  0.00  0.00    +0.000 C 
ATOM      5  C   UNL     1       1.032   4.101  19.138  0.00  0.00    +0.000 C 
ATOM      6  C   UNL     1       1.601   4.590  20.493  0.00  0.00    +0.000 C 
ATOM      7  C   UNL     1       3.030   5.091  20.285  0.00  0.00    +0.000 C 
ATOM      8  C   UNL     1       2.994   6.287  19.321  0.00  0.00    +0.000 C 
ATOM      9  C   UNL     1       2.320   5.907  18.007  0.00  0.00    +0.000 C 
ATOM     10  C   UNL     1       2.034   4.401  17.987  0.00  0.00    +0.000 C 
ATOM     11  C   UNL     1       3.816   3.898  19.697  0.00  0.00    +0.000 C 
ENDROOT
BRANCH   1  13
ATOM     12  O   UNL     1       4.437   3.770  16.090  0.00  0.00    +0.000 OA
ATOM     13  C   UNL     1       4.541   3.819  17.312  0.00  0.00    +0.000 C 
ATOM     14  N   UNL     1       5.710   4.207  17.918  0.00  0.00    +0.000 N 
ATOM     15  H   UNL     1       5.663   4.513  18.880  0.00  0.00    +0.000 HD
BRANCH  14  16
ATOM     16  C   UNL     1       6.946   4.465  17.181  0.00  0.00    +0.000 C 
ATOM     17  C   UNL     1       6.783   5.754  16.363  0.00  0.00    +0.000 C 
ATOM     18  C   UNL     1       6.643   6.980  17.267  0.00  0.00    +0.000 C 
ATOM     19  C   UNL     1       7.790   7.101  18.270  0.00  0.00    +0.000 C 
ATOM     20  C   UNL     1       8.070   5.809  19.029  0.00  0.00    +0.000 C 
ATOM     21  C   UNL     1       8.182   4.609  18.087  0.00  0.00    +0.000 C 
ENDBRANCH  14  16
ENDBRANCH   1  13
TORSDOF 2
ENDMDL
MODEL 4
REMARK VINA RESULT:      -7.9      1.605      2.554
REMARK  Name = 
REMARK  2 active torsions:
REMARK  status: ('A' for Active; 'I' for Inactive)
REMARK    1  A    between atoms: C_2  and  C_10
REMARK    2  A    between atoms: N_3  and  C_4
REMARK                            x       y       z     vdW  Elec       q    Type
REMARK                         _______ _______ _______ _____ _____    ______ ____
ROOT
ATOM      1  C   UNL     1       3.254   4.353  19.204  0.00  0.00    +0.000 C 
ATOM      2  C   UNL     1       2.516   5.418  20.036  0.00  0.00    +0.000 C 
ATOM      3  C   UNL     1       1.266   4.981  20.800  0.00  0.00    +0.000 C 
ATOM      4  C   UNL     1       0.890   3.501  20.850  0.00  0.00    +0.000 C 
ATOM      5  C   UNL     1       1.843   2.511  20.175  0.00  0.00    +0.000 C 
ATOM      6  C   UNL     1       1.321   2.092  18.778  0.00  0.00    +0.000 C 
ATOM      7  C   UNL     1       2.354   2.479  17.720  0.00  0.00    +0.000 C 
ATOM      8  C   UNL     1       3.652   1.704  17.998  0.00  0.00    +0.000 C 
ATOM      9  C   UNL     1       4.151   1.970  19.414  0.00  0.00    +0.000 C 
ATOM     10  C   UNL     1       3.294   3.058  20.071  0.00  0.00    +0.000 C 
ATOM     11  C   UNL     1       2.550   4.005  17.858  0.00  0.00    +0.000 C 
ENDROOT
BRANCH   1  13
ATOM     12  O   UNL     1       5.455   5.293  19.680  0.00  0.00    +0.000 OA
ATOM     13  C   UNL     1       4.617   5.005  18.830  0.00  0.00    +0.000 C 
ATOM     14  N   UNL     1       4.880   5.138  17.490  0.00  0.00    +0.000 N 
ATOM     15  H   UNL     1       4.297   4.626  16.842  0.00  0.00    +0.000 HD
BRANCH  14  16
ATOM     16  C   UNL     1       6.105   5.743  16.970  0.00  0.00    +0.000 C 
ATOM     17  C   UNL     1       7.137   4.638  16.704  0.00  0.00    +0.000 C 
ATOM     18  C   UNL     1       6.688   3.711  15.572  0.00  0.00    +0.000 C 
ATOM     19  C   UNL     1       6.348   4.474  14.292  0.00  0.00    +0.000 C 
ATOM     20  C   UNL     1       5.415   5.657  14.521  0.00  0.00    +0.000 C 
ATOM     21  C   UNL     1       5.893   6.543  15.672  0.00  0.00    +0.000 C 
ENDBRANCH  14  16
ENDBRANCH   1  13
TORSDOF 2
ENDMDL
MODEL 5
REMARK VINA RESULT:      -7.8      1.489      2.439
REMARK  Name = 
REMARK  2 active torsions:
REMARK  status: ('A' for Active; 'I' for Inactive)
REMARK    1  A    between atoms: C_2  and  C_10
REMARK    2  A    between atoms: N_3  and  C_4
REMARK                            x       y       z     vdW  Elec       q    Type
REMARK                         _______ _______ _______ _____ _____    ______ ____
ROOT
ATOM      1  C   UNL     1       2.785   4.738  19.083  0.00  0.00    +0.000 C 
ATOM      2  C   UNL     1       2.549   5.412  20.446  0.00  0.00    +0.000 C 
ATOM      3  C   UNL     1       2.127   4.520  21.615  0.00  0.00    +0.000 C 
ATOM      4  C   UNL     1       2.115   3.003  21.441  0.00  0.00    +0.000 C 
ATOM      5  C   UNL     1       2.601   2.445  20.101  0.00  0.00    +0.000 C 
ATOM      6  C   UNL     1       1.411   2.067  19.185  0.00  0.00    +0.000 C 
ATOM      7  C   UNL     1       1.493   2.882  17.894  0.00  0.00    +0.000 C 
ATOM      8  C   UNL     1       2.794   2.513  17.165  0.00  0.00    +0.000 C 
ATOM      9  C   UNL     1       4.005   2.736  18.065  0.00  0.00    +0.000 C 
ATOM     10  C   UNL     1       3.565   3.418  19.366  0.00  0.00    +0.000 C 
ATOM     11  C   UNL     1       1.474   4.365  18.328  0.00  0.00    +0.000 C 
ENDROOT
BRANCH   1  13
ATOM     12  O   UNL     1       2.937   6.860  17.887  0.00  0.00    +0.000 OA
ATOM     13  C   UNL     1       3.497   5.818  18.216  0.00  0.00    +0.000 C 
ATOM     14  N   UNL     1       4.822   5.594  17.935  0.00  0.00    +0.000 N 
ATOM     15  H   UNL     1       5.303   4.884  18.469  0.00  0.00    +0.000 HD
BRANCH  14  16
ATOM     16  C   UNL     1       5.631   6.501  17.123  0.00  0.00    +0.000 C 
ATOM     17  C   UNL     1       7.114   6.141  17.294  0.00  0.00    +0.000 C 
ATOM     18  C   UNL     1       7.428   4.761  16.711  0.00  0.00    +0.000 C 
ATOM     19  C   UNL     1       6.989   4.629  15.253  0.00  0.00    +0.000 C 
ATOM     20  C   UNL     1       5.555   5.086  15.008  0.00  0.00    +0.000 C 
ATOM     21  C   UNL     1       5.283   6.459  15.624  0.00  0.00    +0.000 C 
ENDBRANCH  14  16
ENDBRANCH   1  13
TORSDOF 2
ENDMDL
MODEL 6
REMARK VINA RESULT:      -7.8      1.607      5.862
REMARK  Name = 
REMARK  2 active torsions:
REMARK  status: ('A' for Active; 'I' for Inactive)
REMARK    1  A    between atoms: C_2  and  C_10
REMARK    2  A    between atoms: N_3  and  C_4
REMARK                            x       y       z     vdW  Elec       q    Type
REMARK                         _______ _______ _______ _____ _____    ______ ____
ROOT
ATOM      1  C   UNL     1       5.062   5.330  17.930  0.00  0.00    +0.000 C 
ATOM      2  C   UNL     1       5.665   5.377  19.346  0.00  0.00    +0.000 C 
ATOM      3  C   UNL     1       7.167   5.635  19.469  0.00  0.00    +0.000 C 
ATOM      4  C   UNL     1       7.976   5.998  18.225  0.00  0.00    +0.000 C 
ATOM      5  C   UNL     1       7.209   6.151  16.908  0.00  0.00    +0.000 C 
ATOM      6  C   UNL     1       7.345   4.884  16.028  0.00  0.00    +0.000 C 
ATOM      7  C   UNL     1       5.956   4.300  15.770  0.00  0.00    +0.000 C 
ATOM      8  C   UNL     1       5.128   5.336  14.993  0.00  0.00    +0.000 C 
ATOM      9  C   UNL     1       5.065   6.660  15.748  0.00  0.00    +0.000 C 
ATOM     10  C   UNL     1       5.710   6.500  17.130  0.00  0.00    +0.000 C 
ATOM     11  C   UNL     1       5.355   4.006  17.163  0.00  0.00    +0.000 C 
ENDROOT
BRANCH   1  13
ATOM     12  O   UNL     1       2.871   6.403  17.955  0.00  0.00    +0.000 OA
ATOM     13  C   UNL     1       3.521   5.379  18.146  0.00  0.00    +0.000 C 
ATOM     14  N   UNL     1       2.911   4.188  18.451  0.00  0.00    +0.000 N 
ATOM     15  H   UNL     1       3.439   3.338  18.307  0.00  0.00    +0.000 HD
BRANCH  14  16
ATOM     16  C   UNL     1       1.476   4.064  18.699  0.00  0.00    +0.000 C 
ATOM     17  C   UNL     1       1.091   2.578  18.689  0.00  0.00    +0.000 C 
ATOM     18  C   UNL     1       1.723   1.825  19.862  0.00  0.00    +0.000 C 
ATOM     19  C   UNL     1       1.405   2.471  21.210  0.00  0.00    +0.000 C 
ATOM     20  C   UNL     1       1.661   3.974  21.237  0.00  0.00    +0.000 C 
ATOM     21  C   UNL     1       1.029   4.680  20.037  0.00  0.00    +0.000 C 
ENDBRANCH  14  16
ENDBRANCH   1  13
TORSDOF 2
ENDMDL
MODEL 7
REMARK VINA RESULT:      -7.6      1.615      3.246
REMARK  Name = 
REMARK  2 active torsions:
REMARK  status: ('A' for Active; 'I' for Inactive)
REMARK    1  A    between atoms: C_2  and  C_10
REMARK    2  A    between atoms: N_3  and  C_4
REMARK                            x       y       z     vdW  Elec       q    Type
REMARK                         _______ _______ _______ _____ _____    ______ ____
ROOT
ATOM      1  C   UNL     1       3.383   3.362  19.249  0.00  0.00    +0.000 C 
ATOM      2  C   UNL     1       3.283   2.348  18.096  0.00  0.00    +0.000 C 
ATOM      3  C   UNL     1       1.927   1.685  17.849  0.00  0.00    +0.000 C 
ATOM      4  C   UNL     1       0.701   2.162  18.626  0.00  0.00    +0.000 C 
ATOM      5  C   UNL     1       0.889   3.346  19.578  0.00  0.00    +0.000 C 
ATOM      6  C   UNL     1       1.024   2.870  21.046  0.00  0.00    +0.000 C 
ATOM      7  C   UNL     1       2.376   3.323  21.597  0.00  0.00    +0.000 C 
ATOM      8  C   UNL     1       2.418   4.859  21.586  0.00  0.00    +0.000 C 
ATOM      9  C   UNL     1       2.157   5.401  20.185  0.00  0.00    +0.000 C 
ATOM     10  C   UNL     1       2.096   4.242  19.183  0.00  0.00    +0.000 C 
ATOM     11  C   UNL     1       3.442   2.708  20.662  0.00  0.00    +0.000 C 
ENDROOT
BRANCH   1  13
ATOM     12  O   UNL     1       5.681   3.942  19.827  0.00  0.00    +0.000 OA
ATOM     13  C   UNL     1       4.749   4.078  19.040  0.00  0.00    +0.000 C 
ATOM     14  N   UNL     1       4.894   4.781  17.870  0.00  0.00    +0.000 N 
ATOM     15  H   UNL     1       4.218   4.619  17.137  0.00  0.00    +0.000 HD
BRANCH  14  16
ATOM     16  C   UNL     1       6.107   5.521  17.526  0.00  0.00    +0.000 C 
ATOM     17  C   UNL     1       7.130   4.555  16.914  0.00  0.00    +0.000 C 
ATOM     18  C   UNL     1       6.650   4.008  15.567  0.00  0.00    +0.000 C 
ATOM     19  C   UNL     1       6.279   5.119  14.585  0.00  0.00    +0.000 C 
ATOM     20  C   UNL     1       5.354   6.172  15.183  0.00  0.00    +0.000 C 
ATOM     21  C   UNL     1       5.862   6.673  16.535  0.00  0.00    +0.000 C 
ENDBRANCH  14  16
ENDBRANCH   1  13
TORSDOF 2
ENDMDL
MODEL 8
REMARK VINA RESULT:      -7.4      1.469      3.173
REMARK  Name = 
REMARK  2 active torsions:
REMARK  status: ('A' for Active; 'I' for Inactive)
REMARK    1  A    between atoms: C_2  and  C_10
REMARK    2  A    between atoms: N_3  and  C_4
REMARK                            x       y       z     vdW  Elec       q    Type
REMARK                         _______ _______ _______ _____ _____    ______ ____
ROOT
ATOM      1  C   UNL     1       3.445   3.508  19.086  0.00  0.00    +0.000 C 
ATOM      2  C   UNL     1       3.382   2.005  18.759  0.00  0.00    +0.000 C 
ATOM      3  C   UNL     1       2.006   1.338  18.755  0.00  0.00    +0.000 C 
ATOM      4  C   UNL     1       0.750   2.194  18.905  0.00  0.00    +0.000 C 
ATOM      5  C   UNL     1       0.940   3.711  18.986  0.00  0.00    +0.000 C 
ATOM      6  C   UNL     1       0.861   4.210  20.450  0.00  0.00    +0.000 C 
ATOM      7  C   UNL     1       2.178   4.893  20.819  0.00  0.00    +0.000 C 
ATOM      8  C   UNL     1       2.367   6.115  19.907  0.00  0.00    +0.000 C 
ATOM      9  C   UNL     1       2.321   5.709  18.437  0.00  0.00    +0.000 C 
ATOM     10  C   UNL     1       2.265   4.182  18.322  0.00  0.00    +0.000 C 
ATOM     11  C   UNL     1       3.280   3.832  20.602  0.00  0.00    +0.000 C 
ENDROOT
BRANCH   1  13
ATOM     12  O   UNL     1       5.721   4.259  19.546  0.00  0.00    +0.000 OA
ATOM     13  C   UNL     1       4.888   3.945  18.700  0.00  0.00    +0.000 C 
ATOM     14  N   UNL     1       5.216   3.851  17.370  0.00  0.00    +0.000 N 
ATOM     15  H   UNL     1       4.604   3.316  16.771  0.00  0.00    +0.000 HD
BRANCH  14  16
ATOM     16  C   UNL     1       6.523   4.234  16.839  0.00  0.00    +0.000 C 
ATOM     17  C   UNL     1       6.572   3.910  15.340  0.00  0.00    +0.000 C 
ATOM     18  C   UNL     1       5.593   4.777  14.545  0.00  0.00    +0.000 C 
ATOM     19  C   UNL     1       5.799   6.271  14.796  0.00  0.00    +0.000 C 
ATOM     20  C   UNL     1       5.876   6.631  16.275  0.00  0.00    +0.000 C 
ATOM     21  C   UNL     1       6.849   5.727  17.031  0.00  0.00    +0.000 C 
ENDBRANCH  14  16
ENDBRANCH   1  13
TORSDOF 2
ENDMDL
MODEL 9
REMARK VINA RESULT:      -7.1      1.577      6.052
REMARK  Name = 
REMARK  2 active torsions:
REMARK  status: ('A' for Active; 'I' for Inactive)
REMARK    1  A    between atoms: C_2  and  C_10
REMARK    2  A    between atoms: N_3  and  C_4
REMARK                            x       y       z     vdW  Elec       q    Type
REMARK                         _______ _______ _______ _____ _____    ______ ____
ROOT
ATOM      1  C   UNL     1       5.536   4.539  17.411  0.00  0.00    +0.000 C 
ATOM      2  C   UNL     1       4.723   4.011  16.215  0.00  0.00    +0.000 C 
ATOM      3  C   UNL     1       5.204   4.378  14.811  0.00  0.00    +0.000 C 
ATOM      4  C   UNL     1       6.539   5.099  14.635  0.00  0.00    +0.000 C 
ATOM      5  C   UNL     1       7.369   5.359  15.895  0.00  0.00    +0.000 C 
ATOM      6  C   UNL     1       7.204   6.819  16.385  0.00  0.00    +0.000 C 
ATOM      7  C   UNL     1       6.636   6.810  17.805  0.00  0.00    +0.000 C 
ATOM      8  C   UNL     1       7.642   6.107  18.728  0.00  0.00    +0.000 C 
ATOM      9  C   UNL     1       7.953   4.701  18.224  0.00  0.00    +0.000 C 
ATOM     10  C   UNL     1       7.041   4.361  17.041  0.00  0.00    +0.000 C 
ATOM     11  C   UNL     1       5.296   6.047  17.720  0.00  0.00    +0.000 C 
ENDROOT
BRANCH   1  13
ATOM     12  O   UNL     1       5.600   3.742  19.716  0.00  0.00    +0.000 OA
ATOM     13  C   UNL     1       5.005   3.749  18.642  0.00  0.00    +0.000 C 
ATOM     14  N   UNL     1       3.777   3.153  18.498  0.00  0.00    +0.000 N 
ATOM     15  H   UNL     1       3.207   3.432  17.712  0.00  0.00    +0.000 HD
BRANCH  14  16
ATOM     16  C   UNL     1       3.143   2.362  19.552  0.00  0.00    +0.000 C 
ATOM     17  C   UNL     1       3.006   3.225  20.814  0.00  0.00    +0.000 C 
ATOM     18  C   UNL     1       2.030   4.384  20.600  0.00  0.00    +0.000 C 
ATOM     19  C   UNL     1       0.665   3.914  20.099  0.00  0.00    +0.000 C 
ATOM     20  C   UNL     1       0.751   2.958  18.914  0.00  0.00    +0.000 C 
ATOM     21  C   UNL     1       1.751   1.829  19.165  0.00  0.00    +0.000 C 
ENDBRANCH  14  16
ENDBRANCH   1  13
TORSDOF 2
ENDMDL
