MODEL 1
REMARK VINA RESULT:      -7.3      0.000      0.000
REMARK  Name = 
REMARK  4 active torsions:
REMARK  status: ('A' for Active; 'I' for Inactive)
REMARK    1  A    between atoms: C_2  and  C_3
REMARK    2  A    between atoms: C_3  and  N_4
REMARK    3  A    between atoms: N_4  and  C_5
REMARK    4  A    between atoms: C_16  and  C_17
REMARK                            x       y       z     vdW  Elec       q    Type
REMARK                         _______ _______ _______ _____ _____    ______ ____
ROOT
ATOM      1  O   UNL     1       5.357   3.539  15.787  0.00  0.00    +0.000 OA
ATOM      2  C   UNL     1       5.278   4.165  16.849  0.00  0.00    +0.000 C 
ATOM      3  N   UNL     1       4.056   4.403  17.471  0.00  0.00    +0.000 N 
ATOM      4  C   UNL     1       2.835   3.841  16.863  0.00  0.00    +0.000 C 
ATOM      5  C   UNL     1       2.198   2.741  17.735  0.00  0.00    +0.000 C 
ATOM      6  C   UNL     1       2.275   3.122  19.183  0.00  0.00    +0.000 A 
ATOM      7  S   UNL     1       1.393   2.317  20.391  0.00  0.00    +0.000 S 
ATOM      8  C   UNL     1       2.067   3.306  21.616  0.00  0.00    +0.000 A 
ATOM      9  C   UNL     1       2.956   4.227  21.107  0.00  0.00    +0.000 A 
ATOM     10  C   UNL     1       3.061   4.146  19.681  0.00  0.00    +0.000 A 
ATOM     11  C   UNL     1       3.895   5.038  18.793  0.00  0.00    +0.000 C 
ENDROOT
BRANCH  11  12
ATOM     12  C   UNL     1       3.207   6.405  18.732  0.00  0.00    +0.000 A 
ATOM     13  C   UNL     1       2.355   6.784  19.785  0.00  0.00    +0.000 A 
ATOM     14  C   UNL     1       1.657   7.995  19.752  0.00  0.00    +0.000 A 
ATOM     15  C   UNL     1       1.802   8.853  18.667  0.00  0.00    +0.000 A 
ATOM     16 CL   UNL     1       0.906  10.319  18.600  0.00  0.00    +0.000 Cl
ATOM     17  C   UNL     1       2.665   8.525  17.631  0.00  0.00    +0.000 A 
ATOM     18  C   UNL     1       3.372   7.319  17.669  0.00  0.00    +0.000 A 
ENDBRANCH  11  12
BRANCH   2  19
ATOM     19  C   UNL     1       6.560   4.664  17.547  0.00  0.00    +0.000 C 
BRANCH  19  20
ATOM     20  N   UNL     1       7.093   5.896  16.934  0.00  0.00    +0.000 NA
ATOM     21  H   UNL     1       6.520   6.099  16.110  0.00  0.00    +0.000 HD
BRANCH  20  22
ATOM     22  C   UNL     1       7.055   7.052  17.839  0.00  0.00    +0.000 C 
ATOM     23  C   UNL     1       8.257   7.431  18.659  0.00  0.00    +0.000 C 
ATOM     24  C   UNL     1       7.860   8.271  17.483  0.00  0.00    +0.000 C 
ENDBRANCH  20  22
ENDBRANCH  19  20
ENDBRANCH   2  19
TORSDOF 4
ENDMDL
MODEL 2
REMARK VINA RESULT:      -7.2      0.517      1.191
REMARK  Name = 
REMARK  4 active torsions:
REMARK  status: ('A' for Active; 'I' for Inactive)
REMARK    1  A    between atoms: C_2  and  C_3
REMARK    2  A    between atoms: C_3  and  N_4
REMARK    3  A    between atoms: N_4  and  C_5
REMARK    4  A    between atoms: C_16  and  C_17
REMARK                            x       y       z     vdW  Elec       q    Type
REMARK                         _______ _______ _______ _____ _____    ______ ____
ROOT
ATOM      1  O   UNL     1       5.560   3.757  16.301  0.00  0.00    +0.000 OA
ATOM      2  C   UNL     1       5.320   4.338  17.364  0.00  0.00    +0.000 C 
ATOM      3  N   UNL     1       4.020   4.506  17.831  0.00  0.00    +0.000 N 
ATOM      4  C   UNL     1       2.911   3.923  17.052  0.00  0.00    +0.000 C 
ATOM      5  C   UNL     1       2.215   2.766  17.797  0.00  0.00    +0.000 C 
ATOM      6  C   UNL     1       2.090   3.095  19.254  0.00  0.00    +0.000 A 
ATOM      7  S   UNL     1       1.095   2.211  20.311  0.00  0.00    +0.000 S 
ATOM      8  C   UNL     1       1.566   3.176  21.645  0.00  0.00    +0.000 A 
ATOM      9  C   UNL     1       2.473   4.149  21.286  0.00  0.00    +0.000 A 
ATOM     10  C   UNL     1       2.762   4.126  19.884  0.00  0.00    +0.000 A 
ATOM     11  C   UNL     1       3.664   5.083  19.141  0.00  0.00    +0.000 C 
ENDROOT
BRANCH  11  12
ATOM     12  C   UNL     1       2.934   6.425  19.038  0.00  0.00    +0.000 A 
ATOM     13  C   UNL     1       3.019   7.154  17.838  0.00  0.00    +0.000 A 
ATOM     14  C   UNL     1       2.420   8.412  17.710  0.00  0.00    +0.000 A 
ATOM     15  C   UNL     1       1.720   8.961  18.780  0.00  0.00    +0.000 A 
ATOM     16 CL   UNL     1       1.026  10.528  18.642  0.00  0.00    +0.000 Cl
ATOM     17  C   UNL     1       1.586   8.249  19.964  0.00  0.00    +0.000 A 
ATOM     18  C   UNL     1       2.176   6.987  20.088  0.00  0.00    +0.000 A 
ENDBRANCH  11  12
BRANCH   2  19
ATOM     19  C   UNL     1       6.480   4.857  18.238  0.00  0.00    +0.000 C 
BRANCH  19  20
ATOM     20  N   UNL     1       7.624   5.330  17.435  0.00  0.00    +0.000 NA
ATOM     21  H   UNL     1       7.728   4.687  16.645  0.00  0.00    +0.000 HD
BRANCH  20  22
ATOM     22  C   UNL     1       7.440   6.694  16.919  0.00  0.00    +0.000 C 
ATOM     23  C   UNL     1       6.475   7.643  17.572  0.00  0.00    +0.000 C 
ATOM     24  C   UNL     1       7.950   7.847  17.737  0.00  0.00    +0.000 C 
ENDBRANCH  20  22
ENDBRANCH  19  20
ENDBRANCH   2  19
TORSDOF 4
ENDMDL
MODEL 3
REMARK VINA RESULT:      -7.1      2.715      5.179
REMARK  Name = 
REMARK  4 active torsions:
REMARK  status: ('A' for Active; 'I' for Inactive)
REMARK    1  A    between atoms: C_2  and  C_3
REMARK    2  A    between atoms: C_3  and  N_4
REMARK    3  A    between atoms: N_4  and  C_5
REMARK    4  A    between atoms: C_16  and  C_17
REMARK                            x       y       z     vdW  Elec       q    Type
REMARK                         _______ _______ _______ _____ _____    ______ ____
ROOT
ATOM      1  O   UNL     1       5.192   2.178  20.231  0.00  0.00    +0.000 OA
ATOM      2  C   UNL     1       4.562   2.587  19.251  0.00  0.00    +0.000 C 
ATOM      3  N   UNL     1       4.912   3.762  18.592  0.00  0.00    +0.000 N 
ATOM      4  C   UNL     1       6.103   4.501  19.054  0.00  0.00    +0.000 C 
ATOM      5  C   UNL     1       7.244   4.481  18.018  0.00  0.00    +0.000 C 
ATOM      6  C   UNL     1       6.687   4.635  16.635  0.00  0.00    +0.000 A 
ATOM      7  S   UNL     1       7.662   4.984  15.287  0.00  0.00    +0.000 S 
ATOM      8  C   UNL     1       6.312   4.942  14.235  0.00  0.00    +0.000 A 
ATOM      9  C   UNL     1       5.142   4.659  14.904  0.00  0.00    +0.000 A 
ATOM     10  C   UNL     1       5.348   4.507  16.313  0.00  0.00    +0.000 A 
ATOM     11  C   UNL     1       4.281   4.250  17.351  0.00  0.00    +0.000 C 
ENDROOT
BRANCH  11  12
ATOM     12  C   UNL     1       3.493   5.550  17.537  0.00  0.00    +0.000 A 
ATOM     13  C   UNL     1       4.138   6.776  17.293  0.00  0.00    +0.000 A 
ATOM     14  C   UNL     1       3.483   7.994  17.504  0.00  0.00    +0.000 A 
ATOM     15  C   UNL     1       2.169   8.007  17.960  0.00  0.00    +0.000 A 
ATOM     16 CL   UNL     1       1.379   9.502  18.269  0.00  0.00    +0.000 Cl
ATOM     17  C   UNL     1       1.494   6.813  18.174  0.00  0.00    +0.000 A 
ATOM     18  C   UNL     1       2.145   5.596  17.952  0.00  0.00    +0.000 A 
ENDBRANCH  11  12
BRANCH   2  19
ATOM     19  C   UNL     1       3.381   1.765  18.695  0.00  0.00    +0.000 C 
BRANCH  19  20
ATOM     20  N   UNL     1       2.095   2.132  19.320  0.00  0.00    +0.000 NA
ATOM     21  H   UNL     1       1.630   1.261  19.594  0.00  0.00    +0.000 HD
BRANCH  20  22
ATOM     22  C   UNL     1       2.254   2.983  20.507  0.00  0.00    +0.000 C 
ATOM     23  C   UNL     1       1.182   3.957  20.908  0.00  0.00    +0.000 C 
ATOM     24  C   UNL     1       1.394   2.709  21.709  0.00  0.00    +0.000 C 
ENDBRANCH  20  22
ENDBRANCH  19  20
ENDBRANCH   2  19
TORSDOF 4
ENDMDL
MODEL 4
REMARK VINA RESULT:      -7.1      2.705      5.144
REMARK  Name = 
REMARK  4 active torsions:
REMARK  status: ('A' for Active; 'I' for Inactive)
REMARK    1  A    between atoms: C_2  and  C_3
REMARK    2  A    between atoms: C_3  and  N_4
REMARK    3  A    between atoms: N_4  and  C_5
REMARK    4  A    between atoms: C_16  and  C_17
REMARK                            x       y       z     vdW  Elec       q    Type
REMARK                         _______ _______ _______ _____ _____    ______ ____
ROOT
ATOM      1  O   UNL     1       5.202   2.250  20.103  0.00  0.00    +0.000 OA
ATOM      2  C   UNL     1       4.563   2.714  19.154  0.00  0.00    +0.000 C 
ATOM      3  N   UNL     1       4.960   3.877  18.501  0.00  0.00    +0.000 N 
ATOM      4  C   UNL     1       6.208   4.536  18.932  0.00  0.00    +0.000 C 
ATOM      5  C   UNL     1       7.309   4.468  17.856  0.00  0.00    +0.000 C 
ATOM      6  C   UNL     1       6.715   4.680  16.496  0.00  0.00    +0.000 A 
ATOM      7  S   UNL     1       7.661   4.994  15.120  0.00  0.00    +0.000 S 
ATOM      8  C   UNL     1       6.275   5.052  14.116  0.00  0.00    +0.000 A 
ATOM      9  C   UNL     1       5.114   4.826  14.822  0.00  0.00    +0.000 A 
ATOM     10  C   UNL     1       5.360   4.637  16.220  0.00  0.00    +0.000 A 
ATOM     11  C   UNL     1       4.316   4.424  17.291  0.00  0.00    +0.000 C 
ENDROOT
BRANCH  11  12
ATOM     12  C   UNL     1       3.614   5.765  17.527  0.00  0.00    +0.000 A 
ATOM     13  C   UNL     1       2.297   5.763  18.021  0.00  0.00    +0.000 A 
ATOM     14  C   UNL     1       1.588   6.956  18.199  0.00  0.00    +0.000 A 
ATOM     15  C   UNL     1       2.187   8.173  17.890  0.00  0.00    +0.000 A 
ATOM     16 CL   UNL     1       1.301   9.637  18.060  0.00  0.00    +0.000 Cl
ATOM     17  C   UNL     1       3.498   8.210  17.437  0.00  0.00    +0.000 A 
ATOM     18  C   UNL     1       4.210   7.018  17.270  0.00  0.00    +0.000 A 
ENDBRANCH  11  12
BRANCH   2  19
ATOM     19  C   UNL     1       3.317   1.973  18.627  0.00  0.00    +0.000 C 
BRANCH  19  20
ATOM     20  N   UNL     1       2.262   1.846  19.652  0.00  0.00    +0.000 NA
ATOM     21  H   UNL     1       2.478   1.014  20.210  0.00  0.00    +0.000 HD
BRANCH  20  22
ATOM     22  C   UNL     1       2.182   3.011  20.542  0.00  0.00    +0.000 C 
ATOM     23  C   UNL     1       0.926   3.832  20.629  0.00  0.00    +0.000 C 
ATOM     24  C   UNL     1       1.305   2.926  21.761  0.00  0.00    +0.000 C 
ENDBRANCH  20  22
ENDBRANCH  19  20
ENDBRANCH   2  19
TORSDOF 4
ENDMDL
MODEL 5
REMARK VINA RESULT:      -6.5      1.061      1.625
REMARK  Name = 
REMARK  4 active torsions:
REMARK  status: ('A' for Active; 'I' for Inactive)
REMARK    1  A    between atoms: C_2  and  C_3
REMARK    2  A    between atoms: C_3  and  N_4
REMARK    3  A    between atoms: N_4  and  C_5
REMARK    4  A    between atoms: C_16  and  C_17
REMARK                            x       y       z     vdW  Elec       q    Type
REMARK                         _______ _______ _______ _____ _____    ______ ____
ROOT
ATOM      1  O   UNL     1       4.401   4.420  15.654  0.00  0.00    +0.000 OA
ATOM      2  C   UNL     1       4.443   4.963  16.763  0.00  0.00    +0.000 C 
ATOM      3  N   UNL     1       3.324   5.031  17.588  0.00  0.00    +0.000 N 
ATOM      4  C   UNL     1       2.075   4.388  17.136  0.00  0.00    +0.000 C 
ATOM      5  C   UNL     1       1.694   3.173  18.005  0.00  0.00    +0.000 C 
ATOM      6  C   UNL     1       1.974   3.464  19.448  0.00  0.00    +0.000 A 
ATOM      7  S   UNL     1       1.380   2.493  20.711  0.00  0.00    +0.000 S 
ATOM      8  C   UNL     1       2.156   3.463  21.890  0.00  0.00    +0.000 A 
ATOM      9  C   UNL     1       2.860   4.502  21.325  0.00  0.00    +0.000 A 
ATOM     10  C   UNL     1       2.735   4.527  19.898  0.00  0.00    +0.000 A 
ATOM     11  C   UNL     1       3.326   5.558  18.966  0.00  0.00    +0.000 C 
ENDROOT
BRANCH  11  12
ATOM     12  C   UNL     1       2.517   6.848  19.127  0.00  0.00    +0.000 A 
ATOM     13  C   UNL     1       2.418   7.728  18.034  0.00  0.00    +0.000 A 
ATOM     14  C   UNL     1       1.741   8.947  18.145  0.00  0.00    +0.000 A 
ATOM     15  C   UNL     1       1.147   9.306  19.350  0.00  0.00    +0.000 A 
ATOM     16 CL   UNL     1       0.358  10.825  19.504  0.00  0.00    +0.000 Cl
ATOM     17  C   UNL     1       1.195   8.442  20.435  0.00  0.00    +0.000 A 
ATOM     18  C   UNL     1       1.862   7.218  20.321  0.00  0.00    +0.000 A 
ENDBRANCH  11  12
BRANCH   2  19
ATOM     19  C   UNL     1       5.772   5.543  17.288  0.00  0.00    +0.000 C 
BRANCH  19  20
ATOM     20  N   UNL     1       6.705   4.494  17.742  0.00  0.00    +0.000 NA
ATOM     21  H   UNL     1       6.981   3.953  16.917  0.00  0.00    +0.000 HD
BRANCH  20  22
ATOM     22  C   UNL     1       7.911   5.035  18.384  0.00  0.00    +0.000 C 
ATOM     23  C   UNL     1       8.012   6.493  18.734  0.00  0.00    +0.000 C 
ATOM     24  C   UNL     1       7.826   5.475  19.818  0.00  0.00    +0.000 C 
ENDBRANCH  20  22
ENDBRANCH  19  20
ENDBRANCH   2  19
TORSDOF 4
ENDMDL
MODEL 6
REMARK VINA RESULT:      -6.5      1.253      1.808
REMARK  Name = 
REMARK  4 active torsions:
REMARK  status: ('A' for Active; 'I' for Inactive)
REMARK    1  A    between atoms: C_2  and  C_3
REMARK    2  A    between atoms: C_3  and  N_4
REMARK    3  A    between atoms: N_4  and  C_5
REMARK    4  A    between atoms: C_16  and  C_17
REMARK                            x       y       z     vdW  Elec       q    Type
REMARK                         _______ _______ _______ _____ _____    ______ ____
ROOT
ATOM      1  O   UNL     1       7.548   4.443  16.828  0.00  0.00    +0.000 OA
ATOM      2  C   UNL     1       6.861   4.767  17.802  0.00  0.00    +0.000 C 
ATOM      3  N   UNL     1       5.471   4.695  17.775  0.00  0.00    +0.000 N 
ATOM      4  C   UNL     1       4.816   4.167  16.563  0.00  0.00    +0.000 C 
ATOM      5  C   UNL     1       4.118   2.815  16.816  0.00  0.00    +0.000 C 
ATOM      6  C   UNL     1       3.447   2.825  18.156  0.00  0.00    +0.000 A 
ATOM      7  S   UNL     1       2.319   1.643  18.625  0.00  0.00    +0.000 S 
ATOM      8  C   UNL     1       2.129   2.363  20.167  0.00  0.00    +0.000 A 
ATOM      9  C   UNL     1       2.920   3.480  20.319  0.00  0.00    +0.000 A 
ATOM     10  C   UNL     1       3.672   3.774  19.137  0.00  0.00    +0.000 A 
ATOM     11  C   UNL     1       4.594   4.953  18.933  0.00  0.00    +0.000 C 
ENDROOT
BRANCH  11  12
ATOM     12  C   UNL     1       3.721   6.202  18.770  0.00  0.00    +0.000 A 
ATOM     13  C   UNL     1       3.916   7.024  17.646  0.00  0.00    +0.000 A 
ATOM     14  C   UNL     1       3.187   8.206  17.479  0.00  0.00    +0.000 A 
ATOM     15  C   UNL     1       2.248   8.585  18.431  0.00  0.00    +0.000 A 
ATOM     16 CL   UNL     1       1.387  10.063  18.254  0.00  0.00    +0.000 Cl
ATOM     17  C   UNL     1       2.006   7.775  19.532  0.00  0.00    +0.000 A 
ATOM     18  C   UNL     1       2.726   6.587  19.694  0.00  0.00    +0.000 A 
ENDBRANCH  11  12
BRANCH   2  19
ATOM     19  C   UNL     1       7.542   5.220  19.110  0.00  0.00    +0.000 C 
BRANCH  19  20
ATOM     20  N   UNL     1       7.544   6.687  19.266  0.00  0.00    +0.000 NA
ATOM     21  H   UNL     1       8.114   6.905  20.089  0.00  0.00    +0.000 HD
BRANCH  20  22
ATOM     22  C   UNL     1       8.100   7.389  18.101  0.00  0.00    +0.000 C 
ATOM     23  C   UNL     1       7.289   8.410  17.354  0.00  0.00    +0.000 C 
ATOM     24  C   UNL     1       8.423   8.851  18.229  0.00  0.00    +0.000 C 
ENDBRANCH  20  22
ENDBRANCH  19  20
ENDBRANCH   2  19
TORSDOF 4
ENDMDL
MODEL 7
REMARK VINA RESULT:      -6.5      1.561      2.257
REMARK  Name = 
REMARK  4 active torsions:
REMARK  status: ('A' for Active; 'I' for Inactive)
REMARK    1  A    between atoms: C_2  and  C_3
REMARK    2  A    between atoms: C_3  and  N_4
REMARK    3  A    between atoms: N_4  and  C_5
REMARK    4  A    between atoms: C_16  and  C_17
REMARK                            x       y       z     vdW  Elec       q    Type
REMARK                         _______ _______ _______ _____ _____    ______ ____
ROOT
ATOM      1  O   UNL     1       7.348   5.920  15.722  0.00  0.00    +0.000 OA
ATOM      2  C   UNL     1       6.834   6.042  16.838  0.00  0.00    +0.000 C 
ATOM      3  N   UNL     1       5.533   5.618  17.097  0.00  0.00    +0.000 N 
ATOM      4  C   UNL     1       4.778   4.961  16.013  0.00  0.00    +0.000 C 
ATOM      5  C   UNL     1       4.506   3.472  16.307  0.00  0.00    +0.000 C 
ATOM      6  C   UNL     1       4.164   3.287  17.755  0.00  0.00    +0.000 A 
ATOM      7  S   UNL     1       3.492   1.849  18.362  0.00  0.00    +0.000 S 
ATOM      8  C   UNL     1       3.475   2.470  19.958  0.00  0.00    +0.000 A 
ATOM      9  C   UNL     1       3.982   3.749  20.022  0.00  0.00    +0.000 A 
ATOM     10  C   UNL     1       4.359   4.245  18.733  0.00  0.00    +0.000 A 
ATOM     11  C   UNL     1       4.896   5.624  18.427  0.00  0.00    +0.000 C 
ENDROOT
BRANCH  11  12
ATOM     12  C   UNL     1       3.730   6.611  18.541  0.00  0.00    +0.000 A 
ATOM     13  C   UNL     1       3.561   7.580  17.535  0.00  0.00    +0.000 A 
ATOM     14  C   UNL     1       2.549   8.542  17.619  0.00  0.00    +0.000 A 
ATOM     15  C   UNL     1       1.685   8.549  18.709  0.00  0.00    +0.000 A 
ATOM     16 CL   UNL     1       0.473   9.761  18.840  0.00  0.00    +0.000 Cl
ATOM     17  C   UNL     1       1.803   7.583  19.698  0.00  0.00    +0.000 A 
ATOM     18  C   UNL     1       2.808   6.615  19.609  0.00  0.00    +0.000 A 
ENDBRANCH  11  12
BRANCH   2  19
ATOM     19  C   UNL     1       7.653   6.630  18.005  0.00  0.00    +0.000 C 
BRANCH  19  20
ATOM     20  N   UNL     1       7.423   8.077  18.182  0.00  0.00    +0.000 NA
ATOM     21  H   UNL     1       7.045   8.212  19.124  0.00  0.00    +0.000 HD
BRANCH  20  22
ATOM     22  C   UNL     1       8.647   8.876  18.039  0.00  0.00    +0.000 C 
ATOM     23  C   UNL     1       8.580  10.369  17.871  0.00  0.00    +0.000 C 
ATOM     24  C   UNL     1       9.050   9.784  19.168  0.00  0.00    +0.000 C 
ENDBRANCH  20  22
ENDBRANCH  19  20
ENDBRANCH   2  19
TORSDOF 4
ENDMDL
MODEL 8
REMARK VINA RESULT:      -6.4      1.016      1.246
REMARK  Name = 
REMARK  4 active torsions:
REMARK  status: ('A' for Active; 'I' for Inactive)
REMARK    1  A    between atoms: C_2  and  C_3
REMARK    2  A    between atoms: C_3  and  N_4
REMARK    3  A    between atoms: N_4  and  C_5
REMARK    4  A    between atoms: C_16  and  C_17
REMARK                            x       y       z     vdW  Elec       q    Type
REMARK                         _______ _______ _______ _____ _____    ______ ____
ROOT
ATOM      1  O   UNL     1       4.549   4.187  15.606  0.00  0.00    +0.000 OA
ATOM      2  C   UNL     1       4.587   4.777  16.690  0.00  0.00    +0.000 C 
ATOM      3  N   UNL     1       3.456   4.916  17.490  0.00  0.00    +0.000 N 
ATOM      4  C   UNL     1       2.197   4.292  17.043  0.00  0.00    +0.000 C 
ATOM      5  C   UNL     1       1.763   3.128  17.957  0.00  0.00    +0.000 C 
ATOM      6  C   UNL     1       2.025   3.474  19.391  0.00  0.00    +0.000 A 
ATOM      7  S   UNL     1       1.380   2.579  20.683  0.00  0.00    +0.000 S 
ATOM      8  C   UNL     1       2.163   3.576  21.834  0.00  0.00    +0.000 A 
ATOM      9  C   UNL     1       2.910   4.568  21.237  0.00  0.00    +0.000 A 
ATOM     10  C   UNL     1       2.811   4.533  19.809  0.00  0.00    +0.000 A 
ATOM     11  C   UNL     1       3.450   5.503  18.843  0.00  0.00    +0.000 C 
ENDROOT
BRANCH  11  12
ATOM     12  C   UNL     1       2.678   6.823  18.932  0.00  0.00    +0.000 A 
ATOM     13  C   UNL     1       2.085   7.181  20.157  0.00  0.00    +0.000 A 
ATOM     14  C   UNL     1       1.320   8.346  20.278  0.00  0.00    +0.000 A 
ATOM     15  C   UNL     1       1.138   9.176  19.177  0.00  0.00    +0.000 A 
ATOM     16 CL   UNL     1       0.157  10.581  19.309  0.00  0.00    +0.000 Cl
ATOM     17  C   UNL     1       1.742   8.869  17.965  0.00  0.00    +0.000 A 
ATOM     18  C   UNL     1       2.516   7.711  17.847  0.00  0.00    +0.000 A 
ENDBRANCH  11  12
BRANCH   2  19
ATOM     19  C   UNL     1       5.924   5.341  17.216  0.00  0.00    +0.000 C 
BRANCH  19  20
ATOM     20  N   UNL     1       6.714   4.330  17.943  0.00  0.00    +0.000 NA
ATOM     21  H   UNL     1       6.992   3.614  17.266  0.00  0.00    +0.000 HD
BRANCH  20  22
ATOM     22  C   UNL     1       7.920   4.885  18.572  0.00  0.00    +0.000 C 
ATOM     23  C   UNL     1       8.085   6.369  18.751  0.00  0.00    +0.000 C 
ATOM     24  C   UNL     1       7.801   5.500  19.939  0.00  0.00    +0.000 C 
ENDBRANCH  20  22
ENDBRANCH  19  20
ENDBRANCH   2  19
TORSDOF 4
ENDMDL
MODEL 9
REMARK VINA RESULT:      -6.3      7.568     10.501
REMARK  Name = 
REMARK  4 active torsions:
REMARK  status: ('A' for Active; 'I' for Inactive)
REMARK    1  A    between atoms: C_2  and  C_3
REMARK    2  A    between atoms: C_3  and  N_4
REMARK    3  A    between atoms: N_4  and  C_5
REMARK    4  A    between atoms: C_16  and  C_17
REMARK                            x       y       z     vdW  Elec       q    Type
REMARK                         _______ _______ _______ _____ _____    ______ ____
ROOT
ATOM      1  O   UNL     1      -2.993   9.466  16.981  0.00  0.00    +0.000 OA
ATOM      2  C   UNL     1      -3.070  10.588  17.491  0.00  0.00    +0.000 C 
ATOM      3  N   UNL     1      -2.208  10.993  18.507  0.00  0.00    +0.000 N 
ATOM      4  C   UNL     1      -1.146  10.064  18.941  0.00  0.00    +0.000 C 
ATOM      5  C   UNL     1       0.263  10.578  18.584  0.00  0.00    +0.000 C 
ATOM      6  C   UNL     1       0.344  12.058  18.810  0.00  0.00    +0.000 A 
ATOM      7  S   UNL     1       1.819  12.902  18.837  0.00  0.00    +0.000 S 
ATOM      8  C   UNL     1       1.020  14.395  19.091  0.00  0.00    +0.000 A 
ATOM      9  C   UNL     1      -0.348  14.247  19.145  0.00  0.00    +0.000 A 
ATOM     10  C   UNL     1      -0.750  12.879  19.011  0.00  0.00    +0.000 A 
ATOM     11  C   UNL     1      -2.163  12.351  19.081  0.00  0.00    +0.000 C 
ENDROOT
BRANCH  11  12
ATOM     12  C   UNL     1      -2.608  12.409  20.545  0.00  0.00    +0.000 A 
ATOM     13  C   UNL     1      -3.924  12.811  20.839  0.00  0.00    +0.000 A 
ATOM     14  C   UNL     1      -4.364  12.938  22.161  0.00  0.00    +0.000 A 
ATOM     15  C   UNL     1      -3.497  12.660  23.213  0.00  0.00    +0.000 A 
ATOM     16 CL   UNL     1      -4.021  12.864  24.838  0.00  0.00    +0.000 Cl
ATOM     17  C   UNL     1      -2.205  12.224  22.954  0.00  0.00    +0.000 A 
ATOM     18  C   UNL     1      -1.769  12.086  21.633  0.00  0.00    +0.000 A 
ENDBRANCH  11  12
BRANCH   2  19
ATOM     19  C   UNL     1      -4.108  11.603  16.971  0.00  0.00    +0.000 C 
BRANCH  19  20
ATOM     20  N   UNL     1      -5.496  11.166  17.216  0.00  0.00    +0.000 NA
ATOM     21  H   UNL     1      -5.616  10.260  16.755  0.00  0.00    +0.000 HD
BRANCH  20  22
ATOM     22  C   UNL     1      -5.809  11.021  18.644  0.00  0.00    +0.000 C 
ATOM     23  C   UNL     1      -7.149  11.433  19.187  0.00  0.00    +0.000 C 
ATOM     24  C   UNL     1      -6.810   9.979  19.059  0.00  0.00    +0.000 C 
ENDBRANCH  20  22
ENDBRANCH  19  20
ENDBRANCH   2  19
TORSDOF 4
ENDMDL
