MODEL 1
REMARK VINA RESULT:      -7.1      0.000      0.000
REMARK  Name = 
REMARK  7 active torsions:
REMARK  status: ('A' for Active; 'I' for Inactive)
REMARK    1  A    between atoms: C_1  and  C_2
REMARK    2  A    between atoms: C_2  and  O_3
REMARK    3  A    between atoms: O_3  and  C_4
REMARK    4  A    between atoms: C_7  and  S_8
REMARK    5  A    between atoms: S_8  and  N_11
REMARK    6  A    between atoms: N_11  and  C_12
REMARK    7  A    between atoms: C_12  and  C_13
REMARK                            x       y       z     vdW  Elec       q    Type
REMARK                         _______ _______ _______ _____ _____    ______ ____
ROOT
ATOM      1  S   UNL     1       2.545   2.979  18.193  0.00  0.00    +0.000 S 
ATOM      2  O   UNL     1       1.859   2.028  19.040  0.00  0.00    +0.000 OA
ATOM      3  O   UNL     1       2.277   3.078  16.773  0.00  0.00    +0.000 OA
ENDROOT
BRANCH   1   7
ATOM      4  C   UNL     1       1.970   7.121  20.083  0.00  0.00    +0.000 A 
ATOM      5  C   UNL     1       1.796   5.946  20.825  0.00  0.00    +0.000 A 
ATOM      6  C   UNL     1       1.943   4.693  20.236  0.00  0.00    +0.000 A 
ATOM      7  C   UNL     1       2.272   4.593  18.886  0.00  0.00    +0.000 A 
ATOM      8  C   UNL     1       2.458   5.748  18.123  0.00  0.00    +0.000 A 
ATOM      9  C   UNL     1       2.292   7.007  18.720  0.00  0.00    +0.000 A 
ATOM     10 CL   UNL     1       2.511   8.403  17.723  0.00  0.00    +0.000 Cl
BRANCH   4  11
ATOM     11  O   UNL     1       1.856   8.382  20.623  0.00  0.00    +0.000 OA
BRANCH  11  13
ATOM     12  C   UNL     1       0.642   9.250  22.534  0.00  0.00    +0.000 C 
ATOM     13  C   UNL     1       0.559   8.728  21.114  0.00  0.00    +0.000 C 
ENDBRANCH  11  13
ENDBRANCH   4  11
ENDBRANCH   1   7
BRANCH   1  14
ATOM     14  N   UNL     1       4.209   2.765  18.345  0.00  0.00    +0.000 NA
ATOM     15  H   UNL     1       4.649   2.435  17.485  0.00  0.00    +0.000 HD
BRANCH  14  16
ATOM     16  C   UNL     1       4.934   3.857  19.005  0.00  0.00    +0.000 C 
BRANCH  16  17
ATOM     17  C   UNL     1       5.817   4.601  18.042  0.00  0.00    +0.000 A 
ATOM     18  C   UNL     1       5.902   4.214  16.702  0.00  0.00    +0.000 A 
ATOM     19  C   UNL     1       6.694   4.961  15.846  0.00  0.00    +0.000 A 
ATOM     20  N   UNL     1       7.399   6.046  16.231  0.00  0.00    +0.000 NA
ATOM     21  C   UNL     1       7.305   6.404  17.529  0.00  0.00    +0.000 A 
ATOM     22  C   UNL     1       6.541   5.721  18.462  0.00  0.00    +0.000 A 
ENDBRANCH  16  17
ENDBRANCH  14  16
ENDBRANCH   1  14
TORSDOF 6
ENDMDL
MODEL 2
REMARK VINA RESULT:      -7.1      3.975      7.381
REMARK  Name = 
REMARK  7 active torsions:
REMARK  status: ('A' for Active; 'I' for Inactive)
REMARK    1  A    between atoms: C_1  and  C_2
REMARK    2  A    between atoms: C_2  and  O_3
REMARK    3  A    between atoms: O_3  and  C_4
REMARK    4  A    between atoms: C_7  and  S_8
REMARK    5  A    between atoms: S_8  and  N_11
REMARK    6  A    between atoms: N_11  and  C_12
REMARK    7  A    between atoms: C_12  and  C_13
REMARK                            x       y       z     vdW  Elec       q    Type
REMARK                         _______ _______ _______ _____ _____    ______ ____
ROOT
ATOM      1  S   UNL     1       6.946   4.910  17.868  0.00  0.00    +0.000 S 
ATOM      2  O   UNL     1       8.236   4.367  18.233  0.00  0.00    +0.000 OA
ATOM      3  O   UNL     1       6.628   6.314  18.032  0.00  0.00    +0.000 OA
ENDROOT
BRANCH   1   7
ATOM      4  C   UNL     1       6.094   3.959  13.460  0.00  0.00    +0.000 A 
ATOM      5  C   UNL     1       5.336   3.391  14.492  0.00  0.00    +0.000 A 
ATOM      6  C   UNL     1       5.622   3.662  15.828  0.00  0.00    +0.000 A 
ATOM      7  C   UNL     1       6.674   4.514  16.156  0.00  0.00    +0.000 A 
ATOM      8  C   UNL     1       7.442   5.099  15.147  0.00  0.00    +0.000 A 
ATOM      9  C   UNL     1       7.160   4.809  13.804  0.00  0.00    +0.000 A 
ATOM     10 CL   UNL     1       8.157   5.543  12.598  0.00  0.00    +0.000 Cl
BRANCH   4  11
ATOM     11  O   UNL     1       5.840   3.741  12.125  0.00  0.00    +0.000 OA
BRANCH  11  13
ATOM     12  C   UNL     1       6.976   1.791  11.235  0.00  0.00    +0.000 C 
ATOM     13  C   UNL     1       5.673   2.372  11.745  0.00  0.00    +0.000 C 
ENDBRANCH  11  13
ENDBRANCH   4  11
ENDBRANCH   1   7
BRANCH   1  14
ATOM     14  N   UNL     1       5.733   4.055  18.665  0.00  0.00    +0.000 NA
ATOM     15  H   UNL     1       6.096   3.307  19.256  0.00  0.00    +0.000 HD
BRANCH  14  16
ATOM     16  C   UNL     1       4.693   4.871  19.303  0.00  0.00    +0.000 C 
BRANCH  16  17
ATOM     17  C   UNL     1       3.354   4.186  19.277  0.00  0.00    +0.000 A 
ATOM     18  C   UNL     1       2.773   3.703  20.452  0.00  0.00    +0.000 A 
ATOM     19  C   UNL     1       1.518   3.122  20.380  0.00  0.00    +0.000 A 
ATOM     20  N   UNL     1       0.819   2.987  19.233  0.00  0.00    +0.000 NA
ATOM     21  C   UNL     1       1.397   3.458  18.108  0.00  0.00    +0.000 A 
ATOM     22  C   UNL     1       2.647   4.055  18.078  0.00  0.00    +0.000 A 
ENDBRANCH  16  17
ENDBRANCH  14  16
ENDBRANCH   1  14
TORSDOF 6
ENDMDL
MODEL 3
REMARK VINA RESULT:      -7.1      2.692      5.123
REMARK  Name = 
REMARK  7 active torsions:
REMARK  status: ('A' for Active; 'I' for Inactive)
REMARK    1  A    between atoms: C_1  and  C_2
REMARK    2  A    between atoms: C_2  and  O_3
REMARK    3  A    between atoms: O_3  and  C_4
REMARK    4  A    between atoms: C_7  and  S_8
REMARK    5  A    between atoms: S_8  and  N_11
REMARK    6  A    between atoms: N_11  and  C_12
REMARK    7  A    between atoms: C_12  and  C_13
REMARK                            x       y       z     vdW  Elec       q    Type
REMARK                         _______ _______ _______ _____ _____    ______ ____
ROOT
ATOM      1  S   UNL     1       4.018   2.345  19.120  0.00  0.00    +0.000 S 
ATOM      2  O   UNL     1       3.521   1.584  17.995  0.00  0.00    +0.000 OA
ATOM      3  O   UNL     1       4.897   1.764  20.113  0.00  0.00    +0.000 OA
ENDROOT
BRANCH   1   7
ATOM      4  C   UNL     1       6.309   5.969  17.481  0.00  0.00    +0.000 A 
ATOM      5  C   UNL     1       6.222   5.718  18.857  0.00  0.00    +0.000 A 
ATOM      6  C   UNL     1       5.499   4.633  19.347  0.00  0.00    +0.000 A 
ATOM      7  C   UNL     1       4.850   3.773  18.463  0.00  0.00    +0.000 A 
ATOM      8  C   UNL     1       4.926   3.996  17.086  0.00  0.00    +0.000 A 
ATOM      9  C   UNL     1       5.642   5.101  16.601  0.00  0.00    +0.000 A 
ATOM     10 CL   UNL     1       5.683   5.341  14.890  0.00  0.00    +0.000 Cl
BRANCH   4  11
ATOM     11  O   UNL     1       7.027   7.014  16.947  0.00  0.00    +0.000 OA
BRANCH  11  13
ATOM     12  C   UNL     1       7.952   9.090  17.791  0.00  0.00    +0.000 C 
ATOM     13  C   UNL     1       8.026   7.577  17.801  0.00  0.00    +0.000 C 
ENDBRANCH  11  13
ENDBRANCH   4  11
ENDBRANCH   1   7
BRANCH   1  14
ATOM     14  N   UNL     1       2.720   3.006  19.967  0.00  0.00    +0.000 NA
ATOM     15  H   UNL     1       3.009   3.521  20.799  0.00  0.00    +0.000 HD
BRANCH  14  16
ATOM     16  C   UNL     1       1.716   3.701  19.153  0.00  0.00    +0.000 C 
BRANCH  16  17
ATOM     17  C   UNL     1       1.824   5.194  19.293  0.00  0.00    +0.000 A 
ATOM     18  C   UNL     1       1.623   5.815  20.528  0.00  0.00    +0.000 A 
ATOM     19  C   UNL     1       1.779   7.189  20.611  0.00  0.00    +0.000 A 
ATOM     20  N   UNL     1       2.110   7.972  19.563  0.00  0.00    +0.000 NA
ATOM     21  C   UNL     1       2.298   7.354  18.378  0.00  0.00    +0.000 A 
ATOM     22  C   UNL     1       2.166   5.988  18.193  0.00  0.00    +0.000 A 
ENDBRANCH  16  17
ENDBRANCH  14  16
ENDBRANCH   1  14
TORSDOF 6
ENDMDL
MODEL 4
REMARK VINA RESULT:      -7.1      2.686      5.057
REMARK  Name = 
REMARK  7 active torsions:
REMARK  status: ('A' for Active; 'I' for Inactive)
REMARK    1  A    between atoms: C_1  and  C_2
REMARK    2  A    between atoms: C_2  and  O_3
REMARK    3  A    between atoms: O_3  and  C_4
REMARK    4  A    between atoms: C_7  and  S_8
REMARK    5  A    between atoms: S_8  and  N_11
REMARK    6  A    between atoms: N_11  and  C_12
REMARK    7  A    between atoms: C_12  and  C_13
REMARK                            x       y       z     vdW  Elec       q    Type
REMARK                         _______ _______ _______ _____ _____    ______ ____
ROOT
ATOM      1  S   UNL     1       4.051   2.414  19.195  0.00  0.00    +0.000 S 
ATOM      2  O   UNL     1       3.499   1.678  18.079  0.00  0.00    +0.000 OA
ATOM      3  O   UNL     1       4.933   1.797  20.163  0.00  0.00    +0.000 OA
ENDROOT
BRANCH   1   7
ATOM      4  C   UNL     1       6.427   5.966  17.520  0.00  0.00    +0.000 A 
ATOM      5  C   UNL     1       6.356   5.715  18.897  0.00  0.00    +0.000 A 
ATOM      6  C   UNL     1       5.608   4.652  19.398  0.00  0.00    +0.000 A 
ATOM      7  C   UNL     1       4.916   3.816  18.525  0.00  0.00    +0.000 A 
ATOM      8  C   UNL     1       4.974   4.039  17.148  0.00  0.00    +0.000 A 
ATOM      9  C   UNL     1       5.716   5.121  16.651  0.00  0.00    +0.000 A 
ATOM     10 CL   UNL     1       5.734   5.364  14.940  0.00  0.00    +0.000 Cl
BRANCH   4  11
ATOM     11  O   UNL     1       7.168   6.989  16.974  0.00  0.00    +0.000 OA
BRANCH  11  13
ATOM     12  C   UNL     1       7.913   9.178  17.703  0.00  0.00    +0.000 C 
ATOM     13  C   UNL     1       8.030   7.679  17.882  0.00  0.00    +0.000 C 
ENDBRANCH  11  13
ENDBRANCH   4  11
ENDBRANCH   1   7
BRANCH   1  14
ATOM     14  N   UNL     1       2.798   3.115  20.078  0.00  0.00    +0.000 NA
ATOM     15  H   UNL     1       3.129   3.656  20.877  0.00  0.00    +0.000 HD
BRANCH  14  16
ATOM     16  C   UNL     1       1.762   3.789  19.288  0.00  0.00    +0.000 C 
BRANCH  16  17
ATOM     17  C   UNL     1       1.920   5.284  19.323  0.00  0.00    +0.000 A 
ATOM     18  C   UNL     1       2.267   5.996  18.172  0.00  0.00    +0.000 A 
ATOM     19  C   UNL     1       2.355   7.376  18.248  0.00  0.00    +0.000 A 
ATOM     20  N   UNL     1       2.130   8.081  19.376  0.00  0.00    +0.000 NA
ATOM     21  C   UNL     1       1.797   7.376  20.478  0.00  0.00    +0.000 A 
ATOM     22  C   UNL     1       1.684   5.996  20.503  0.00  0.00    +0.000 A 
ENDBRANCH  16  17
ENDBRANCH  14  16
ENDBRANCH   1  14
TORSDOF 6
ENDMDL
MODEL 5
REMARK VINA RESULT:      -7.0      0.327      1.076
REMARK  Name = 
REMARK  7 active torsions:
REMARK  status: ('A' for Active; 'I' for Inactive)
REMARK    1  A    between atoms: C_1  and  C_2
REMARK    2  A    between atoms: C_2  and  O_3
REMARK    3  A    between atoms: O_3  and  C_4
REMARK    4  A    between atoms: C_7  and  S_8
REMARK    5  A    between atoms: S_8  and  N_11
REMARK    6  A    between atoms: N_11  and  C_12
REMARK    7  A    between atoms: C_12  and  C_13
REMARK                            x       y       z     vdW  Elec       q    Type
REMARK                         _______ _______ _______ _____ _____    ______ ____
ROOT
ATOM      1  S   UNL     1       2.580   2.916  18.142  0.00  0.00    +0.000 S 
ATOM      2  O   UNL     1       1.942   1.943  19.002  0.00  0.00    +0.000 OA
ATOM      3  O   UNL     1       2.263   3.021  16.733  0.00  0.00    +0.000 OA
ENDROOT
BRANCH   1   7
ATOM      4  C   UNL     1       1.973   7.026  20.092  0.00  0.00    +0.000 A 
ATOM      5  C   UNL     1       1.794   5.839  20.814  0.00  0.00    +0.000 A 
ATOM      6  C   UNL     1       1.951   4.595  20.206  0.00  0.00    +0.000 A 
ATOM      7  C   UNL     1       2.295   4.518  18.858  0.00  0.00    +0.000 A 
ATOM      8  C   UNL     1       2.486   5.686  18.116  0.00  0.00    +0.000 A 
ATOM      9  C   UNL     1       2.309   6.935  18.730  0.00  0.00    +0.000 A 
ATOM     10 CL   UNL     1       2.536   8.346  17.759  0.00  0.00    +0.000 Cl
BRANCH   4  11
ATOM     11  O   UNL     1       1.850   8.278  20.650  0.00  0.00    +0.000 OA
BRANCH  11  13
ATOM     12  C   UNL     1       0.404  10.070  21.409  0.00  0.00    +0.000 C 
ATOM     13  C   UNL     1       0.573   8.577  21.219  0.00  0.00    +0.000 C 
ENDBRANCH  11  13
ENDBRANCH   4  11
ENDBRANCH   1   7
BRANCH   1  14
ATOM     14  N   UNL     1       4.252   2.737  18.238  0.00  0.00    +0.000 NA
ATOM     15  H   UNL     1       4.679   2.494  17.343  0.00  0.00    +0.000 HD
BRANCH  14  16
ATOM     16  C   UNL     1       4.964   3.789  18.973  0.00  0.00    +0.000 C 
BRANCH  16  17
ATOM     17  C   UNL     1       5.810   4.632  18.059  0.00  0.00    +0.000 A 
ATOM     18  C   UNL     1       6.552   5.706  18.556  0.00  0.00    +0.000 A 
ATOM     19  C   UNL     1       7.350   6.422  17.680  0.00  0.00    +0.000 A 
ATOM     20  N   UNL     1       7.452   6.147  16.362  0.00  0.00    +0.000 NA
ATOM     21  C   UNL     1       6.726   5.107  15.900  0.00  0.00    +0.000 A 
ATOM     22  C   UNL     1       5.899   4.331  16.696  0.00  0.00    +0.000 A 
ENDBRANCH  16  17
ENDBRANCH  14  16
ENDBRANCH   1  14
TORSDOF 6
ENDMDL
MODEL 6
REMARK VINA RESULT:      -7.0      3.124      5.563
REMARK  Name = 
REMARK  7 active torsions:
REMARK  status: ('A' for Active; 'I' for Inactive)
REMARK    1  A    between atoms: C_1  and  C_2
REMARK    2  A    between atoms: C_2  and  O_3
REMARK    3  A    between atoms: O_3  and  C_4
REMARK    4  A    between atoms: C_7  and  S_8
REMARK    5  A    between atoms: S_8  and  N_11
REMARK    6  A    between atoms: N_11  and  C_12
REMARK    7  A    between atoms: C_12  and  C_13
REMARK                            x       y       z     vdW  Elec       q    Type
REMARK                         _______ _______ _______ _____ _____    ______ ____
ROOT
ATOM      1  S   UNL     1       3.075   3.908  18.270  0.00  0.00    +0.000 S 
ATOM      2  O   UNL     1       2.558   3.418  17.011  0.00  0.00    +0.000 OA
ATOM      3  O   UNL     1       3.451   3.015  19.347  0.00  0.00    +0.000 OA
ENDROOT
BRANCH   1   7
ATOM      4  C   UNL     1       6.665   6.612  17.338  0.00  0.00    +0.000 A 
ATOM      5  C   UNL     1       5.541   6.571  16.502  0.00  0.00    +0.000 A 
ATOM      6  C   UNL     1       4.469   5.724  16.777  0.00  0.00    +0.000 A 
ATOM      7  C   UNL     1       4.502   4.903  17.901  0.00  0.00    +0.000 A 
ATOM      8  C   UNL     1       5.607   4.928  18.755  0.00  0.00    +0.000 A 
ATOM      9  C   UNL     1       6.690   5.770  18.463  0.00  0.00    +0.000 A 
ATOM     10 CL   UNL     1       8.040   5.744  19.542  0.00  0.00    +0.000 Cl
BRANCH   4  11
ATOM     11  O   UNL     1       7.739   7.444  17.123  0.00  0.00    +0.000 OA
BRANCH  11  13
ATOM     12  C   UNL     1       8.695   9.227  18.460  0.00  0.00    +0.000 C 
ATOM     13  C   UNL     1       7.565   8.798  17.547  0.00  0.00    +0.000 C 
ENDBRANCH  11  13
ENDBRANCH   4  11
ENDBRANCH   1   7
BRANCH   1  14
ATOM     14  N   UNL     1       1.989   5.013  18.931  0.00  0.00    +0.000 NA
ATOM     15  H   UNL     1       1.119   4.579  19.240  0.00  0.00    +0.000 HD
BRANCH  14  16
ATOM     16  C   UNL     1       2.556   5.966  19.892  0.00  0.00    +0.000 C 
BRANCH  16  17
ATOM     17  C   UNL     1       2.068   7.366  19.640  0.00  0.00    +0.000 A 
ATOM     18  C   UNL     1       2.223   7.965  18.387  0.00  0.00    +0.000 A 
ATOM     19  C   UNL     1       1.716   9.239  18.194  0.00  0.00    +0.000 A 
ATOM     20  N   UNL     1       1.081   9.946  19.152  0.00  0.00    +0.000 NA
ATOM     21  C   UNL     1       0.942   9.353  20.356  0.00  0.00    +0.000 A 
ATOM     22  C   UNL     1       1.415   8.083  20.647  0.00  0.00    +0.000 A 
ENDBRANCH  16  17
ENDBRANCH  14  16
ENDBRANCH   1  14
TORSDOF 6
ENDMDL
MODEL 7
REMARK VINA RESULT:      -7.0      4.122      7.191
REMARK  Name = 
REMARK  7 active torsions:
REMARK  status: ('A' for Active; 'I' for Inactive)
REMARK    1  A    between atoms: C_1  and  C_2
REMARK    2  A    between atoms: C_2  and  O_3
REMARK    3  A    between atoms: O_3  and  C_4
REMARK    4  A    between atoms: C_7  and  S_8
REMARK    5  A    between atoms: S_8  and  N_11
REMARK    6  A    between atoms: N_11  and  C_12
REMARK    7  A    between atoms: C_12  and  C_13
REMARK                            x       y       z     vdW  Elec       q    Type
REMARK                         _______ _______ _______ _____ _____    ______ ____
ROOT
ATOM      1  S   UNL     1       6.809   5.436  17.813  0.00  0.00    +0.000 S 
ATOM      2  O   UNL     1       7.598   4.469  18.544  0.00  0.00    +0.000 OA
ATOM      3  O   UNL     1       7.165   6.839  17.761  0.00  0.00    +0.000 OA
ENDROOT
BRANCH   1   7
ATOM      4  C   UNL     1       6.385   4.026  13.466  0.00  0.00    +0.000 A 
ATOM      5  C   UNL     1       5.595   3.489  14.491  0.00  0.00    +0.000 A 
ATOM      6  C   UNL     1       5.752   3.901  15.812  0.00  0.00    +0.000 A 
ATOM      7  C   UNL     1       6.704   4.867  16.132  0.00  0.00    +0.000 A 
ATOM      8  C   UNL     1       7.501   5.423  15.128  0.00  0.00    +0.000 A 
ATOM      9  C   UNL     1       7.349   4.991  13.803  0.00  0.00    +0.000 A 
ATOM     10 CL   UNL     1       8.377   5.697  12.605  0.00  0.00    +0.000 Cl
BRANCH   4  11
ATOM     11  O   UNL     1       6.255   3.667  12.144  0.00  0.00    +0.000 OA
BRANCH  11  13
ATOM     12  C   UNL     1       4.052   3.281  11.206  0.00  0.00    +0.000 C 
ATOM     13  C   UNL     1       5.269   2.669  11.869  0.00  0.00    +0.000 C 
ENDBRANCH  11  13
ENDBRANCH   4  11
ENDBRANCH   1   7
BRANCH   1  14
ATOM     14  N   UNL     1       5.212   5.374  18.346  0.00  0.00    +0.000 NA
ATOM     15  H   UNL     1       4.536   5.398  17.582  0.00  0.00    +0.000 HD
BRANCH  14  16
ATOM     16  C   UNL     1       4.921   4.364  19.370  0.00  0.00    +0.000 C 
BRANCH  16  17
ATOM     17  C   UNL     1       3.520   3.833  19.245  0.00  0.00    +0.000 A 
ATOM     18  C   UNL     1       2.719   4.173  18.152  0.00  0.00    +0.000 A 
ATOM     19  C   UNL     1       1.452   3.620  18.063  0.00  0.00    +0.000 A 
ATOM     20  N   UNL     1       0.938   2.770  18.976  0.00  0.00    +0.000 NA
ATOM     21  C   UNL     1       1.725   2.455  20.026  0.00  0.00    +0.000 A 
ATOM     22  C   UNL     1       3.005   2.955  20.205  0.00  0.00    +0.000 A 
ENDBRANCH  16  17
ENDBRANCH  14  16
ENDBRANCH   1  14
TORSDOF 6
ENDMDL
MODEL 8
REMARK VINA RESULT:      -6.9      2.991      6.332
REMARK  Name = 
REMARK  7 active torsions:
REMARK  status: ('A' for Active; 'I' for Inactive)
REMARK    1  A    between atoms: C_1  and  C_2
REMARK    2  A    between atoms: C_2  and  O_3
REMARK    3  A    between atoms: O_3  and  C_4
REMARK    4  A    between atoms: C_7  and  S_8
REMARK    5  A    between atoms: S_8  and  N_11
REMARK    6  A    between atoms: N_11  and  C_12
REMARK    7  A    between atoms: C_12  and  C_13
REMARK                            x       y       z     vdW  Elec       q    Type
REMARK                         _______ _______ _______ _____ _____    ______ ____
ROOT
ATOM      1  S   UNL     1       3.153   4.585  19.122  0.00  0.00    +0.000 S 
ATOM      2  O   UNL     1       1.935   4.619  18.342  0.00  0.00    +0.000 OA
ATOM      3  O   UNL     1       3.472   3.480  20.002  0.00  0.00    +0.000 OA
ENDROOT
BRANCH   1   7
ATOM      4  C   UNL     1       6.548   5.038  16.067  0.00  0.00    +0.000 A 
ATOM      5  C   UNL     1       5.636   3.977  15.998  0.00  0.00    +0.000 A 
ATOM      6  C   UNL     1       4.627   3.830  16.947  0.00  0.00    +0.000 A 
ATOM      7  C   UNL     1       4.510   4.751  17.986  0.00  0.00    +0.000 A 
ATOM      8  C   UNL     1       5.402   5.822  18.076  0.00  0.00    +0.000 A 
ATOM      9  C   UNL     1       6.426   5.953  17.126  0.00  0.00    +0.000 A 
ATOM     10 CL   UNL     1       7.515   7.285  17.299  0.00  0.00    +0.000 Cl
BRANCH   4  11
ATOM     11  O   UNL     1       7.549   5.238  15.144  0.00  0.00    +0.000 OA
BRANCH  11  13
ATOM     12  C   UNL     1       8.164   5.579  12.823  0.00  0.00    +0.000 C 
ATOM     13  C   UNL     1       7.219   4.902  13.794  0.00  0.00    +0.000 C 
ENDBRANCH  11  13
ENDBRANCH   4  11
ENDBRANCH   1   7
BRANCH   1  14
ATOM     14  N   UNL     1       3.256   5.981  20.060  0.00  0.00    +0.000 NA
ATOM     15  H   UNL     1       3.945   6.647  19.708  0.00  0.00    +0.000 HD
BRANCH  14  16
ATOM     16  C   UNL     1       1.976   6.589  20.440  0.00  0.00    +0.000 C 
BRANCH  16  17
ATOM     17  C   UNL     1       1.774   7.922  19.772  0.00  0.00    +0.000 A 
ATOM     18  C   UNL     1       2.189   8.134  18.456  0.00  0.00    +0.000 A 
ATOM     19  C   UNL     1       1.938   9.365  17.873  0.00  0.00    +0.000 A 
ATOM     20  N   UNL     1       1.316  10.382  18.505  0.00  0.00    +0.000 NA
ATOM     21  C   UNL     1       0.924  10.159  19.777  0.00  0.00    +0.000 A 
ATOM     22  C   UNL     1       1.129   8.963  20.447  0.00  0.00    +0.000 A 
ENDBRANCH  16  17
ENDBRANCH  14  16
ENDBRANCH   1  14
TORSDOF 6
ENDMDL
MODEL 9
REMARK VINA RESULT:      -6.9      0.934      1.175
REMARK  Name = 
REMARK  7 active torsions:
REMARK  status: ('A' for Active; 'I' for Inactive)
REMARK    1  A    between atoms: C_1  and  C_2
REMARK    2  A    between atoms: C_2  and  O_3
REMARK    3  A    between atoms: O_3  and  C_4
REMARK    4  A    between atoms: C_7  and  S_8
REMARK    5  A    between atoms: S_8  and  N_11
REMARK    6  A    between atoms: N_11  and  C_12
REMARK    7  A    between atoms: C_12  and  C_13
REMARK                            x       y       z     vdW  Elec       q    Type
REMARK                         _______ _______ _______ _____ _____    ______ ____
ROOT
ATOM      1  S   UNL     1       2.644   3.103  18.040  0.00  0.00    +0.000 S 
ATOM      2  O   UNL     1       2.185   2.050  18.918  0.00  0.00    +0.000 OA
ATOM      3  O   UNL     1       2.172   3.228  16.676  0.00  0.00    +0.000 OA
ENDROOT
BRANCH   1   7
ATOM      4  C   UNL     1       1.894   7.064  20.234  0.00  0.00    +0.000 A 
ATOM      5  C   UNL     1       1.721   5.828  20.872  0.00  0.00    +0.000 A 
ATOM      6  C   UNL     1       1.922   4.631  20.189  0.00  0.00    +0.000 A 
ATOM      7  C   UNL     1       2.305   4.649  18.850  0.00  0.00    +0.000 A 
ATOM      8  C   UNL     1       2.490   5.867  18.191  0.00  0.00    +0.000 A 
ATOM      9  C   UNL     1       2.270   7.069  18.880  0.00  0.00    +0.000 A 
ATOM     10 CL   UNL     1       2.491   8.545  18.009  0.00  0.00    +0.000 Cl
BRANCH   4  11
ATOM     11  O   UNL     1       1.728   8.273  20.869  0.00  0.00    +0.000 OA
BRANCH  11  13
ATOM     12  C   UNL     1      -0.216   9.645  20.403  0.00  0.00    +0.000 C 
ATOM     13  C   UNL     1       0.394   8.574  21.284  0.00  0.00    +0.000 C 
ENDBRANCH  11  13
ENDBRANCH   4  11
ENDBRANCH   1   7
BRANCH   1  14
ATOM     14  N   UNL     1       4.327   3.068  17.955  0.00  0.00    +0.000 NA
ATOM     15  H   UNL     1       4.716   2.148  18.158  0.00  0.00    +0.000 HD
BRANCH  14  16
ATOM     16  C   UNL     1       4.918   3.721  16.781  0.00  0.00    +0.000 C 
BRANCH  16  17
ATOM     17  C   UNL     1       5.849   4.835  17.175  0.00  0.00    +0.000 A 
ATOM     18  C   UNL     1       5.672   6.128  16.675  0.00  0.00    +0.000 A 
ATOM     19  C   UNL     1       6.529   7.127  17.104  0.00  0.00    +0.000 A 
ATOM     20  N   UNL     1       7.537   6.927  17.979  0.00  0.00    +0.000 NA
ATOM     21  C   UNL     1       7.694   5.671  18.449  0.00  0.00    +0.000 A 
ATOM     22  C   UNL     1       6.889   4.605  18.080  0.00  0.00    +0.000 A 
ENDBRANCH  16  17
ENDBRANCH  14  16
ENDBRANCH   1  14
TORSDOF 6
ENDMDL
