MODEL 1
REMARK VINA RESULT:      -8.4      0.000      0.000
REMARK  Name = 
REMARK  6 active torsions:
REMARK  status: ('A' for Active; 'I' for Inactive)
REMARK    1  A    between atoms: C_2  and  O_3
REMARK    2  A    between atoms: C_2  and  C_4
REMARK    3  A    between atoms: C_7  and  C_8
REMARK    4  A    between atoms: C_11  and  O_12
REMARK    5  A    between atoms: O_12  and  S_13
REMARK    6  A    between atoms: S_13  and  C_16
REMARK                            x       y       z     vdW  Elec       q    Type
REMARK                         _______ _______ _______ _____ _____    ______ ____
ROOT
ATOM      1  C   UNL     1       1.332   7.839  20.501  0.00  0.00    +0.000 A 
ATOM      2  C   UNL     1       1.341   6.548  21.062  0.00  0.00    +0.000 A 
ATOM      3  C   UNL     1       2.022   5.487  20.451  0.00  0.00    +0.000 A 
ATOM      4  C   UNL     1       2.689   5.680  19.244  0.00  0.00    +0.000 A 
ATOM      5  C   UNL     1       2.695   6.946  18.667  0.00  0.00    +0.000 A 
ATOM      6  C   UNL     1       2.026   8.007  19.289  0.00  0.00    +0.000 A 
ENDROOT
BRANCH   1  10
ATOM      7  C   UNL     1      -0.723  11.126  22.413  0.00  0.00    +0.000 A 
ATOM      8  C   UNL     1      -0.362  11.206  21.066  0.00  0.00    +0.000 A 
ATOM      9  C   UNL     1       0.314  10.145  20.455  0.00  0.00    +0.000 A 
ATOM     10  C   UNL     1       0.653   8.979  21.166  0.00  0.00    +0.000 A 
ATOM     11  C   UNL     1       0.282   8.926  22.523  0.00  0.00    +0.000 A 
ATOM     12  C   UNL     1      -0.415   9.974  23.140  0.00  0.00    +0.000 A 
BRANCH   7  14
ATOM     13  O   UNL     1      -0.995  13.369  23.155  0.00  0.00    +0.000 OA
ATOM     14  C   UNL     1      -1.475  12.258  23.010  0.00  0.00    +0.000 C 
BRANCH  14  15
ATOM     15  O   UNL     1      -2.720  11.932  23.411  0.00  0.00    +0.000 OA
ATOM     16  H   UNL     1      -2.937  12.180  24.328  0.00  0.00    +0.000 HD
ENDBRANCH  14  15
ENDBRANCH   7  14
ENDBRANCH   1  10
BRANCH   4  17
ATOM     17  O   UNL     1       3.331   4.584  18.727  0.00  0.00    +0.000 OA
BRANCH  17  18
ATOM     18  S   UNL     1       4.937   4.380  18.923  0.00  0.00    +0.000 S 
ATOM     19  O   UNL     1       5.453   5.537  19.638  0.00  0.00    +0.000 OA
ATOM     20  O   UNL     1       5.206   3.036  19.400  0.00  0.00    +0.000 OA
BRANCH  18  21
ATOM     21  C   UNL     1       5.634   4.458  17.305  0.00  0.00    +0.000 A 
ATOM     22  C   UNL     1       4.791   4.382  16.190  0.00  0.00    +0.000 A 
ATOM     23  C   UNL     1       5.338   4.457  14.909  0.00  0.00    +0.000 A 
ATOM     24  C   UNL     1       6.716   4.601  14.747  0.00  0.00    +0.000 A 
ATOM     25  C   UNL     1       7.550   4.672  15.865  0.00  0.00    +0.000 A 
ATOM     26  C   UNL     1       7.004   4.600  17.144  0.00  0.00    +0.000 A 
ATOM     27  F   UNL     1       7.826   4.686  18.197  0.00  0.00    +0.000 F 
ENDBRANCH  18  21
ENDBRANCH  17  18
ENDBRANCH   4  17
TORSDOF 6
ENDMDL
MODEL 2
REMARK VINA RESULT:      -8.4      0.243      1.135
REMARK  Name = 
REMARK  6 active torsions:
REMARK  status: ('A' for Active; 'I' for Inactive)
REMARK    1  A    between atoms: C_2  and  O_3
REMARK    2  A    between atoms: C_2  and  C_4
REMARK    3  A    between atoms: C_7  and  C_8
REMARK    4  A    between atoms: C_11  and  O_12
REMARK    5  A    between atoms: O_12  and  S_13
REMARK    6  A    between atoms: S_13  and  C_16
REMARK                            x       y       z     vdW  Elec       q    Type
REMARK                         _______ _______ _______ _____ _____    ______ ____
ROOT
ATOM      1  C   UNL     1       1.325   7.856  20.455  0.00  0.00    +0.000 A 
ATOM      2  C   UNL     1       1.323   6.580  21.051  0.00  0.00    +0.000 A 
ATOM      3  C   UNL     1       2.013   5.503  20.480  0.00  0.00    +0.000 A 
ATOM      4  C   UNL     1       2.698   5.663  19.278  0.00  0.00    +0.000 A 
ATOM      5  C   UNL     1       2.715   6.912  18.668  0.00  0.00    +0.000 A 
ATOM      6  C   UNL     1       2.038   7.991  19.251  0.00  0.00    +0.000 A 
ENDROOT
BRANCH   1  10
ATOM      7  C   UNL     1      -0.602  11.247  22.318  0.00  0.00    +0.000 A 
ATOM      8  C   UNL     1      -0.658   9.986  22.916  0.00  0.00    +0.000 A 
ATOM      9  C   UNL     1      -0.043   8.889  22.303  0.00  0.00    +0.000 A 
ATOM     10  C   UNL     1       0.638   9.014  21.078  0.00  0.00    +0.000 A 
ATOM     11  C   UNL     1       0.675  10.295  20.495  0.00  0.00    +0.000 A 
ATOM     12  C   UNL     1       0.082  11.406  21.110  0.00  0.00    +0.000 A 
BRANCH   7  14
ATOM     13  O   UNL     1      -2.411  12.410  23.331  0.00  0.00    +0.000 OA
ATOM     14  C   UNL     1      -1.232  12.391  23.024  0.00  0.00    +0.000 C 
BRANCH  14  15
ATOM     15  O   UNL     1      -0.389  13.417  23.255  0.00  0.00    +0.000 OA
ATOM     16  H   UNL     1       0.446  13.174  23.693  0.00  0.00    +0.000 HD
ENDBRANCH  14  15
ENDBRANCH   7  14
ENDBRANCH   1  10
BRANCH   4  17
ATOM     17  O   UNL     1       3.347   4.553  18.801  0.00  0.00    +0.000 OA
BRANCH  17  18
ATOM     18  S   UNL     1       4.958   4.378  18.980  0.00  0.00    +0.000 S 
ATOM     19  O   UNL     1       5.463   5.551  19.675  0.00  0.00    +0.000 OA
ATOM     20  O   UNL     1       5.257   3.044  19.468  0.00  0.00    +0.000 OA
BRANCH  18  21
ATOM     21  C   UNL     1       5.635   4.450  17.353  0.00  0.00    +0.000 A 
ATOM     22  C   UNL     1       4.779   4.357  16.249  0.00  0.00    +0.000 A 
ATOM     23  C   UNL     1       5.308   4.427  14.961  0.00  0.00    +0.000 A 
ATOM     24  C   UNL     1       6.683   4.583  14.779  0.00  0.00    +0.000 A 
ATOM     25  C   UNL     1       7.530   4.670  15.887  0.00  0.00    +0.000 A 
ATOM     26  C   UNL     1       7.001   4.603  17.173  0.00  0.00    +0.000 A 
ATOM     27  F   UNL     1       7.835   4.705  18.215  0.00  0.00    +0.000 F 
ENDBRANCH  18  21
ENDBRANCH  17  18
ENDBRANCH   4  17
TORSDOF 6
ENDMDL
MODEL 3
REMARK VINA RESULT:      -8.1      2.824      3.697
REMARK  Name = 
REMARK  6 active torsions:
REMARK  status: ('A' for Active; 'I' for Inactive)
REMARK    1  A    between atoms: C_2  and  O_3
REMARK    2  A    between atoms: C_2  and  C_4
REMARK    3  A    between atoms: C_7  and  C_8
REMARK    4  A    between atoms: C_11  and  O_12
REMARK    5  A    between atoms: O_12  and  S_13
REMARK    6  A    between atoms: S_13  and  C_16
REMARK                            x       y       z     vdW  Elec       q    Type
REMARK                         _______ _______ _______ _____ _____    ______ ____
ROOT
ATOM      1  C   UNL     1       0.937   9.111  20.196  0.00  0.00    +0.000 A 
ATOM      2  C   UNL     1       1.201   9.380  18.840  0.00  0.00    +0.000 A 
ATOM      3  C   UNL     1       1.959   8.503  18.052  0.00  0.00    +0.000 A 
ATOM      4  C   UNL     1       2.501   7.347  18.608  0.00  0.00    +0.000 A 
ATOM      5  C   UNL     1       2.257   7.058  19.946  0.00  0.00    +0.000 A 
ATOM      6  C   UNL     1       1.485   7.929  20.726  0.00  0.00    +0.000 A 
ENDROOT
BRANCH   1  10
ATOM      7  C   UNL     1      -1.589  11.681  22.583  0.00  0.00    +0.000 A 
ATOM      8  C   UNL     1      -1.340  11.983  21.243  0.00  0.00    +0.000 A 
ATOM      9  C   UNL     1      -0.512  11.155  20.477  0.00  0.00    +0.000 A 
ATOM     10  C   UNL     1       0.094  10.009  21.024  0.00  0.00    +0.000 A 
ATOM     11  C   UNL     1      -0.170   9.730  22.379  0.00  0.00    +0.000 A 
ATOM     12  C   UNL     1      -1.015  10.540  23.150  0.00  0.00    +0.000 A 
BRANCH   7  14
ATOM     13  O   UNL     1      -2.306  13.756  23.497  0.00  0.00    +0.000 OA
ATOM     14  C   UNL     1      -2.507  12.564  23.346  0.00  0.00    +0.000 C 
BRANCH  14  15
ATOM     15  O   UNL     1      -3.558  11.916  23.887  0.00  0.00    +0.000 OA
ATOM     16  H   UNL     1      -3.329  11.146  24.439  0.00  0.00    +0.000 HD
ENDBRANCH  14  15
ENDBRANCH   7  14
ENDBRANCH   1  10
BRANCH   4  17
ATOM     17  O   UNL     1       3.223   6.549  17.757  0.00  0.00    +0.000 OA
BRANCH  17  18
ATOM     18  S   UNL     1       4.050   5.259  18.312  0.00  0.00    +0.000 S 
ATOM     19  O   UNL     1       4.491   4.480  17.166  0.00  0.00    +0.000 OA
ATOM     20  O   UNL     1       4.997   5.682  19.327  0.00  0.00    +0.000 OA
BRANCH  18  21
ATOM     21  C   UNL     1       2.869   4.255  19.154  0.00  0.00    +0.000 A 
ATOM     22  C   UNL     1       3.126   3.852  20.470  0.00  0.00    +0.000 A 
ATOM     23  C   UNL     1       2.190   3.069  21.144  0.00  0.00    +0.000 A 
ATOM     24  C   UNL     1       1.009   2.689  20.505  0.00  0.00    +0.000 A 
ATOM     25  C   UNL     1       0.763   3.093  19.191  0.00  0.00    +0.000 A 
ATOM     26  C   UNL     1       1.697   3.877  18.519  0.00  0.00    +0.000 A 
ATOM     27  F   UNL     1       1.427   4.261  17.265  0.00  0.00    +0.000 F 
ENDBRANCH  18  21
ENDBRANCH  17  18
ENDBRANCH   4  17
TORSDOF 6
ENDMDL
MODEL 4
REMARK VINA RESULT:      -8.0      1.667      2.449
REMARK  Name = 
REMARK  6 active torsions:
REMARK  status: ('A' for Active; 'I' for Inactive)
REMARK    1  A    between atoms: C_2  and  O_3
REMARK    2  A    between atoms: C_2  and  C_4
REMARK    3  A    between atoms: C_7  and  C_8
REMARK    4  A    between atoms: C_11  and  O_12
REMARK    5  A    between atoms: O_12  and  S_13
REMARK    6  A    between atoms: S_13  and  C_16
REMARK                            x       y       z     vdW  Elec       q    Type
REMARK                         _______ _______ _______ _____ _____    ______ ____
ROOT
ATOM      1  C   UNL     1       1.736   7.855  19.751  0.00  0.00    +0.000 A 
ATOM      2  C   UNL     1       2.285   8.195  18.501  0.00  0.00    +0.000 A 
ATOM      3  C   UNL     1       2.893   7.235  17.681  0.00  0.00    +0.000 A 
ATOM      4  C   UNL     1       2.997   5.912  18.103  0.00  0.00    +0.000 A 
ATOM      5  C   UNL     1       2.464   5.549  19.335  0.00  0.00    +0.000 A 
ATOM      6  C   UNL     1       1.842   6.509  20.144  0.00  0.00    +0.000 A 
ENDROOT
BRANCH   1  10
ATOM      7  C   UNL     1      -0.349  10.741  22.203  0.00  0.00    +0.000 A 
ATOM      8  C   UNL     1       0.052  11.073  20.907  0.00  0.00    +0.000 A 
ATOM      9  C   UNL     1       0.738  10.140  20.122  0.00  0.00    +0.000 A 
ATOM     10  C   UNL     1       1.047   8.855  20.604  0.00  0.00    +0.000 A 
ATOM     11  C   UNL     1       0.636   8.547  21.915  0.00  0.00    +0.000 A 
ATOM     12  C   UNL     1      -0.071   9.466  22.703  0.00  0.00    +0.000 A 
BRANCH   7  14
ATOM     13  O   UNL     1      -2.257  11.570  23.352  0.00  0.00    +0.000 OA
ATOM     14  C   UNL     1      -1.109  11.747  22.985  0.00  0.00    +0.000 C 
BRANCH  14  15
ATOM     15  O   UNL     1      -0.425  12.886  23.215  0.00  0.00    +0.000 OA
ATOM     16  H   UNL     1      -0.668  13.355  24.034  0.00  0.00    +0.000 HD
ENDBRANCH  14  15
ENDBRANCH   7  14
ENDBRANCH   1  10
BRANCH   4  17
ATOM     17  O   UNL     1       3.603   5.046  17.229  0.00  0.00    +0.000 OA
BRANCH  17  18
ATOM     18  S   UNL     1       4.944   4.223  17.654  0.00  0.00    +0.000 S 
ATOM     19  O   UNL     1       4.697   3.596  18.943  0.00  0.00    +0.000 OA
ATOM     20  O   UNL     1       5.415   3.437  16.528  0.00  0.00    +0.000 OA
BRANCH  18  21
ATOM     21  C   UNL     1       6.188   5.440  17.937  0.00  0.00    +0.000 A 
ATOM     22  C   UNL     1       6.977   5.359  19.091  0.00  0.00    +0.000 A 
ATOM     23  C   UNL     1       7.971   6.312  19.311  0.00  0.00    +0.000 A 
ATOM     24  C   UNL     1       8.170   7.339  18.389  0.00  0.00    +0.000 A 
ATOM     25  C   UNL     1       7.375   7.414  17.243  0.00  0.00    +0.000 A 
ATOM     26  C   UNL     1       6.384   6.461  17.021  0.00  0.00    +0.000 A 
ATOM     27  F   UNL     1       5.648   6.550  15.906  0.00  0.00    +0.000 F 
ENDBRANCH  18  21
ENDBRANCH  17  18
ENDBRANCH   4  17
TORSDOF 6
ENDMDL
MODEL 5
REMARK VINA RESULT:      -8.0      0.965      1.636
REMARK  Name = 
REMARK  6 active torsions:
REMARK  status: ('A' for Active; 'I' for Inactive)
REMARK    1  A    between atoms: C_2  and  O_3
REMARK    2  A    between atoms: C_2  and  C_4
REMARK    3  A    between atoms: C_7  and  C_8
REMARK    4  A    between atoms: C_11  and  O_12
REMARK    5  A    between atoms: O_12  and  S_13
REMARK    6  A    between atoms: S_13  and  C_16
REMARK                            x       y       z     vdW  Elec       q    Type
REMARK                         _______ _______ _______ _____ _____    ______ ____
ROOT
ATOM      1  C   UNL     1       1.307   7.934  20.438  0.00  0.00    +0.000 A 
ATOM      2  C   UNL     1       1.320   6.670  21.058  0.00  0.00    +0.000 A 
ATOM      3  C   UNL     1       1.999   5.583  20.493  0.00  0.00    +0.000 A 
ATOM      4  C   UNL     1       2.658   5.720  19.274  0.00  0.00    +0.000 A 
ATOM      5  C   UNL     1       2.660   6.957  18.639  0.00  0.00    +0.000 A 
ATOM      6  C   UNL     1       1.994   8.046  19.216  0.00  0.00    +0.000 A 
ENDROOT
BRANCH   1  10
ATOM      7  C   UNL     1      -0.580  11.363  22.271  0.00  0.00    +0.000 A 
ATOM      8  C   UNL     1      -0.530  10.141  22.944  0.00  0.00    +0.000 A 
ATOM      9  C   UNL     1       0.071   9.030  22.341  0.00  0.00    +0.000 A 
ATOM     10  C   UNL     1       0.633   9.104  21.054  0.00  0.00    +0.000 A 
ATOM     11  C   UNL     1       0.565  10.347  20.395  0.00  0.00    +0.000 A 
ATOM     12  C   UNL     1      -0.015  11.471  20.997  0.00  0.00    +0.000 A 
BRANCH   7  14
ATOM     13  O   UNL     1      -0.531  13.420  23.463  0.00  0.00    +0.000 OA
ATOM     14  C   UNL     1      -1.191  12.526  22.964  0.00  0.00    +0.000 C 
BRANCH  14  15
ATOM     15  O   UNL     1      -2.537  12.477  23.023  0.00  0.00    +0.000 OA
ATOM     16  H   UNL     1      -2.979  12.254  22.183  0.00  0.00    +0.000 HD
ENDBRANCH  14  15
ENDBRANCH   7  14
ENDBRANCH   1  10
BRANCH   4  17
ATOM     17  O   UNL     1       3.298   4.601  18.805  0.00  0.00    +0.000 OA
BRANCH  17  18
ATOM     18  S   UNL     1       4.903   4.402  19.008  0.00  0.00    +0.000 S 
ATOM     19  O   UNL     1       5.414   5.566  19.713  0.00  0.00    +0.000 OA
ATOM     20  O   UNL     1       5.173   3.063  19.498  0.00  0.00    +0.000 OA
BRANCH  18  21
ATOM     21  C   UNL     1       5.606   4.467  17.392  0.00  0.00    +0.000 A 
ATOM     22  C   UNL     1       6.931   4.892  17.237  0.00  0.00    +0.000 A 
ATOM     23  C   UNL     1       7.495   4.931  15.962  0.00  0.00    +0.000 A 
ATOM     24  C   UNL     1       6.738   4.554  14.853  0.00  0.00    +0.000 A 
ATOM     25  C   UNL     1       5.416   4.136  15.017  0.00  0.00    +0.000 A 
ATOM     26  C   UNL     1       4.854   4.093  16.290  0.00  0.00    +0.000 A 
ATOM     27  F   UNL     1       3.589   3.673  16.418  0.00  0.00    +0.000 F 
ENDBRANCH  18  21
ENDBRANCH  17  18
ENDBRANCH   4  17
TORSDOF 6
ENDMDL
MODEL 6
REMARK VINA RESULT:      -7.9      2.773      3.493
REMARK  Name = 
REMARK  6 active torsions:
REMARK  status: ('A' for Active; 'I' for Inactive)
REMARK    1  A    between atoms: C_2  and  O_3
REMARK    2  A    between atoms: C_2  and  C_4
REMARK    3  A    between atoms: C_7  and  C_8
REMARK    4  A    between atoms: C_11  and  O_12
REMARK    5  A    between atoms: O_12  and  S_13
REMARK    6  A    between atoms: S_13  and  C_16
REMARK                            x       y       z     vdW  Elec       q    Type
REMARK                         _______ _______ _______ _____ _____    ______ ____
ROOT
ATOM      1  C   UNL     1       1.178   8.815  20.173  0.00  0.00    +0.000 A 
ATOM      2  C   UNL     1       1.609   7.599  20.734  0.00  0.00    +0.000 A 
ATOM      3  C   UNL     1       2.295   6.642  19.974  0.00  0.00    +0.000 A 
ATOM      4  C   UNL     1       2.542   6.862  18.622  0.00  0.00    +0.000 A 
ATOM      5  C   UNL     1       2.126   8.056  18.041  0.00  0.00    +0.000 A 
ATOM      6  C   UNL     1       1.455   9.016  18.809  0.00  0.00    +0.000 A 
ENDROOT
BRANCH   1  10
ATOM      7  C   UNL     1      -0.892  11.821  22.490  0.00  0.00    +0.000 A 
ATOM      8  C   UNL     1      -0.366  12.134  21.235  0.00  0.00    +0.000 A 
ATOM      9  C   UNL     1       0.314  11.161  20.494  0.00  0.00    +0.000 A 
ATOM     10  C   UNL     1       0.494   9.854  20.982  0.00  0.00    +0.000 A 
ATOM     11  C   UNL     1      -0.042   9.566  22.252  0.00  0.00    +0.000 A 
ATOM     12  C   UNL     1      -0.743  10.525  22.994  0.00  0.00    +0.000 A 
BRANCH   7  14
ATOM     13  O   UNL     1      -1.116  13.886  23.645  0.00  0.00    +0.000 OA
ATOM     14  C   UNL     1      -1.641  12.871  23.224  0.00  0.00    +0.000 C 
BRANCH  14  15
ATOM     15  O   UNL     1      -2.943  12.577  23.412  0.00  0.00    +0.000 OA
ATOM     16  H   UNL     1      -3.442  12.375  22.601  0.00  0.00    +0.000 HD
ENDBRANCH  14  15
ENDBRANCH   7  14
ENDBRANCH   1  10
BRANCH   4  17
ATOM     17  O   UNL     1       3.225   5.872  17.964  0.00  0.00    +0.000 OA
BRANCH  17  18
ATOM     18  S   UNL     1       2.536   4.422  17.677  0.00  0.00    +0.000 S 
ATOM     19  O   UNL     1       1.170   4.652  17.238  0.00  0.00    +0.000 OA
ATOM     20  O   UNL     1       3.436   3.598  16.892  0.00  0.00    +0.000 OA
BRANCH  18  21
ATOM     21  C   UNL     1       2.413   3.627  19.247  0.00  0.00    +0.000 A 
ATOM     22  C   UNL     1       1.152   3.444  19.826  0.00  0.00    +0.000 A 
ATOM     23  C   UNL     1       1.049   2.804  21.061  0.00  0.00    +0.000 A 
ATOM     24  C   UNL     1       2.199   2.357  21.712  0.00  0.00    +0.000 A 
ATOM     25  C   UNL     1       3.454   2.548  21.128  0.00  0.00    +0.000 A 
ATOM     26  C   UNL     1       3.556   3.184  19.894  0.00  0.00    +0.000 A 
ATOM     27  F   UNL     1       4.770   3.340  19.352  0.00  0.00    +0.000 F 
ENDBRANCH  18  21
ENDBRANCH  17  18
ENDBRANCH   4  17
TORSDOF 6
ENDMDL
MODEL 7
REMARK VINA RESULT:      -7.9      3.638      9.874
REMARK  Name = 
REMARK  6 active torsions:
REMARK  status: ('A' for Active; 'I' for Inactive)
REMARK    1  A    between atoms: C_2  and  O_3
REMARK    2  A    between atoms: C_2  and  C_4
REMARK    3  A    between atoms: C_7  and  C_8
REMARK    4  A    between atoms: C_11  and  O_12
REMARK    5  A    between atoms: O_12  and  S_13
REMARK    6  A    between atoms: S_13  and  C_16
REMARK                            x       y       z     vdW  Elec       q    Type
REMARK                         _______ _______ _______ _____ _____    ______ ____
ROOT
ATOM      1  C   UNL     1       2.629   7.403  18.612  0.00  0.00    +0.000 A 
ATOM      2  C   UNL     1       2.234   7.071  19.922  0.00  0.00    +0.000 A 
ATOM      3  C   UNL     1       1.259   7.811  20.604  0.00  0.00    +0.000 A 
ATOM      4  C   UNL     1       0.675   8.925  20.006  0.00  0.00    +0.000 A 
ATOM      5  C   UNL     1       1.049   9.276  18.713  0.00  0.00    +0.000 A 
ATOM      6  C   UNL     1       2.012   8.524  18.029  0.00  0.00    +0.000 A 
ENDROOT
BRANCH   1  10
ATOM      7  C   UNL     1       5.592   5.074  16.494  0.00  0.00    +0.000 A 
ATOM      8  C   UNL     1       5.406   6.425  16.191  0.00  0.00    +0.000 A 
ATOM      9  C   UNL     1       4.438   7.171  16.871  0.00  0.00    +0.000 A 
ATOM     10  C   UNL     1       3.625   6.595  17.864  0.00  0.00    +0.000 A 
ATOM     11  C   UNL     1       3.829   5.231  18.147  0.00  0.00    +0.000 A 
ATOM     12  C   UNL     1       4.811   4.478  17.488  0.00  0.00    +0.000 A 
BRANCH   7  14
ATOM     13  O   UNL     1       7.845   4.515  15.982  0.00  0.00    +0.000 OA
ATOM     14  C   UNL     1       6.658   4.331  15.777  0.00  0.00    +0.000 C 
BRANCH  14  15
ATOM     15  O   UNL     1       6.191   3.466  14.854  0.00  0.00    +0.000 OA
ATOM     16  H   UNL     1       5.719   3.876  14.107  0.00  0.00    +0.000 HD
ENDBRANCH  14  15
ENDBRANCH   7  14
ENDBRANCH   1  10
BRANCH   4  17
ATOM     17  O   UNL     1      -0.272   9.582  20.750  0.00  0.00    +0.000 OA
BRANCH  17  18
ATOM     18  S   UNL     1       0.151  10.733  21.824  0.00  0.00    +0.000 S 
ATOM     19  O   UNL     1       0.335  10.095  23.118  0.00  0.00    +0.000 OA
ATOM     20  O   UNL     1       1.191  11.573  21.259  0.00  0.00    +0.000 OA
BRANCH  18  21
ATOM     21  C   UNL     1      -1.261  11.776  21.995  0.00  0.00    +0.000 A 
ATOM     22  C   UNL     1      -1.852  11.930  23.254  0.00  0.00    +0.000 A 
ATOM     23  C   UNL     1      -2.961  12.764  23.396  0.00  0.00    +0.000 A 
ATOM     24  C   UNL     1      -3.476  13.434  22.286  0.00  0.00    +0.000 A 
ATOM     25  C   UNL     1      -2.882  13.271  21.032  0.00  0.00    +0.000 A 
ATOM     26  C   UNL     1      -1.773  12.440  20.891  0.00  0.00    +0.000 A 
ATOM     27  F   UNL     1      -1.216  12.315  19.681  0.00  0.00    +0.000 F 
ENDBRANCH  18  21
ENDBRANCH  17  18
ENDBRANCH   4  17
TORSDOF 6
ENDMDL
MODEL 8
REMARK VINA RESULT:      -7.9      3.677      9.946
REMARK  Name = 
REMARK  6 active torsions:
REMARK  status: ('A' for Active; 'I' for Inactive)
REMARK    1  A    between atoms: C_2  and  O_3
REMARK    2  A    between atoms: C_2  and  C_4
REMARK    3  A    between atoms: C_7  and  C_8
REMARK    4  A    between atoms: C_11  and  O_12
REMARK    5  A    between atoms: O_12  and  S_13
REMARK    6  A    between atoms: S_13  and  C_16
REMARK                            x       y       z     vdW  Elec       q    Type
REMARK                         _______ _______ _______ _____ _____    ______ ____
ROOT
ATOM      1  C   UNL     1       2.763   7.475  18.781  0.00  0.00    +0.000 A 
ATOM      2  C   UNL     1       2.161   8.583  18.157  0.00  0.00    +0.000 A 
ATOM      3  C   UNL     1       1.150   9.320  18.787  0.00  0.00    +0.000 A 
ATOM      4  C   UNL     1       0.689   8.949  20.048  0.00  0.00    +0.000 A 
ATOM      5  C   UNL     1       1.266   7.856  20.687  0.00  0.00    +0.000 A 
ATOM      6  C   UNL     1       2.288   7.133  20.060  0.00  0.00    +0.000 A 
ENDROOT
BRANCH   1  10
ATOM      7  C   UNL     1       6.040   5.334  16.947  0.00  0.00    +0.000 A 
ATOM      8  C   UNL     1       5.372   6.339  16.244  0.00  0.00    +0.000 A 
ATOM      9  C   UNL     1       4.303   7.020  16.838  0.00  0.00    +0.000 A 
ATOM     10  C   UNL     1       3.868   6.718  18.141  0.00  0.00    +0.000 A 
ATOM     11  C   UNL     1       4.557   5.698  18.826  0.00  0.00    +0.000 A 
ATOM     12  C   UNL     1       5.642   5.024  18.250  0.00  0.00    +0.000 A 
BRANCH   7  14
ATOM     13  O   UNL     1       7.345   4.635  15.086  0.00  0.00    +0.000 OA
ATOM     14  C   UNL     1       7.194   4.666  16.294  0.00  0.00    +0.000 C 
BRANCH  14  15
ATOM     15  O   UNL     1       8.033   4.063  17.161  0.00  0.00    +0.000 OA
ATOM     16  H   UNL     1       7.622   3.757  17.989  0.00  0.00    +0.000 HD
ENDBRANCH  14  15
ENDBRANCH   7  14
ENDBRANCH   1  10
BRANCH   4  17
ATOM     17  O   UNL     1      -0.298   9.735  20.585  0.00  0.00    +0.000 OA
BRANCH  17  18
ATOM     18  S   UNL     1       0.033  10.815  21.760  0.00  0.00    +0.000 S 
ATOM     19  O   UNL     1       0.273  10.081  22.992  0.00  0.00    +0.000 OA
ATOM     20  O   UNL     1       0.998  11.785  21.277  0.00  0.00    +0.000 OA
BRANCH  18  21
ATOM     21  C   UNL     1      -1.460  11.720  22.018  0.00  0.00    +0.000 A 
ATOM     22  C   UNL     1      -2.051  11.719  23.287  0.00  0.00    +0.000 A 
ATOM     23  C   UNL     1      -3.223  12.444  23.499  0.00  0.00    +0.000 A 
ATOM     24  C   UNL     1      -3.801  13.158  22.449  0.00  0.00    +0.000 A 
ATOM     25  C   UNL     1      -3.206  13.149  21.185  0.00  0.00    +0.000 A 
ATOM     26  C   UNL     1      -2.034  12.427  20.975  0.00  0.00    +0.000 A 
ATOM     27  F   UNL     1      -1.478  12.450  19.757  0.00  0.00    +0.000 F 
ENDBRANCH  18  21
ENDBRANCH  17  18
ENDBRANCH   4  17
TORSDOF 6
ENDMDL
MODEL 9
REMARK VINA RESULT:      -7.9      4.171      9.785
REMARK  Name = 
REMARK  6 active torsions:
REMARK  status: ('A' for Active; 'I' for Inactive)
REMARK    1  A    between atoms: C_2  and  O_3
REMARK    2  A    between atoms: C_2  and  C_4
REMARK    3  A    between atoms: C_7  and  C_8
REMARK    4  A    between atoms: C_11  and  O_12
REMARK    5  A    between atoms: O_12  and  S_13
REMARK    6  A    between atoms: S_13  and  C_16
REMARK                            x       y       z     vdW  Elec       q    Type
REMARK                         _______ _______ _______ _____ _____    ______ ____
ROOT
ATOM      1  C   UNL     1       2.127   7.451  19.282  0.00  0.00    +0.000 A 
ATOM      2  C   UNL     1       2.200   8.292  18.155  0.00  0.00    +0.000 A 
ATOM      3  C   UNL     1       1.711   9.604  18.187  0.00  0.00    +0.000 A 
ATOM      4  C   UNL     1       1.107  10.103  19.338  0.00  0.00    +0.000 A 
ATOM      5  C   UNL     1       1.021   9.293  20.465  0.00  0.00    +0.000 A 
ATOM      6  C   UNL     1       1.525   7.987  20.434  0.00  0.00    +0.000 A 
ENDROOT
BRANCH   1  10
ATOM      7  C   UNL     1       3.681   3.418  19.211  0.00  0.00    +0.000 A 
ATOM      8  C   UNL     1       2.868   3.843  20.263  0.00  0.00    +0.000 A 
ATOM      9  C   UNL     1       2.377   5.153  20.288  0.00  0.00    +0.000 A 
ATOM     10  C   UNL     1       2.686   6.076  19.272  0.00  0.00    +0.000 A 
ATOM     11  C   UNL     1       3.512   5.623  18.225  0.00  0.00    +0.000 A 
ATOM     12  C   UNL     1       3.991   4.307  18.179  0.00  0.00    +0.000 A 
BRANCH   7  14
ATOM     13  O   UNL     1       3.664   1.156  18.479  0.00  0.00    +0.000 OA
ATOM     14  C   UNL     1       4.146   2.008  19.204  0.00  0.00    +0.000 C 
BRANCH  14  15
ATOM     15  O   UNL     1       5.120   1.753  20.101  0.00  0.00    +0.000 OA
ATOM     16  H   UNL     1       4.875   1.131  20.810  0.00  0.00    +0.000 HD
ENDBRANCH  14  15
ENDBRANCH   7  14
ENDBRANCH   1  10
BRANCH   4  17
ATOM     17  O   UNL     1       0.665  11.401  19.274  0.00  0.00    +0.000 OA
BRANCH  17  18
ATOM     18  S   UNL     1      -0.902  11.743  18.984  0.00  0.00    +0.000 S 
ATOM     19  O   UNL     1      -0.957  12.952  18.179  0.00  0.00    +0.000 OA
ATOM     20  O   UNL     1      -1.597  10.540  18.562  0.00  0.00    +0.000 OA
BRANCH  18  21
ATOM     21  C   UNL     1      -1.600  12.169  20.547  0.00  0.00    +0.000 A 
ATOM     22  C   UNL     1      -0.794  12.134  21.691  0.00  0.00    +0.000 A 
ATOM     23  C   UNL     1      -1.339  12.483  22.926  0.00  0.00    +0.000 A 
ATOM     24  C   UNL     1      -2.679  12.859  23.016  0.00  0.00    +0.000 A 
ATOM     25  C   UNL     1      -3.477  12.886  21.870  0.00  0.00    +0.000 A 
ATOM     26  C   UNL     1      -2.932  12.540  20.636  0.00  0.00    +0.000 A 
ATOM     27  F   UNL     1      -3.717  12.591  19.553  0.00  0.00    +0.000 F 
ENDBRANCH  18  21
ENDBRANCH  17  18
ENDBRANCH   4  17
TORSDOF 6
ENDMDL
