MODEL 1
REMARK VINA RESULT:      -7.1      0.000      0.000
REMARK  Name = 
REMARK  5 active torsions:
REMARK  status: ('A' for Active; 'I' for Inactive)
REMARK    1  A    between atoms: C_1  and  O_2
REMARK    2  A    between atoms: O_2  and  C_3
REMARK    3  A    between atoms: C_3  and  N_4
REMARK    4  A    between atoms: C_9  and  C_10
REMARK    5  A    between atoms: C_20  and  C_21
REMARK                            x       y       z     vdW  Elec       q    Type
REMARK                         _______ _______ _______ _____ _____    ______ ____
ROOT
ATOM      1  N   UNL     1       5.641   5.090  17.529  0.00  0.00    +0.000 N 
ATOM      2  C   UNL     1       5.708   4.497  18.811  0.00  0.00    +0.000 C 
ATOM      3  C   UNL     1       4.546   4.185  19.420  0.00  0.00    +0.000 C 
ATOM      4  C   UNL     1       3.490   5.219  19.350  0.00  0.00    +0.000 A 
ATOM      5  C   UNL     1       3.542   6.146  18.284  0.00  0.00    +0.000 A 
ATOM      6  C   UNL     1       2.841   7.387  18.379  0.00  0.00    +0.000 A 
ATOM      7  C   UNL     1       3.047   8.481  17.372  0.00  0.00    +0.000 C 
ATOM      8  C   UNL     1       2.016   7.588  19.539  0.00  0.00    +0.000 A 
ATOM      9  C   UNL     1       1.836   6.516  20.427  0.00  0.00    +0.000 A 
ATOM     10  N   UNL     1       0.912   6.907  21.366  0.00  0.00    +0.000 N 
ATOM     11  C   UNL     1       0.631   8.236  21.260  0.00  0.00    +0.000 A 
ATOM     12  C   UNL     1      -0.137   9.020  22.130  0.00  0.00    +0.000 A 
ATOM     13  C   UNL     1      -0.268  10.370  21.826  0.00  0.00    +0.000 A 
ATOM     14  C   UNL     1       0.334  10.890  20.685  0.00  0.00    +0.000 A 
ATOM     15  C   UNL     1       1.095  10.077  19.816  0.00  0.00    +0.000 A 
ATOM     16  C   UNL     1       1.270   8.704  20.116  0.00  0.00    +0.000 A 
ATOM     17  C   UNL     1       2.530   5.301  20.358  0.00  0.00    +0.000 A 
ATOM     18  C   UNL     1       2.284   4.150  21.290  0.00  0.00    +0.000 C 
ATOM     19  C   UNL     1       4.337   5.625  17.073  0.00  0.00    +0.000 C 
ATOM     20  H   UNL     1       0.585   6.330  22.115  0.00  0.00    +0.000 HD
ENDROOT
BRANCH   1  21
ATOM     21  C   UNL     1       6.533   4.575  16.499  0.00  0.00    +0.000 C 
BRANCH  21  23
ATOM     22  C   UNL     1       6.206   3.922  14.267  0.00  0.00    +0.000 C 
ATOM     23  O   UNL     1       5.847   3.689  15.624  0.00  0.00    +0.000 OA
ENDBRANCH  21  23
ENDBRANCH   1  21
TORSDOF 2
ENDMDL
MODEL 2
REMARK VINA RESULT:      -6.9      0.858      1.139
REMARK  Name = 
REMARK  5 active torsions:
REMARK  status: ('A' for Active; 'I' for Inactive)
REMARK    1  A    between atoms: C_1  and  O_2
REMARK    2  A    between atoms: O_2  and  C_3
REMARK    3  A    between atoms: C_3  and  N_4
REMARK    4  A    between atoms: C_9  and  C_10
REMARK    5  A    between atoms: C_20  and  C_21
REMARK                            x       y       z     vdW  Elec       q    Type
REMARK                         _______ _______ _______ _____ _____    ______ ____
ROOT
ATOM      1  N   UNL     1       5.484   5.402  17.583  0.00  0.00    +0.000 N 
ATOM      2  C   UNL     1       5.547   4.766  18.844  0.00  0.00    +0.000 C 
ATOM      3  C   UNL     1       4.385   4.429  19.438  0.00  0.00    +0.000 C 
ATOM      4  C   UNL     1       3.325   5.460  19.399  0.00  0.00    +0.000 A 
ATOM      5  C   UNL     1       3.378   6.424  18.365  0.00  0.00    +0.000 A 
ATOM      6  C   UNL     1       2.672   7.658  18.500  0.00  0.00    +0.000 A 
ATOM      7  C   UNL     1       2.877   8.786  17.531  0.00  0.00    +0.000 C 
ATOM      8  C   UNL     1       1.841   7.816  19.663  0.00  0.00    +0.000 A 
ATOM      9  C   UNL     1       1.662   6.715  20.513  0.00  0.00    +0.000 A 
ATOM     10  N   UNL     1       0.733   7.070  21.461  0.00  0.00    +0.000 N 
ATOM     11  C   UNL     1       0.447   8.401  21.399  0.00  0.00    +0.000 A 
ATOM     12  C   UNL     1      -0.327   9.152  22.292  0.00  0.00    +0.000 A 
ATOM     13  C   UNL     1      -0.461  10.512  22.034  0.00  0.00    +0.000 A 
ATOM     14  C   UNL     1       0.142  11.072  20.913  0.00  0.00    +0.000 A 
ATOM     15  C   UNL     1       0.910  10.292  20.020  0.00  0.00    +0.000 A 
ATOM     16  C   UNL     1       1.089   8.910  20.274  0.00  0.00    +0.000 A 
ATOM     17  C   UNL     1       2.361   5.505  20.406  0.00  0.00    +0.000 A 
ATOM     18  C   UNL     1       2.115   4.322  21.297  0.00  0.00    +0.000 C 
ATOM     19  C   UNL     1       4.179   5.947  17.140  0.00  0.00    +0.000 C 
ATOM     20  H   UNL     1       0.405   6.467  22.189  0.00  0.00    +0.000 HD
ENDROOT
BRANCH   1  21
ATOM     21  C   UNL     1       6.381   4.925  16.539  0.00  0.00    +0.000 C 
BRANCH  21  23
ATOM     22  C   UNL     1       7.540   6.850  17.221  0.00  0.00    +0.000 C 
ATOM     23  O   UNL     1       7.304   5.935  16.157  0.00  0.00    +0.000 OA
ENDBRANCH  21  23
ENDBRANCH   1  21
TORSDOF 2
ENDMDL
MODEL 3
REMARK VINA RESULT:      -6.8      4.786      9.406
REMARK  Name = 
REMARK  5 active torsions:
REMARK  status: ('A' for Active; 'I' for Inactive)
REMARK    1  A    between atoms: C_1  and  O_2
REMARK    2  A    between atoms: O_2  and  C_3
REMARK    3  A    between atoms: C_3  and  N_4
REMARK    4  A    between atoms: C_9  and  C_10
REMARK    5  A    between atoms: C_20  and  C_21
REMARK                            x       y       z     vdW  Elec       q    Type
REMARK                         _______ _______ _______ _____ _____    ______ ____
ROOT
ATOM      1  N   UNL     1      -1.117  13.854  23.405  0.00  0.00    +0.000 N 
ATOM      2  C   UNL     1      -0.544  14.662  22.396  0.00  0.00    +0.000 C 
ATOM      3  C   UNL     1      -0.774  14.321  21.112  0.00  0.00    +0.000 C 
ATOM      4  C   UNL     1      -0.643  12.881  20.799  0.00  0.00    +0.000 A 
ATOM      5  C   UNL     1      -0.819  11.956  21.855  0.00  0.00    +0.000 A 
ATOM      6  C   UNL     1      -0.305  10.629  21.738  0.00  0.00    +0.000 A 
ATOM      7  C   UNL     1      -0.280   9.693  22.911  0.00  0.00    +0.000 C 
ATOM      8  C   UNL     1       0.288  10.263  20.480  0.00  0.00    +0.000 A 
ATOM      9  C   UNL     1       0.203  11.167  19.411  0.00  0.00    +0.000 A 
ATOM     10  N   UNL     1       0.715  10.543  18.299  0.00  0.00    +0.000 N 
ATOM     11  C   UNL     1       1.310   9.362  18.625  0.00  0.00    +0.000 A 
ATOM     12  C   UNL     1       2.068   8.528  17.793  0.00  0.00    +0.000 A 
ATOM     13  C   UNL     1       2.600   7.374  18.359  0.00  0.00    +0.000 A 
ATOM     14  C   UNL     1       2.353   7.074  19.694  0.00  0.00    +0.000 A 
ATOM     15  C   UNL     1       1.576   7.925  20.510  0.00  0.00    +0.000 A 
ATOM     16  C   UNL     1       1.047   9.123  19.970  0.00  0.00    +0.000 A 
ATOM     17  C   UNL     1      -0.279  12.479  19.514  0.00  0.00    +0.000 A 
ATOM     18  C   UNL     1      -0.407  13.412  18.345  0.00  0.00    +0.000 C 
ATOM     19  C   UNL     1      -1.649  12.526  23.019  0.00  0.00    +0.000 C 
ATOM     20  H   UNL     1       0.765  10.955  17.389  0.00  0.00    +0.000 HD
ENDROOT
BRANCH   1  21
ATOM     21  C   UNL     1      -1.778  14.526  24.515  0.00  0.00    +0.000 C 
BRANCH  21  23
ATOM     22  C   UNL     1      -1.478  16.303  26.021  0.00  0.00    +0.000 C 
ATOM     23  O   UNL     1      -0.844  15.248  25.306  0.00  0.00    +0.000 OA
ENDBRANCH  21  23
ENDBRANCH   1  21
TORSDOF 2
ENDMDL
MODEL 4
REMARK VINA RESULT:      -6.6      4.638      9.267
REMARK  Name = 
REMARK  5 active torsions:
REMARK  status: ('A' for Active; 'I' for Inactive)
REMARK    1  A    between atoms: C_1  and  O_2
REMARK    2  A    between atoms: O_2  and  C_3
REMARK    3  A    between atoms: C_3  and  N_4
REMARK    4  A    between atoms: C_9  and  C_10
REMARK    5  A    between atoms: C_20  and  C_21
REMARK                            x       y       z     vdW  Elec       q    Type
REMARK                         _______ _______ _______ _____ _____    ______ ____
ROOT
ATOM      1  N   UNL     1      -1.386  13.539  23.304  0.00  0.00    +0.000 N 
ATOM      2  C   UNL     1      -0.771  14.395  22.363  0.00  0.00    +0.000 C 
ATOM      3  C   UNL     1      -0.913  14.099  21.056  0.00  0.00    +0.000 C 
ATOM      4  C   UNL     1      -0.730  12.674  20.700  0.00  0.00    +0.000 A 
ATOM      5  C   UNL     1      -0.951  11.707  21.709  0.00  0.00    +0.000 A 
ATOM      6  C   UNL     1      -0.401  10.396  21.576  0.00  0.00    +0.000 A 
ATOM      7  C   UNL     1      -0.428   9.418  22.715  0.00  0.00    +0.000 C 
ATOM      8  C   UNL     1       0.277  10.089  20.346  0.00  0.00    +0.000 A 
ATOM      9  C   UNL     1       0.239  11.031  19.307  0.00  0.00    +0.000 A 
ATOM     10  N   UNL     1       0.832  10.459  18.208  0.00  0.00    +0.000 N 
ATOM     11  C   UNL     1       1.432   9.278  18.527  0.00  0.00    +0.000 A 
ATOM     12  C   UNL     1       2.259   8.492  17.715  0.00  0.00    +0.000 A 
ATOM     13  C   UNL     1       2.779   7.328  18.271  0.00  0.00    +0.000 A 
ATOM     14  C   UNL     1       2.457   6.974  19.577  0.00  0.00    +0.000 A 
ATOM     15  C   UNL     1       1.612   7.778  20.373  0.00  0.00    +0.000 A 
ATOM     16  C   UNL     1       1.091   8.985  19.843  0.00  0.00    +0.000 A 
ATOM     17  C   UNL     1      -0.279  12.328  19.427  0.00  0.00    +0.000 A 
ATOM     18  C   UNL     1      -0.355  13.301  18.286  0.00  0.00    +0.000 C 
ATOM     19  C   UNL     1      -1.864  12.217  22.838  0.00  0.00    +0.000 C 
ATOM     20  H   UNL     1       0.929  10.906  17.317  0.00  0.00    +0.000 HD
ENDROOT
BRANCH   1  21
ATOM     21  C   UNL     1      -2.130  14.156  24.395  0.00  0.00    +0.000 C 
BRANCH  21  23
ATOM     22  C   UNL     1      -4.306  14.915  23.943  0.00  0.00    +0.000 C 
ATOM     23  O   UNL     1      -3.506  13.806  24.338  0.00  0.00    +0.000 OA
ENDBRANCH  21  23
ENDBRANCH   1  21
TORSDOF 2
ENDMDL
MODEL 5
REMARK VINA RESULT:      -6.4      3.520      7.138
REMARK  Name = 
REMARK  5 active torsions:
REMARK  status: ('A' for Active; 'I' for Inactive)
REMARK    1  A    between atoms: C_1  and  O_2
REMARK    2  A    between atoms: O_2  and  C_3
REMARK    3  A    between atoms: C_3  and  N_4
REMARK    4  A    between atoms: C_9  and  C_10
REMARK    5  A    between atoms: C_20  and  C_21
REMARK                            x       y       z     vdW  Elec       q    Type
REMARK                         _______ _______ _______ _____ _____    ______ ____
ROOT
ATOM      1  N   UNL     1      -0.263  12.524  19.039  0.00  0.00    +0.000 N 
ATOM      2  C   UNL     1      -1.100  12.091  20.094  0.00  0.00    +0.000 C 
ATOM      3  C   UNL     1      -0.528  11.425  21.117  0.00  0.00    +0.000 C 
ATOM      4  C   UNL     1       0.451  10.384  20.733  0.00  0.00    +0.000 A 
ATOM      5  C   UNL     1       1.092  10.509  19.479  0.00  0.00    +0.000 A 
ATOM      6  C   UNL     1       1.701   9.370  18.869  0.00  0.00    +0.000 A 
ATOM      7  C   UNL     1       2.196   9.412  17.453  0.00  0.00    +0.000 C 
ATOM      8  C   UNL     1       1.722   8.150  19.630  0.00  0.00    +0.000 A 
ATOM      9  C   UNL     1       1.276   8.182  20.960  0.00  0.00    +0.000 A 
ATOM     10  N   UNL     1       1.518   6.946  21.508  0.00  0.00    +0.000 N 
ATOM     11  C   UNL     1       1.908   6.051  20.557  0.00  0.00    +0.000 A 
ATOM     12  C   UNL     1       2.092   4.671  20.705  0.00  0.00    +0.000 A 
ATOM     13  C   UNL     1       2.476   3.953  19.578  0.00  0.00    +0.000 A 
ATOM     14  C   UNL     1       2.682   4.609  18.369  0.00  0.00    +0.000 A 
ATOM     15  C   UNL     1       2.501   6.004  18.247  0.00  0.00    +0.000 A 
ATOM     16  C   UNL     1       2.081   6.757  19.371  0.00  0.00    +0.000 A 
ATOM     17  C   UNL     1       0.658   9.284  21.566  0.00  0.00    +0.000 A 
ATOM     18  C   UNL     1       0.236   9.312  23.006  0.00  0.00    +0.000 C 
ATOM     19  C   UNL     1       1.102  11.955  18.951  0.00  0.00    +0.000 C 
ATOM     20  H   UNL     1       1.310   6.693  22.453  0.00  0.00    +0.000 HD
ENDROOT
BRANCH   1  21
ATOM     21  C   UNL     1      -0.436  13.887  18.555  0.00  0.00    +0.000 C 
BRANCH  21  23
ATOM     22  C   UNL     1       0.563  15.617  19.790  0.00  0.00    +0.000 C 
ATOM     23  O   UNL     1       0.743  14.655  18.757  0.00  0.00    +0.000 OA
ENDBRANCH  21  23
ENDBRANCH   1  21
TORSDOF 2
ENDMDL
MODEL 6
REMARK VINA RESULT:      -6.2      3.062      7.472
REMARK  Name = 
REMARK  5 active torsions:
REMARK  status: ('A' for Active; 'I' for Inactive)
REMARK    1  A    between atoms: C_1  and  O_2
REMARK    2  A    between atoms: O_2  and  C_3
REMARK    3  A    between atoms: C_3  and  N_4
REMARK    4  A    between atoms: C_9  and  C_10
REMARK    5  A    between atoms: C_20  and  C_21
REMARK                            x       y       z     vdW  Elec       q    Type
REMARK                         _______ _______ _______ _____ _____    ______ ____
ROOT
ATOM      1  N   UNL     1       0.252   9.483  22.219  0.00  0.00    +0.000 N 
ATOM      2  C   UNL     1       0.917  10.539  21.555  0.00  0.00    +0.000 C 
ATOM      3  C   UNL     1       1.006  10.481  20.211  0.00  0.00    +0.000 C 
ATOM      4  C   UNL     1       1.380   9.162  19.653  0.00  0.00    +0.000 A 
ATOM      5  C   UNL     1       1.104   8.013  20.429  0.00  0.00    +0.000 A 
ATOM      6  C   UNL     1       1.794   6.790  20.168  0.00  0.00    +0.000 A 
ATOM      7  C   UNL     1       1.689   5.618  21.101  0.00  0.00    +0.000 C 
ATOM      8  C   UNL     1       2.679   6.763  19.035  0.00  0.00    +0.000 A 
ATOM      9  C   UNL     1       2.707   7.876  18.181  0.00  0.00    +0.000 A 
ATOM     10  N   UNL     1       3.514   7.560  17.116  0.00  0.00    +0.000 N 
ATOM     11  C   UNL     1       4.172   6.385  17.325  0.00  0.00    +0.000 A 
ATOM     12  C   UNL     1       5.186   5.822  16.540  0.00  0.00    +0.000 A 
ATOM     13  C   UNL     1       5.728   4.614  16.968  0.00  0.00    +0.000 A 
ATOM     14  C   UNL     1       5.246   4.003  18.121  0.00  0.00    +0.000 A 
ATOM     15  C   UNL     1       4.214   4.586  18.890  0.00  0.00    +0.000 A 
ATOM     16  C   UNL     1       3.665   5.830  18.495  0.00  0.00    +0.000 A 
ATOM     17  C   UNL     1       2.052   9.089  18.433  0.00  0.00    +0.000 A 
ATOM     18  C   UNL     1       2.056  10.249  17.480  0.00  0.00    +0.000 C 
ATOM     19  C   UNL     1      -0.017   8.240  21.460  0.00  0.00    +0.000 C 
ATOM     20  H   UNL     1       3.702   8.170  16.345  0.00  0.00    +0.000 HD
ENDROOT
BRANCH   1  21
ATOM     21  C   UNL     1      -0.707   9.835  23.258  0.00  0.00    +0.000 C 
BRANCH  21  23
ATOM     22  C   UNL     1      -2.104  11.720  23.156  0.00  0.00    +0.000 C 
ATOM     23  O   UNL     1      -0.789  11.244  23.423  0.00  0.00    +0.000 OA
ENDBRANCH  21  23
ENDBRANCH   1  21
TORSDOF 2
ENDMDL
MODEL 7
REMARK VINA RESULT:      -6.2      4.511      8.779
REMARK  Name = 
REMARK  5 active torsions:
REMARK  status: ('A' for Active; 'I' for Inactive)
REMARK    1  A    between atoms: C_1  and  O_2
REMARK    2  A    between atoms: O_2  and  C_3
REMARK    3  A    between atoms: C_3  and  N_4
REMARK    4  A    between atoms: C_9  and  C_10
REMARK    5  A    between atoms: C_20  and  C_21
REMARK                            x       y       z     vdW  Elec       q    Type
REMARK                         _______ _______ _______ _____ _____    ______ ____
ROOT
ATOM      1  N   UNL     1      -2.430  13.430  21.616  0.00  0.00    +0.000 N 
ATOM      2  C   UNL     1      -2.831  12.377  22.471  0.00  0.00    +0.000 C 
ATOM      3  C   UNL     1      -1.866  11.641  23.058  0.00  0.00    +0.000 C 
ATOM      4  C   UNL     1      -0.747  11.236  22.178  0.00  0.00    +0.000 A 
ATOM      5  C   UNL     1      -0.485  12.025  21.035  0.00  0.00    +0.000 A 
ATOM      6  C   UNL     1       0.266  11.483  19.947  0.00  0.00    +0.000 A 
ATOM      7  C   UNL     1       0.378  12.207  18.637  0.00  0.00    +0.000 C 
ATOM      8  C   UNL     1       0.817  10.167  20.121  0.00  0.00    +0.000 A 
ATOM      9  C   UNL     1       0.709   9.556  21.380  0.00  0.00    +0.000 A 
ATOM     10  N   UNL     1       1.420   8.382  21.332  0.00  0.00    +0.000 N 
ATOM     11  C   UNL     1       1.817   8.094  20.061  0.00  0.00    +0.000 A 
ATOM     12  C   UNL     1       2.422   6.919  19.599  0.00  0.00    +0.000 A 
ATOM     13  C   UNL     1       2.719   6.844  18.242  0.00  0.00    +0.000 A 
ATOM     14  C   UNL     1       2.435   7.918  17.405  0.00  0.00    +0.000 A 
ATOM     15  C   UNL     1       1.834   9.098  17.897  0.00  0.00    +0.000 A 
ATOM     16  C   UNL     1       1.492   9.191  19.269  0.00  0.00    +0.000 A 
ATOM     17  C   UNL     1      -0.039  10.065  22.449  0.00  0.00    +0.000 A 
ATOM     18  C   UNL     1      -0.099   9.418  23.803  0.00  0.00    +0.000 C 
ATOM     19  C   UNL     1      -1.019  13.463  21.163  0.00  0.00    +0.000 C 
ATOM     20  H   UNL     1       1.525   7.749  22.100  0.00  0.00    +0.000 HD
ENDROOT
BRANCH   1  21
ATOM     21  C   UNL     1      -3.098  14.715  21.767  0.00  0.00    +0.000 C 
BRANCH  21  23
ATOM     22  C   UNL     1      -4.442  15.778  23.373  0.00  0.00    +0.000 C 
ATOM     23  O   UNL     1      -4.245  14.601  22.598  0.00  0.00    +0.000 OA
ENDBRANCH  21  23
ENDBRANCH   1  21
TORSDOF 2
ENDMDL
MODEL 8
REMARK VINA RESULT:      -6.2      5.286      8.309
REMARK  Name = 
REMARK  5 active torsions:
REMARK  status: ('A' for Active; 'I' for Inactive)
REMARK    1  A    between atoms: C_1  and  O_2
REMARK    2  A    between atoms: O_2  and  C_3
REMARK    3  A    between atoms: C_3  and  N_4
REMARK    4  A    between atoms: C_9  and  C_10
REMARK    5  A    between atoms: C_20  and  C_21
REMARK                            x       y       z     vdW  Elec       q    Type
REMARK                         _______ _______ _______ _____ _____    ______ ____
ROOT
ATOM      1  N   UNL     1       0.030  10.585  18.639  0.00  0.00    +0.000 N 
ATOM      2  C   UNL     1      -0.897   9.884  17.833  0.00  0.00    +0.000 C 
ATOM      3  C   UNL     1      -1.958  10.565  17.356  0.00  0.00    +0.000 C 
ATOM      4  C   UNL     1      -2.638  11.450  18.328  0.00  0.00    +0.000 A 
ATOM      5  C   UNL     1      -1.888  11.921  19.431  0.00  0.00    +0.000 A 
ATOM      6  C   UNL     1      -2.556  12.407  20.596  0.00  0.00    +0.000 A 
ATOM      7  C   UNL     1      -1.805  12.709  21.860  0.00  0.00    +0.000 C 
ATOM      8  C   UNL     1      -3.991  12.489  20.545  0.00  0.00    +0.000 A 
ATOM      9  C   UNL     1      -4.634  12.226  19.325  0.00  0.00    +0.000 A 
ATOM     10  N   UNL     1      -5.970  12.499  19.494  0.00  0.00    +0.000 N 
ATOM     11  C   UNL     1      -6.266  12.729  20.804  0.00  0.00    +0.000 A 
ATOM     12  C   UNL     1      -7.533  12.887  21.380  0.00  0.00    +0.000 A 
ATOM     13  C   UNL     1      -7.589  13.092  22.754  0.00  0.00    +0.000 A 
ATOM     14  C   UNL     1      -6.416  13.157  23.498  0.00  0.00    +0.000 A 
ATOM     15  C   UNL     1      -5.148  13.006  22.893  0.00  0.00    +0.000 A 
ATOM     16  C   UNL     1      -5.062  12.765  21.500  0.00  0.00    +0.000 A 
ATOM     17  C   UNL     1      -3.996  11.731  18.180  0.00  0.00    +0.000 A 
ATOM     18  C   UNL     1      -4.696  11.506  16.871  0.00  0.00    +0.000 C 
ATOM     19  C   UNL     1      -0.371  11.907  19.175  0.00  0.00    +0.000 C 
ATOM     20  H   UNL     1      -6.663  12.411  18.778  0.00  0.00    +0.000 HD
ENDROOT
BRANCH   1  21
ATOM     21  C   UNL     1       1.447  10.394  18.361  0.00  0.00    +0.000 C 
BRANCH  21  23
ATOM     22  C   UNL     1       2.558   8.362  17.976  0.00  0.00    +0.000 C 
ATOM     23  O   UNL     1       1.651   9.323  17.450  0.00  0.00    +0.000 OA
ENDBRANCH  21  23
ENDBRANCH   1  21
TORSDOF 2
ENDMDL
MODEL 9
REMARK VINA RESULT:      -6.1      3.297      5.495
REMARK  Name = 
REMARK  5 active torsions:
REMARK  status: ('A' for Active; 'I' for Inactive)
REMARK    1  A    between atoms: C_1  and  O_2
REMARK    2  A    between atoms: O_2  and  C_3
REMARK    3  A    between atoms: C_3  and  N_4
REMARK    4  A    between atoms: C_9  and  C_10
REMARK    5  A    between atoms: C_20  and  C_21
REMARK                            x       y       z     vdW  Elec       q    Type
REMARK                         _______ _______ _______ _____ _____    ______ ____
ROOT
ATOM      1  N   UNL     1       7.077   7.979  17.681  0.00  0.00    +0.000 N 
ATOM      2  C   UNL     1       7.783   6.792  17.377  0.00  0.00    +0.000 C 
ATOM      3  C   UNL     1       7.190   5.899  16.560  0.00  0.00    +0.000 C 
ATOM      4  C   UNL     1       5.761   5.630  16.839  0.00  0.00    +0.000 A 
ATOM      5  C   UNL     1       5.019   6.628  17.511  0.00  0.00    +0.000 A 
ATOM      6  C   UNL     1       3.801   6.289  18.175  0.00  0.00    +0.000 A 
ATOM      7  C   UNL     1       3.103   7.266  19.075  0.00  0.00    +0.000 C 
ATOM      8  C   UNL     1       3.329   4.938  18.033  0.00  0.00    +0.000 A 
ATOM      9  C   UNL     1       4.005   4.082  17.150  0.00  0.00    +0.000 A 
ATOM     10  N   UNL     1       3.294   2.908  17.087  0.00  0.00    +0.000 N 
ATOM     11  C   UNL     1       2.308   2.875  18.027  0.00  0.00    +0.000 A 
ATOM     12  C   UNL     1       1.486   1.793  18.367  0.00  0.00    +0.000 A 
ATOM     13  C   UNL     1       0.558   1.991  19.383  0.00  0.00    +0.000 A 
ATOM     14  C   UNL     1       0.457   3.231  20.005  0.00  0.00    +0.000 A 
ATOM     15  C   UNL     1       1.290   4.311  19.637  0.00  0.00    +0.000 A 
ATOM     16  C   UNL     1       2.266   4.129  18.626  0.00  0.00    +0.000 A 
ATOM     17  C   UNL     1       5.211   4.392  16.508  0.00  0.00    +0.000 A 
ATOM     18  C   UNL     1       5.889   3.478  15.528  0.00  0.00    +0.000 C 
ATOM     19  C   UNL     1       5.631   8.032  17.363  0.00  0.00    +0.000 C 
ATOM     20  H   UNL     1       3.543   2.122  16.519  0.00  0.00    +0.000 HD
ENDROOT
BRANCH   1  21
ATOM     21  C   UNL     1       7.809   9.237  17.612  0.00  0.00    +0.000 C 
BRANCH  21  23
ATOM     22  C   UNL     1       9.280  10.644  18.783  0.00  0.00    +0.000 C 
ATOM     23  O   UNL     1       8.789   9.316  18.638  0.00  0.00    +0.000 OA
ENDBRANCH  21  23
ENDBRANCH   1  21
TORSDOF 2
ENDMDL
