MODEL 1
REMARK VINA RESULT:      -7.9      0.000      0.000
REMARK  Name = 
REMARK  2 active torsions:
REMARK  status: ('A' for Active; 'I' for Inactive)
REMARK    1  A    between atoms: C_1  and  C_2
REMARK    2  A    between atoms: C_4  and  C_5
REMARK                            x       y       z     vdW  Elec       q    Type
REMARK                         _______ _______ _______ _____ _____    ______ ____
ROOT
ATOM      1  C   UNL     1       4.369   6.986  17.028  0.00  0.00    +0.000 C 
ATOM      2  C   UNL     1       5.219   6.539  18.223  0.00  0.00    +0.000 C 
ATOM      3  C   UNL     1       6.720   6.580  17.853  0.00  0.00    +0.000 C 
ATOM      4  C   UNL     1       7.250   5.207  17.382  0.00  0.00    +0.000 C 
ATOM      5  N   UNL     1       6.972   4.265  18.454  0.00  0.00    +0.000 N 
ATOM      6  C   UNL     1       5.707   4.192  18.925  0.00  0.00    +0.000 A 
ATOM      7  N   UNL     1       5.127   3.144  19.450  0.00  0.00    +0.000 NA
ATOM      8  C   UNL     1       3.824   3.523  19.644  0.00  0.00    +0.000 A 
ATOM      9  C   UNL     1       2.753   2.764  20.137  0.00  0.00    +0.000 A 
ATOM     10  C   UNL     1       1.492   3.359  20.228  0.00  0.00    +0.000 A 
ATOM     11  C   UNL     1       1.306   4.693  19.863  0.00  0.00    +0.000 A 
ATOM     12  C   UNL     1       2.368   5.473  19.389  0.00  0.00    +0.000 A 
ATOM     13  C   UNL     1       3.616   4.850  19.267  0.00  0.00    +0.000 A 
ATOM     14  N   UNL     1       4.840   5.249  18.786  0.00  0.00    +0.000 N 
ATOM     15  H   UNL     1       7.449   3.370  18.376  0.00  0.00    +0.000 HD
ENDROOT
BRANCH   4  16
ATOM     16  C   UNL     1       6.760   4.721  16.014  0.00  0.00    +0.000 A 
ATOM     17  C   UNL     1       7.388   5.178  14.842  0.00  0.00    +0.000 A 
ATOM     18  C   UNL     1       6.973   4.735  13.580  0.00  0.00    +0.000 A 
ATOM     19  C   UNL     1       5.930   3.820  13.464  0.00  0.00    +0.000 A 
ATOM     20  C   UNL     1       5.297   3.351  14.606  0.00  0.00    +0.000 A 
ATOM     21  C   UNL     1       5.711   3.792  15.865  0.00  0.00    +0.000 A 
ENDBRANCH   4  16
TORSDOF 1
ENDMDL
MODEL 2
REMARK VINA RESULT:      -7.7      0.136      1.082
REMARK  Name = 
REMARK  2 active torsions:
REMARK  status: ('A' for Active; 'I' for Inactive)
REMARK    1  A    between atoms: C_1  and  C_2
REMARK    2  A    between atoms: C_4  and  C_5
REMARK                            x       y       z     vdW  Elec       q    Type
REMARK                         _______ _______ _______ _____ _____    ______ ____
ROOT
ATOM      1  C   UNL     1       4.364   6.954  16.851  0.00  0.00    +0.000 C 
ATOM      2  C   UNL     1       5.203   6.565  18.073  0.00  0.00    +0.000 C 
ATOM      3  C   UNL     1       6.709   6.648  17.734  0.00  0.00    +0.000 C 
ATOM      4  C   UNL     1       7.294   5.283  17.308  0.00  0.00    +0.000 C 
ATOM      5  N   UNL     1       7.026   4.358  18.396  0.00  0.00    +0.000 N 
ATOM      6  C   UNL     1       5.754   4.253  18.843  0.00  0.00    +0.000 A 
ATOM      7  N   UNL     1       5.199   3.200  19.382  0.00  0.00    +0.000 NA
ATOM      8  C   UNL     1       3.880   3.538  19.539  0.00  0.00    +0.000 A 
ATOM      9  C   UNL     1       2.824   2.756  20.028  0.00  0.00    +0.000 A 
ATOM     10  C   UNL     1       1.542   3.309  20.079  0.00  0.00    +0.000 A 
ATOM     11  C   UNL     1       1.320   4.627  19.677  0.00  0.00    +0.000 A 
ATOM     12  C   UNL     1       2.365   5.431  19.207  0.00  0.00    +0.000 A 
ATOM     13  C   UNL     1       3.635   4.848  19.126  0.00  0.00    +0.000 A 
ATOM     14  N   UNL     1       4.855   5.277  18.660  0.00  0.00    +0.000 N 
ATOM     15  H   UNL     1       7.534   3.478  18.350  0.00  0.00    +0.000 HD
ENDROOT
BRANCH   4  16
ATOM     16  C   UNL     1       6.851   4.748  15.942  0.00  0.00    +0.000 A 
ATOM     17  C   UNL     1       5.839   3.775  15.865  0.00  0.00    +0.000 A 
ATOM     18  C   UNL     1       5.402   3.284  14.628  0.00  0.00    +0.000 A 
ATOM     19  C   UNL     1       5.959   3.762  13.445  0.00  0.00    +0.000 A 
ATOM     20  C   UNL     1       6.956   4.727  13.495  0.00  0.00    +0.000 A 
ATOM     21  C   UNL     1       7.391   5.217  14.728  0.00  0.00    +0.000 A 
ENDBRANCH   4  16
TORSDOF 1
ENDMDL
MODEL 3
REMARK VINA RESULT:      -7.4      5.435      8.072
REMARK  Name = 
REMARK  2 active torsions:
REMARK  status: ('A' for Active; 'I' for Inactive)
REMARK    1  A    between atoms: C_1  and  C_2
REMARK    2  A    between atoms: C_4  and  C_5
REMARK                            x       y       z     vdW  Elec       q    Type
REMARK                         _______ _______ _______ _____ _____    ______ ____
ROOT
ATOM      1  C   UNL     1      -0.415   9.366  21.272  0.00  0.00    +0.000 C 
ATOM      2  C   UNL     1       0.869   9.977  20.700  0.00  0.00    +0.000 C 
ATOM      3  C   UNL     1       0.635  11.462  20.336  0.00  0.00    +0.000 C 
ATOM      4  C   UNL     1       0.272  11.653  18.846  0.00  0.00    +0.000 C 
ATOM      5  N   UNL     1       1.352  11.061  18.075  0.00  0.00    +0.000 N 
ATOM      6  C   UNL     1       1.710   9.788  18.355  0.00  0.00    +0.000 A 
ATOM      7  N   UNL     1       2.224   8.919  17.525  0.00  0.00    +0.000 NA
ATOM      8  C   UNL     1       2.284   7.747  18.233  0.00  0.00    +0.000 A 
ATOM      9  C   UNL     1       2.709   6.482  17.804  0.00  0.00    +0.000 A 
ATOM     10  C   UNL     1       2.661   5.414  18.703  0.00  0.00    +0.000 A 
ATOM     11  C   UNL     1       2.225   5.607  20.015  0.00  0.00    +0.000 A 
ATOM     12  C   UNL     1       1.817   6.867  20.469  0.00  0.00    +0.000 A 
ATOM     13  C   UNL     1       1.835   7.918  19.543  0.00  0.00    +0.000 A 
ATOM     14  N   UNL     1       1.449   9.236  19.587  0.00  0.00    +0.000 N 
ATOM     15  H   UNL     1       1.355  11.295  17.086  0.00  0.00    +0.000 HD
ENDROOT
BRANCH   4  16
ATOM     16  C   UNL     1      -1.114  11.162  18.415  0.00  0.00    +0.000 A 
ATOM     17  C   UNL     1      -2.268  11.804  18.898  0.00  0.00    +0.000 A 
ATOM     18  C   UNL     1      -3.545  11.386  18.504  0.00  0.00    +0.000 A 
ATOM     19  C   UNL     1      -3.695  10.326  17.614  0.00  0.00    +0.000 A 
ATOM     20  C   UNL     1      -2.572   9.679  17.119  0.00  0.00    +0.000 A 
ATOM     21  C   UNL     1      -1.297  10.096  17.511  0.00  0.00    +0.000 A 
ENDBRANCH   4  16
TORSDOF 1
ENDMDL
MODEL 4
REMARK VINA RESULT:      -7.3      1.908      5.757
REMARK  Name = 
REMARK  2 active torsions:
REMARK  status: ('A' for Active; 'I' for Inactive)
REMARK    1  A    between atoms: C_1  and  C_2
REMARK    2  A    between atoms: C_4  and  C_5
REMARK                            x       y       z     vdW  Elec       q    Type
REMARK                         _______ _______ _______ _____ _____    ______ ____
ROOT
ATOM      1  C   UNL     1       2.596   6.557  19.241  0.00  0.00    +0.000 C 
ATOM      2  C   UNL     1       2.527   5.991  17.819  0.00  0.00    +0.000 C 
ATOM      3  C   UNL     1       1.289   5.077  17.670  0.00  0.00    +0.000 C 
ATOM      4  C   UNL     1       1.626   3.585  17.894  0.00  0.00    +0.000 C 
ATOM      5  N   UNL     1       2.676   3.249  16.946  0.00  0.00    +0.000 N 
ATOM      6  C   UNL     1       3.782   4.026  16.921  0.00  0.00    +0.000 A 
ATOM      7  N   UNL     1       4.990   3.656  16.586  0.00  0.00    +0.000 NA
ATOM      8  C   UNL     1       5.779   4.746  16.848  0.00  0.00    +0.000 A 
ATOM      9  C   UNL     1       7.168   4.877  16.716  0.00  0.00    +0.000 A 
ATOM     10  C   UNL     1       7.767   6.090  17.068  0.00  0.00    +0.000 A 
ATOM     11  C   UNL     1       6.993   7.162  17.516  0.00  0.00    +0.000 A 
ATOM     12  C   UNL     1       5.602   7.057  17.634  0.00  0.00    +0.000 A 
ATOM     13  C   UNL     1       5.023   5.822  17.314  0.00  0.00    +0.000 A 
ATOM     14  N   UNL     1       3.744   5.323  17.374  0.00  0.00    +0.000 N 
ATOM     15  H   UNL     1       2.852   2.254  16.833  0.00  0.00    +0.000 HD
ENDROOT
BRANCH   4  16
ATOM     16  C   UNL     1       1.958   3.172  19.331  0.00  0.00    +0.000 A 
ATOM     17  C   UNL     1       0.979   3.274  20.335  0.00  0.00    +0.000 A 
ATOM     18  C   UNL     1       1.252   2.885  21.652  0.00  0.00    +0.000 A 
ATOM     19  C   UNL     1       2.503   2.377  21.991  0.00  0.00    +0.000 A 
ATOM     20  C   UNL     1       3.485   2.262  21.017  0.00  0.00    +0.000 A 
ATOM     21  C   UNL     1       3.213   2.649  19.703  0.00  0.00    +0.000 A 
ENDBRANCH   4  16
TORSDOF 1
ENDMDL
MODEL 5
REMARK VINA RESULT:      -7.3      5.482      8.096
REMARK  Name = 
REMARK  2 active torsions:
REMARK  status: ('A' for Active; 'I' for Inactive)
REMARK    1  A    between atoms: C_1  and  C_2
REMARK    2  A    between atoms: C_4  and  C_5
REMARK                            x       y       z     vdW  Elec       q    Type
REMARK                         _______ _______ _______ _____ _____    ______ ____
ROOT
ATOM      1  C   UNL     1      -0.447   9.538  21.312  0.00  0.00    +0.000 C 
ATOM      2  C   UNL     1       0.847  10.113  20.725  0.00  0.00    +0.000 C 
ATOM      3  C   UNL     1       0.637  11.590  20.319  0.00  0.00    +0.000 C 
ATOM      4  C   UNL     1       0.278  11.746  18.824  0.00  0.00    +0.000 C 
ATOM      5  N   UNL     1       1.349  11.114  18.071  0.00  0.00    +0.000 N 
ATOM      6  C   UNL     1       1.686   9.844  18.387  0.00  0.00    +0.000 A 
ATOM      7  N   UNL     1       2.186   8.944  17.582  0.00  0.00    +0.000 NA
ATOM      8  C   UNL     1       2.226   7.791  18.322  0.00  0.00    +0.000 A 
ATOM      9  C   UNL     1       2.630   6.508  17.929  0.00  0.00    +0.000 A 
ATOM     10  C   UNL     1       2.565   5.466  18.858  0.00  0.00    +0.000 A 
ATOM     11  C   UNL     1       2.132   5.703  20.164  0.00  0.00    +0.000 A 
ATOM     12  C   UNL     1       1.744   6.982  20.581  0.00  0.00    +0.000 A 
ATOM     13  C   UNL     1       1.779   8.006  19.626  0.00  0.00    +0.000 A 
ATOM     14  N   UNL     1       1.415   9.332  19.633  0.00  0.00    +0.000 N 
ATOM     15  H   UNL     1       1.356  11.321  17.075  0.00  0.00    +0.000 HD
ENDROOT
BRANCH   4  16
ATOM     16  C   UNL     1      -1.115  11.265  18.406  0.00  0.00    +0.000 A 
ATOM     17  C   UNL     1      -1.247  10.159  17.546  0.00  0.00    +0.000 A 
ATOM     18  C   UNL     1      -2.509   9.688  17.164  0.00  0.00    +0.000 A 
ATOM     19  C   UNL     1      -3.664  10.303  17.640  0.00  0.00    +0.000 A 
ATOM     20  C   UNL     1      -3.560  11.393  18.493  0.00  0.00    +0.000 A 
ATOM     21  C   UNL     1      -2.302  11.863  18.875  0.00  0.00    +0.000 A 
ENDBRANCH   4  16
TORSDOF 1
ENDMDL
MODEL 6
REMARK VINA RESULT:      -7.3      1.910      5.679
REMARK  Name = 
REMARK  2 active torsions:
REMARK  status: ('A' for Active; 'I' for Inactive)
REMARK    1  A    between atoms: C_1  and  C_2
REMARK    2  A    between atoms: C_4  and  C_5
REMARK                            x       y       z     vdW  Elec       q    Type
REMARK                         _______ _______ _______ _____ _____    ______ ____
ROOT
ATOM      1  C   UNL     1       2.537   6.508  19.218  0.00  0.00    +0.000 C 
ATOM      2  C   UNL     1       2.487   5.939  17.796  0.00  0.00    +0.000 C 
ATOM      3  C   UNL     1       1.257   5.015  17.635  0.00  0.00    +0.000 C 
ATOM      4  C   UNL     1       1.603   3.527  17.866  0.00  0.00    +0.000 C 
ATOM      5  N   UNL     1       2.666   3.197  16.931  0.00  0.00    +0.000 N 
ATOM      6  C   UNL     1       3.766   3.982  16.915  0.00  0.00    +0.000 A 
ATOM      7  N   UNL     1       4.981   3.621  16.594  0.00  0.00    +0.000 NA
ATOM      8  C   UNL     1       5.758   4.717  16.863  0.00  0.00    +0.000 A 
ATOM      9  C   UNL     1       7.148   4.859  16.745  0.00  0.00    +0.000 A 
ATOM     10  C   UNL     1       7.733   6.077  17.101  0.00  0.00    +0.000 A 
ATOM     11  C   UNL     1       6.947   7.143  17.539  0.00  0.00    +0.000 A 
ATOM     12  C   UNL     1       5.556   7.028  17.642  0.00  0.00    +0.000 A 
ATOM     13  C   UNL     1       4.990   5.789  17.318  0.00  0.00    +0.000 A 
ATOM     14  N   UNL     1       3.713   5.280  17.365  0.00  0.00    +0.000 N 
ATOM     15  H   UNL     1       2.851   2.203  16.821  0.00  0.00    +0.000 HD
ENDROOT
BRANCH   4  16
ATOM     16  C   UNL     1       1.924   3.119  19.307  0.00  0.00    +0.000 A 
ATOM     17  C   UNL     1       3.197   2.614  19.627  0.00  0.00    +0.000 A 
ATOM     18  C   UNL     1       3.521   2.252  20.940  0.00  0.00    +0.000 A 
ATOM     19  C   UNL     1       2.586   2.395  21.961  0.00  0.00    +0.000 A 
ATOM     20  C   UNL     1       1.324   2.895  21.672  0.00  0.00    +0.000 A 
ATOM     21  C   UNL     1       1.000   3.258  20.363  0.00  0.00    +0.000 A 
ENDBRANCH   4  16
TORSDOF 1
ENDMDL
MODEL 7
REMARK VINA RESULT:      -7.2      1.514      5.611
REMARK  Name = 
REMARK  2 active torsions:
REMARK  status: ('A' for Active; 'I' for Inactive)
REMARK    1  A    between atoms: C_1  and  C_2
REMARK    2  A    between atoms: C_4  and  C_5
REMARK                            x       y       z     vdW  Elec       q    Type
REMARK                         _______ _______ _______ _____ _____    ______ ____
ROOT
ATOM      1  C   UNL     1       3.074   3.477  16.756  0.00  0.00    +0.000 C 
ATOM      2  C   UNL     1       4.475   3.214  17.320  0.00  0.00    +0.000 C 
ATOM      3  C   UNL     1       4.484   3.444  18.849  0.00  0.00    +0.000 C 
ATOM      4  C   UNL     1       4.957   4.865  19.229  0.00  0.00    +0.000 C 
ATOM      5  N   UNL     1       6.274   5.038  18.638  0.00  0.00    +0.000 N 
ATOM      6  C   UNL     1       6.416   4.787  17.317  0.00  0.00    +0.000 A 
ATOM      7  N   UNL     1       7.277   5.340  16.504  0.00  0.00    +0.000 NA
ATOM      8  C   UNL     1       6.943   4.869  15.262  0.00  0.00    +0.000 A 
ATOM      9  C   UNL     1       7.513   5.181  14.020  0.00  0.00    +0.000 A 
ATOM     10  C   UNL     1       6.988   4.589  12.868  0.00  0.00    +0.000 A 
ATOM     11  C   UNL     1       5.933   3.680  12.954  0.00  0.00    +0.000 A 
ATOM     12  C   UNL     1       5.364   3.338  14.186  0.00  0.00    +0.000 A 
ATOM     13  C   UNL     1       5.877   3.970  15.326  0.00  0.00    +0.000 A 
ATOM     14  N   UNL     1       5.542   3.955  16.659  0.00  0.00    +0.000 N 
ATOM     15  H   UNL     1       6.796   5.841  18.977  0.00  0.00    +0.000 HD
ENDROOT
BRANCH   4  16
ATOM     16  C   UNL     1       3.996   6.012  18.901  0.00  0.00    +0.000 A 
ATOM     17  C   UNL     1       2.900   6.271  19.742  0.00  0.00    +0.000 A 
ATOM     18  C   UNL     1       2.017   7.325  19.475  0.00  0.00    +0.000 A 
ATOM     19  C   UNL     1       2.217   8.147  18.369  0.00  0.00    +0.000 A 
ATOM     20  C   UNL     1       3.295   7.915  17.526  0.00  0.00    +0.000 A 
ATOM     21  C   UNL     1       4.176   6.864  17.793  0.00  0.00    +0.000 A 
ENDBRANCH   4  16
TORSDOF 1
ENDMDL
MODEL 8
REMARK VINA RESULT:      -7.2      1.475      5.492
REMARK  Name = 
REMARK  2 active torsions:
REMARK  status: ('A' for Active; 'I' for Inactive)
REMARK    1  A    between atoms: C_1  and  C_2
REMARK    2  A    between atoms: C_4  and  C_5
REMARK                            x       y       z     vdW  Elec       q    Type
REMARK                         _______ _______ _______ _____ _____    ______ ____
ROOT
ATOM      1  C   UNL     1       3.042   3.462  16.793  0.00  0.00    +0.000 C 
ATOM      2  C   UNL     1       4.428   3.144  17.366  0.00  0.00    +0.000 C 
ATOM      3  C   UNL     1       4.419   3.314  18.902  0.00  0.00    +0.000 C 
ATOM      4  C   UNL     1       4.919   4.708  19.345  0.00  0.00    +0.000 C 
ATOM      5  N   UNL     1       6.249   4.871  18.780  0.00  0.00    +0.000 N 
ATOM      6  C   UNL     1       6.405   4.668  17.452  0.00  0.00    +0.000 A 
ATOM      7  N   UNL     1       7.291   5.231  16.674  0.00  0.00    +0.000 NA
ATOM      8  C   UNL     1       6.965   4.816  15.409  0.00  0.00    +0.000 A 
ATOM      9  C   UNL     1       7.561   5.163  14.189  0.00  0.00    +0.000 A 
ATOM     10  C   UNL     1       7.040   4.629  13.008  0.00  0.00    +0.000 A 
ATOM     11  C   UNL     1       5.963   3.743  13.042  0.00  0.00    +0.000 A 
ATOM     12  C   UNL     1       5.367   3.367  14.252  0.00  0.00    +0.000 A 
ATOM     13  C   UNL     1       5.877   3.942  15.423  0.00  0.00    +0.000 A 
ATOM     14  N   UNL     1       5.522   3.884  16.749  0.00  0.00    +0.000 N 
ATOM     15  H   UNL     1       6.785   5.648  19.157  0.00  0.00    +0.000 HD
ENDROOT
BRANCH   4  16
ATOM     16  C   UNL     1       3.991   5.889  19.048  0.00  0.00    +0.000 A 
ATOM     17  C   UNL     1       4.218   6.692  17.916  0.00  0.00    +0.000 A 
ATOM     18  C   UNL     1       3.373   7.766  17.611  0.00  0.00    +0.000 A 
ATOM     19  C   UNL     1       2.279   8.054  18.424  0.00  0.00    +0.000 A 
ATOM     20  C   UNL     1       2.031   7.273  19.544  0.00  0.00    +0.000 A 
ATOM     21  C   UNL     1       2.873   6.201  19.848  0.00  0.00    +0.000 A 
ENDBRANCH   4  16
TORSDOF 1
ENDMDL
MODEL 9
REMARK VINA RESULT:      -6.9      9.576     12.887
REMARK  Name = 
REMARK  2 active torsions:
REMARK  status: ('A' for Active; 'I' for Inactive)
REMARK    1  A    between atoms: C_1  and  C_2
REMARK    2  A    between atoms: C_4  and  C_5
REMARK                            x       y       z     vdW  Elec       q    Type
REMARK                         _______ _______ _______ _____ _____    ______ ____
ROOT
ATOM      1  C   UNL     1      -4.475  12.550  21.046  0.00  0.00    +0.000 C 
ATOM      2  C   UNL     1      -4.564  12.951  19.569  0.00  0.00    +0.000 C 
ATOM      3  C   UNL     1      -6.028  13.274  19.193  0.00  0.00    +0.000 C 
ATOM      4  C   UNL     1      -6.757  12.063  18.567  0.00  0.00    +0.000 C 
ATOM      5  N   UNL     1      -5.969  11.653  17.416  0.00  0.00    +0.000 N 
ATOM      6  C   UNL     1      -4.651  11.419  17.598  0.00  0.00    +0.000 A 
ATOM      7  N   UNL     1      -3.902  10.590  16.920  0.00  0.00    +0.000 NA
ATOM      8  C   UNL     1      -2.690  10.604  17.559  0.00  0.00    +0.000 A 
ATOM      9  C   UNL     1      -1.538   9.858  17.275  0.00  0.00    +0.000 A 
ATOM     10  C   UNL     1      -0.411  10.023  18.085  0.00  0.00    +0.000 A 
ATOM     11  C   UNL     1      -0.421  10.936  19.140  0.00  0.00    +0.000 A 
ATOM     12  C   UNL     1      -1.554  11.707  19.426  0.00  0.00    +0.000 A 
ATOM     13  C   UNL     1      -2.687  11.500  18.629  0.00  0.00    +0.000 A 
ATOM     14  N   UNL     1      -3.970  11.993  18.646  0.00  0.00    +0.000 N 
ATOM     15  H   UNL     1      -6.433  11.004  16.785  0.00  0.00    +0.000 HD
ENDROOT
BRANCH   4  16
ATOM     16  C   UNL     1      -7.086  10.904  19.513  0.00  0.00    +0.000 A 
ATOM     17  C   UNL     1      -7.590  11.169  20.799  0.00  0.00    +0.000 A 
ATOM     18  C   UNL     1      -7.917  10.128  21.676  0.00  0.00    +0.000 A 
ATOM     19  C   UNL     1      -7.756   8.801  21.284  0.00  0.00    +0.000 A 
ATOM     20  C   UNL     1      -7.265   8.513  20.018  0.00  0.00    +0.000 A 
ATOM     21  C   UNL     1      -6.940   9.552  19.143  0.00  0.00    +0.000 A 
ENDBRANCH   4  16
TORSDOF 1
ENDMDL
