MODEL 1
REMARK VINA RESULT:      -7.9      0.000      0.000
REMARK  Name = 
REMARK  9 active torsions:
REMARK  status: ('A' for Active; 'I' for Inactive)
REMARK    1  A    between atoms: C_1  and  O_2
REMARK    2  A    between atoms: O_2  and  C_3
REMARK    3  A    between atoms: C_3  and  C_5
REMARK    4  A    between atoms: C_10  and  C_11
REMARK    5  A    between atoms: C_19  and  S_20
REMARK    6  A    between atoms: S_20  and  N_23
REMARK    7  A    between atoms: N_23  and  C_24
REMARK    8  A    between atoms: C_24  and  C_25
REMARK    9  A    between atoms: C_24  and  C_26
REMARK                            x       y       z     vdW  Elec       q    Type
REMARK                         _______ _______ _______ _____ _____    ______ ____
ROOT
ATOM      1  C   UNL     1       1.862   7.701  19.934  0.00  0.00    +0.000 C 
ATOM      2  C   UNL     1       2.820   6.706  19.782  0.00  0.00    +0.000 C 
ATOM      3  C   UNL     1       2.018   5.925  18.805  0.00  0.00    +0.000 C 
ATOM      4  O   UNL     1       2.127   6.167  17.603  0.00  0.00    +0.000 OA
ATOM      5  N   UNL     1       2.058   4.639  19.330  0.00  0.00    +0.000 N 
ATOM      6  C   UNL     1       3.451   4.445  19.159  0.00  0.00    +0.000 A 
ATOM      7  C   UNL     1       3.752   3.589  18.069  0.00  0.00    +0.000 A 
ATOM      8  C   UNL     1       4.907   3.769  17.342  0.00  0.00    +0.000 A 
ATOM      9  C   UNL     1       5.779   4.776  17.743  0.00  0.00    +0.000 A 
ATOM     10  C   UNL     1       5.410   5.802  18.739  0.00  0.00    +0.000 A 
ATOM     11  C   UNL     1       4.155   5.681  19.441  0.00  0.00    +0.000 A 
ATOM     12  H   UNL     1       1.494   3.940  18.857  0.00  0.00    +0.000 HD
ENDROOT
BRANCH   1  18
ATOM     13  C   UNL     1       0.301   9.614  20.486  0.00  0.00    +0.000 A 
ATOM     14  C   UNL     1      -0.991  10.064  20.068  0.00  0.00    +0.000 A 
ATOM     15  C   UNL     1      -1.272  10.350  18.733  0.00  0.00    +0.000 A 
ATOM     16  C   UNL     1      -0.206  10.283  17.852  0.00  0.00    +0.000 A 
ATOM     17  C   UNL     1       0.988   9.580  18.236  0.00  0.00    +0.000 A 
ATOM     18  C   UNL     1       1.191   9.069  19.538  0.00  0.00    +0.000 A 
BRANCH  13  19
ATOM     19  C   UNL     1       0.623   9.477  21.941  0.00  0.00    +0.000 C 
ATOM     20  O   UNL     1       1.787   9.476  22.300  0.00  0.00    +0.000 OA
BRANCH  19  22
ATOM     21  C   UNL     1      -1.202  10.603  23.317  0.00  0.00    +0.000 C 
ATOM     22  O   UNL     1      -0.516   9.455  22.708  0.00  0.00    +0.000 OA
ENDBRANCH  19  22
ENDBRANCH  13  19
ENDBRANCH   1  18
BRANCH   9  23
ATOM     23  S   UNL     1       7.277   4.757  16.696  0.00  0.00    +0.000 S 
ATOM     24  O   UNL     1       7.462   6.104  16.187  0.00  0.00    +0.000 OA
ATOM     25  O   UNL     1       8.336   4.049  17.370  0.00  0.00    +0.000 OA
BRANCH  23  26
ATOM     26  N   UNL     1       6.868   3.866  15.278  0.00  0.00    +0.000 NA
ATOM     27  H   UNL     1       6.164   3.168  15.558  0.00  0.00    +0.000 HD
BRANCH  26  28
ATOM     28  C   UNL     1       6.463   4.607  14.059  0.00  0.00    +0.000 C 
ATOM     29  C   UNL     1       7.655   4.994  13.203  0.00  0.00    +0.000 C 
ATOM     30  C   UNL     1       5.500   3.750  13.229  0.00  0.00    +0.000 C 
ENDBRANCH  26  28
ENDBRANCH  23  26
ENDBRANCH   9  23
TORSDOF 6
ENDMDL
MODEL 2
REMARK VINA RESULT:      -7.2      0.949      1.174
REMARK  Name = 
REMARK  9 active torsions:
REMARK  status: ('A' for Active; 'I' for Inactive)
REMARK    1  A    between atoms: C_1  and  O_2
REMARK    2  A    between atoms: O_2  and  C_3
REMARK    3  A    between atoms: C_3  and  C_5
REMARK    4  A    between atoms: C_10  and  C_11
REMARK    5  A    between atoms: C_19  and  S_20
REMARK    6  A    between atoms: S_20  and  N_23
REMARK    7  A    between atoms: N_23  and  C_24
REMARK    8  A    between atoms: C_24  and  C_25
REMARK    9  A    between atoms: C_24  and  C_26
REMARK                            x       y       z     vdW  Elec       q    Type
REMARK                         _______ _______ _______ _____ _____    ______ ____
ROOT
ATOM      1  C   UNL     1       1.887   7.905  19.556  0.00  0.00    +0.000 C 
ATOM      2  C   UNL     1       2.871   6.939  19.385  0.00  0.00    +0.000 C 
ATOM      3  C   UNL     1       1.961   5.965  18.729  0.00  0.00    +0.000 C 
ATOM      4  O   UNL     1       1.824   5.994  17.507  0.00  0.00    +0.000 OA
ATOM      5  N   UNL     1       2.194   4.795  19.442  0.00  0.00    +0.000 N 
ATOM      6  C   UNL     1       3.541   4.631  19.034  0.00  0.00    +0.000 A 
ATOM      7  C   UNL     1       3.696   3.608  18.064  0.00  0.00    +0.000 A 
ATOM      8  C   UNL     1       4.677   3.703  17.104  0.00  0.00    +0.000 A 
ATOM      9  C   UNL     1       5.531   4.800  17.152  0.00  0.00    +0.000 A 
ATOM     10  C   UNL     1       5.280   5.971  18.017  0.00  0.00    +0.000 A 
ATOM     11  C   UNL     1       4.191   5.925  18.963  0.00  0.00    +0.000 A 
ATOM     12  H   UNL     1       1.605   4.001  19.213  0.00  0.00    +0.000 HD
ENDROOT
BRANCH   1  18
ATOM     13  C   UNL     1       0.326   9.825  20.080  0.00  0.00    +0.000 A 
ATOM     14  C   UNL     1      -1.052  10.143  19.864  0.00  0.00    +0.000 A 
ATOM     15  C   UNL     1      -1.606  10.172  18.584  0.00  0.00    +0.000 A 
ATOM     16  C   UNL     1      -0.727   9.987  17.530  0.00  0.00    +0.000 A 
ATOM     17  C   UNL     1       0.566   9.412  17.777  0.00  0.00    +0.000 A 
ATOM     18  C   UNL     1       1.054   9.152  19.078  0.00  0.00    +0.000 A 
BRANCH  13  19
ATOM     19  C   UNL     1       0.931   9.966  21.442  0.00  0.00    +0.000 C 
ATOM     20  O   UNL     1       1.015   8.988  22.164  0.00  0.00    +0.000 OA
BRANCH  19  22
ATOM     21  C   UNL     1       1.468  12.336  20.681  0.00  0.00    +0.000 C 
ATOM     22  O   UNL     1       1.405  11.237  21.654  0.00  0.00    +0.000 OA
ENDBRANCH  19  22
ENDBRANCH  13  19
ENDBRANCH   1  18
BRANCH   9  23
ATOM     23  S   UNL     1       6.804   4.657  15.847  0.00  0.00    +0.000 S 
ATOM     24  O   UNL     1       6.835   5.922  15.137  0.00  0.00    +0.000 OA
ATOM     25  O   UNL     1       7.999   4.065  16.393  0.00  0.00    +0.000 OA
BRANCH  23  26
ATOM     26  N   UNL     1       6.170   3.572  14.668  0.00  0.00    +0.000 NA
ATOM     27  H   UNL     1       5.297   3.187  15.055  0.00  0.00    +0.000 HD
BRANCH  26  28
ATOM     28  C   UNL     1       5.996   4.051  13.275  0.00  0.00    +0.000 C 
ATOM     29  C   UNL     1       7.270   3.911  12.459  0.00  0.00    +0.000 C 
ATOM     30  C   UNL     1       4.870   3.264  12.594  0.00  0.00    +0.000 C 
ENDBRANCH  26  28
ENDBRANCH  23  26
ENDBRANCH   9  23
TORSDOF 6
ENDMDL
MODEL 3
REMARK VINA RESULT:      -6.9      0.771      1.256
REMARK  Name = 
REMARK  9 active torsions:
REMARK  status: ('A' for Active; 'I' for Inactive)
REMARK    1  A    between atoms: C_1  and  O_2
REMARK    2  A    between atoms: O_2  and  C_3
REMARK    3  A    between atoms: C_3  and  C_5
REMARK    4  A    between atoms: C_10  and  C_11
REMARK    5  A    between atoms: C_19  and  S_20
REMARK    6  A    between atoms: S_20  and  N_23
REMARK    7  A    between atoms: N_23  and  C_24
REMARK    8  A    between atoms: C_24  and  C_25
REMARK    9  A    between atoms: C_24  and  C_26
REMARK                            x       y       z     vdW  Elec       q    Type
REMARK                         _______ _______ _______ _____ _____    ______ ____
ROOT
ATOM      1  C   UNL     1       1.701   7.873  19.876  0.00  0.00    +0.000 C 
ATOM      2  C   UNL     1       2.684   6.920  19.634  0.00  0.00    +0.000 C 
ATOM      3  C   UNL     1       1.874   6.175  18.635  0.00  0.00    +0.000 C 
ATOM      4  O   UNL     1       1.937   6.493  17.448  0.00  0.00    +0.000 OA
ATOM      5  N   UNL     1       1.969   4.861  19.078  0.00  0.00    +0.000 N 
ATOM      6  C   UNL     1       3.360   4.722  18.853  0.00  0.00    +0.000 A 
ATOM      7  C   UNL     1       3.652   3.944  17.704  0.00  0.00    +0.000 A 
ATOM      8  C   UNL     1       4.776   4.204  16.955  0.00  0.00    +0.000 A 
ATOM      9  C   UNL     1       5.631   5.211  17.391  0.00  0.00    +0.000 A 
ATOM     10  C   UNL     1       5.264   6.163  18.460  0.00  0.00    +0.000 A 
ATOM     11  C   UNL     1       4.036   5.960  19.190  0.00  0.00    +0.000 A 
ATOM     12  H   UNL     1       1.410   4.175  18.580  0.00  0.00    +0.000 HD
ENDROOT
BRANCH   1  18
ATOM     13  C   UNL     1      -0.089   9.566  20.448  0.00  0.00    +0.000 A 
ATOM     14  C   UNL     1      -1.339   9.994  19.899  0.00  0.00    +0.000 A 
ATOM     15  C   UNL     1      -1.440  10.474  18.593  0.00  0.00    +0.000 A 
ATOM     16  C   UNL     1      -0.252  10.619  17.897  0.00  0.00    +0.000 A 
ATOM     17  C   UNL     1       0.928   9.942  18.360  0.00  0.00    +0.000 A 
ATOM     18  C   UNL     1       0.979   9.241  19.587  0.00  0.00    +0.000 A 
BRANCH  13  19
ATOM     19  C   UNL     1       0.021   9.216  21.899  0.00  0.00    +0.000 C 
ATOM     20  O   UNL     1      -0.735   8.388  22.375  0.00  0.00    +0.000 OA
BRANCH  19  22
ATOM     21  C   UNL     1       2.094   9.275  23.379  0.00  0.00    +0.000 C 
ATOM     22  O   UNL     1       1.078   9.861  22.494  0.00  0.00    +0.000 OA
ENDBRANCH  19  22
ENDBRANCH  13  19
ENDBRANCH   1  18
BRANCH   9  23
ATOM     23  S   UNL     1       7.094   5.304  16.300  0.00  0.00    +0.000 S 
ATOM     24  O   UNL     1       7.685   6.617  16.482  0.00  0.00    +0.000 OA
ATOM     25  O   UNL     1       7.874   4.098  16.425  0.00  0.00    +0.000 OA
BRANCH  23  26
ATOM     26  N   UNL     1       6.494   5.376  14.686  0.00  0.00    +0.000 NA
ATOM     27  H   UNL     1       6.567   6.358  14.384  0.00  0.00    +0.000 HD
BRANCH  26  28
ATOM     28  C   UNL     1       7.044   4.441  13.675  0.00  0.00    +0.000 C 
ATOM     29  C   UNL     1       5.959   3.607  13.017  0.00  0.00    +0.000 C 
ATOM     30  C   UNL     1       7.800   5.229  12.599  0.00  0.00    +0.000 C 
ENDBRANCH  26  28
ENDBRANCH  23  26
ENDBRANCH   9  23
TORSDOF 6
ENDMDL
MODEL 4
REMARK VINA RESULT:      -6.8      4.502      9.152
REMARK  Name = 
REMARK  9 active torsions:
REMARK  status: ('A' for Active; 'I' for Inactive)
REMARK    1  A    between atoms: C_1  and  O_2
REMARK    2  A    between atoms: O_2  and  C_3
REMARK    3  A    between atoms: C_3  and  C_5
REMARK    4  A    between atoms: C_10  and  C_11
REMARK    5  A    between atoms: C_19  and  S_20
REMARK    6  A    between atoms: S_20  and  N_23
REMARK    7  A    between atoms: N_23  and  C_24
REMARK    8  A    between atoms: C_24  and  C_25
REMARK    9  A    between atoms: C_24  and  C_26
REMARK                            x       y       z     vdW  Elec       q    Type
REMARK                         _______ _______ _______ _____ _____    ______ ____
ROOT
ATOM      1  C   UNL     1       2.139   7.994  19.162  0.00  0.00    +0.000 C 
ATOM      2  C   UNL     1       1.032   8.830  19.246  0.00  0.00    +0.000 C 
ATOM      3  C   UNL     1       1.730  10.000  18.651  0.00  0.00    +0.000 C 
ATOM      4  O   UNL     1       1.713  10.157  17.430  0.00  0.00    +0.000 OA
ATOM      5  N   UNL     1       1.450  11.019  19.553  0.00  0.00    +0.000 N 
ATOM      6  C   UNL     1       0.053  11.052  19.323  0.00  0.00    +0.000 A 
ATOM      7  C   UNL     1      -0.344  12.166  18.541  0.00  0.00    +0.000 A 
ATOM      8  C   UNL     1      -1.421  12.069  17.689  0.00  0.00    +0.000 A 
ATOM      9  C   UNL     1      -2.125  10.870  17.663  0.00  0.00    +0.000 A 
ATOM     10  C   UNL     1      -1.628   9.637  18.308  0.00  0.00    +0.000 A 
ATOM     11  C   UNL     1      -0.442   9.702  19.127  0.00  0.00    +0.000 A 
ATOM     12  H   UNL     1       1.906  11.910  19.385  0.00  0.00    +0.000 HD
ENDROOT
BRANCH   1  18
ATOM     13  C   UNL     1       3.294   5.744  19.103  0.00  0.00    +0.000 A 
ATOM     14  C   UNL     1       4.632   5.251  19.216  0.00  0.00    +0.000 A 
ATOM     15  C   UNL     1       5.647   5.683  18.363  0.00  0.00    +0.000 A 
ATOM     16  C   UNL     1       5.267   6.528  17.333  0.00  0.00    +0.000 A 
ATOM     17  C   UNL     1       4.003   7.208  17.404  0.00  0.00    +0.000 A 
ATOM     18  C   UNL     1       3.048   6.948  18.414  0.00  0.00    +0.000 A 
BRANCH  13  19
ATOM     19  C   UNL     1       2.193   5.140  19.918  0.00  0.00    +0.000 C 
ATOM     20  O   UNL     1       2.177   5.312  21.124  0.00  0.00    +0.000 OA
BRANCH  19  22
ATOM     21  C   UNL     1       1.452   3.295  18.326  0.00  0.00    +0.000 C 
ATOM     22  O   UNL     1       1.264   4.514  19.124  0.00  0.00    +0.000 OA
ENDBRANCH  19  22
ENDBRANCH  13  19
ENDBRANCH   1  18
BRANCH   9  23
ATOM     23  S   UNL     1      -3.560  11.014  16.539  0.00  0.00    +0.000 S 
ATOM     24  O   UNL     1      -3.094  11.661  15.327  0.00  0.00    +0.000 OA
ATOM     25  O   UNL     1      -4.279   9.766  16.503  0.00  0.00    +0.000 OA
BRANCH  23  26
ATOM     26  N   UNL     1      -4.601  12.202  17.230  0.00  0.00    +0.000 NA
ATOM     27  H   UNL     1      -5.197  12.554  16.469  0.00  0.00    +0.000 HD
BRANCH  26  28
ATOM     28  C   UNL     1      -5.389  11.848  18.435  0.00  0.00    +0.000 C 
ATOM     29  C   UNL     1      -5.001  12.687  19.640  0.00  0.00    +0.000 C 
ATOM     30  C   UNL     1      -6.884  12.035  18.149  0.00  0.00    +0.000 C 
ENDBRANCH  26  28
ENDBRANCH  23  26
ENDBRANCH   9  23
TORSDOF 6
ENDMDL
MODEL 5
REMARK VINA RESULT:      -6.8      4.417      8.968
REMARK  Name = 
REMARK  9 active torsions:
REMARK  status: ('A' for Active; 'I' for Inactive)
REMARK    1  A    between atoms: C_1  and  O_2
REMARK    2  A    between atoms: O_2  and  C_3
REMARK    3  A    between atoms: C_3  and  C_5
REMARK    4  A    between atoms: C_10  and  C_11
REMARK    5  A    between atoms: C_19  and  S_20
REMARK    6  A    between atoms: S_20  and  N_23
REMARK    7  A    between atoms: N_23  and  C_24
REMARK    8  A    between atoms: C_24  and  C_25
REMARK    9  A    between atoms: C_24  and  C_26
REMARK                            x       y       z     vdW  Elec       q    Type
REMARK                         _______ _______ _______ _____ _____    ______ ____
ROOT
ATOM      1  C   UNL     1       2.762   7.931  17.751  0.00  0.00    +0.000 C 
ATOM      2  C   UNL     1       2.331   9.252  17.763  0.00  0.00    +0.000 C 
ATOM      3  C   UNL     1       1.149   8.977  18.622  0.00  0.00    +0.000 C 
ATOM      4  O   UNL     1       1.264   9.038  19.845  0.00  0.00    +0.000 OA
ATOM      5  N   UNL     1       0.112   9.581  17.922  0.00  0.00    +0.000 N 
ATOM      6  C   UNL     1       0.582  10.910  18.065  0.00  0.00    +0.000 A 
ATOM      7  C   UNL     1      -0.155  11.649  19.025  0.00  0.00    +0.000 A 
ATOM      8  C   UNL     1       0.459  12.629  19.770  0.00  0.00    +0.000 A 
ATOM      9  C   UNL     1       1.800  12.898  19.514  0.00  0.00    +0.000 A 
ATOM     10  C   UNL     1       2.642  12.025  18.671  0.00  0.00    +0.000 A 
ATOM     11  C   UNL     1       2.028  10.931  17.958  0.00  0.00    +0.000 A 
ATOM     12  H   UNL     1      -0.824   9.444  18.292  0.00  0.00    +0.000 HD
ENDROOT
BRANCH   1  18
ATOM     13  C   UNL     1       4.476   6.097  17.436  0.00  0.00    +0.000 A 
ATOM     14  C   UNL     1       4.473   4.672  17.315  0.00  0.00    +0.000 A 
ATOM     15  C   UNL     1       3.924   3.853  18.301  0.00  0.00    +0.000 A 
ATOM     16  C   UNL     1       3.482   4.486  19.451  0.00  0.00    +0.000 A 
ATOM     17  C   UNL     1       3.249   5.904  19.434  0.00  0.00    +0.000 A 
ATOM     18  C   UNL     1       3.588   6.724  18.334  0.00  0.00    +0.000 A 
BRANCH  13  19
ATOM     19  C   UNL     1       5.220   6.941  16.449  0.00  0.00    +0.000 C 
ATOM     20  O   UNL     1       4.789   7.056  15.315  0.00  0.00    +0.000 OA
BRANCH  19  22
ATOM     21  C   UNL     1       7.427   6.924  17.720  0.00  0.00    +0.000 C 
ATOM     22  O   UNL     1       6.298   7.562  17.029  0.00  0.00    +0.000 OA
ENDBRANCH  19  22
ENDBRANCH  13  19
ENDBRANCH   1  18
BRANCH   9  23
ATOM     23  S   UNL     1       2.365  14.294  20.549  0.00  0.00    +0.000 S 
ATOM     24  O   UNL     1       1.958  14.010  21.913  0.00  0.00    +0.000 OA
ATOM     25  O   UNL     1       3.728  14.627  20.219  0.00  0.00    +0.000 OA
BRANCH  23  26
ATOM     26  N   UNL     1       1.377  15.642  20.128  0.00  0.00    +0.000 NA
ATOM     27  H   UNL     1       1.768  16.461  20.615  0.00  0.00    +0.000 HD
BRANCH  26  28
ATOM     28  C   UNL     1       1.119  15.920  18.694  0.00  0.00    +0.000 C 
ATOM     29  C   UNL     1      -0.285  16.449  18.459  0.00  0.00    +0.000 C 
ATOM     30  C   UNL     1       2.138  16.939  18.172  0.00  0.00    +0.000 C 
ENDBRANCH  26  28
ENDBRANCH  23  26
ENDBRANCH   9  23
TORSDOF 6
ENDMDL
MODEL 6
REMARK VINA RESULT:      -6.8      2.196      3.186
REMARK  Name = 
REMARK  9 active torsions:
REMARK  status: ('A' for Active; 'I' for Inactive)
REMARK    1  A    between atoms: C_1  and  O_2
REMARK    2  A    between atoms: O_2  and  C_3
REMARK    3  A    between atoms: C_3  and  C_5
REMARK    4  A    between atoms: C_10  and  C_11
REMARK    5  A    between atoms: C_19  and  S_20
REMARK    6  A    between atoms: S_20  and  N_23
REMARK    7  A    between atoms: N_23  and  C_24
REMARK    8  A    between atoms: C_24  and  C_25
REMARK    9  A    between atoms: C_24  and  C_26
REMARK                            x       y       z     vdW  Elec       q    Type
REMARK                         _______ _______ _______ _____ _____    ______ ____
ROOT
ATOM      1  C   UNL     1       1.481   6.936  20.854  0.00  0.00    +0.000 C 
ATOM      2  C   UNL     1       2.486   6.167  20.281  0.00  0.00    +0.000 C 
ATOM      3  C   UNL     1       1.552   5.362  19.451  0.00  0.00    +0.000 C 
ATOM      4  O   UNL     1       1.255   5.754  18.323  0.00  0.00    +0.000 OA
ATOM      5  N   UNL     1       1.941   4.057  19.726  0.00  0.00    +0.000 N 
ATOM      6  C   UNL     1       3.229   4.153  19.145  0.00  0.00    +0.000 A 
ATOM      7  C   UNL     1       3.311   3.499  17.890  0.00  0.00    +0.000 A 
ATOM      8  C   UNL     1       4.151   3.977  16.910  0.00  0.00    +0.000 A 
ATOM      9  C   UNL     1       4.943   5.080  17.212  0.00  0.00    +0.000 A 
ATOM     10  C   UNL     1       4.743   5.898  18.426  0.00  0.00    +0.000 A 
ATOM     11  C   UNL     1       3.793   5.461  19.419  0.00  0.00    +0.000 A 
ATOM     12  H   UNL     1       1.371   3.320  19.321  0.00  0.00    +0.000 HD
ENDROOT
BRANCH   1  18
ATOM     13  C   UNL     1       0.907   9.276  20.081  0.00  0.00    +0.000 A 
ATOM     14  C   UNL     1       0.932  10.596  20.632  0.00  0.00    +0.000 A 
ATOM     15  C   UNL     1       0.236  10.917  21.797  0.00  0.00    +0.000 A 
ATOM     16  C   UNL     1      -0.566   9.921  22.328  0.00  0.00    +0.000 A 
ATOM     17  C   UNL     1      -0.365   8.557  21.924  0.00  0.00    +0.000 A 
ATOM     18  C   UNL     1       0.525   8.187  20.890  0.00  0.00    +0.000 A 
BRANCH  13  19
ATOM     19  C   UNL     1       1.522   9.001  18.744  0.00  0.00    +0.000 C 
ATOM     20  O   UNL     1       2.713   8.754  18.671  0.00  0.00    +0.000 OA
BRANCH  19  22
ATOM     21  C   UNL     1      -0.662   9.777  17.687  0.00  0.00    +0.000 C 
ATOM     22  O   UNL     1       0.576   8.987  17.748  0.00  0.00    +0.000 OA
ENDBRANCH  19  22
ENDBRANCH  13  19
ENDBRANCH   1  18
BRANCH   9  23
ATOM     23  S   UNL     1       6.040   5.466  15.801  0.00  0.00    +0.000 S 
ATOM     24  O   UNL     1       6.518   4.203  15.271  0.00  0.00    +0.000 OA
ATOM     25  O   UNL     1       5.419   6.456  14.958  0.00  0.00    +0.000 OA
BRANCH  23  26
ATOM     26  N   UNL     1       7.466   6.164  16.471  0.00  0.00    +0.000 NA
ATOM     27  H   UNL     1       7.888   6.746  15.733  0.00  0.00    +0.000 HD
BRANCH  26  28
ATOM     28  C   UNL     1       7.370   6.888  17.762  0.00  0.00    +0.000 C 
ATOM     29  C   UNL     1       8.096   6.161  18.880  0.00  0.00    +0.000 C 
ATOM     30  C   UNL     1       7.957   8.296  17.610  0.00  0.00    +0.000 C 
ENDBRANCH  26  28
ENDBRANCH  23  26
ENDBRANCH   9  23
TORSDOF 6
ENDMDL
MODEL 7
REMARK VINA RESULT:      -6.8      4.532      8.684
REMARK  Name = 
REMARK  9 active torsions:
REMARK  status: ('A' for Active; 'I' for Inactive)
REMARK    1  A    between atoms: C_1  and  O_2
REMARK    2  A    between atoms: O_2  and  C_3
REMARK    3  A    between atoms: C_3  and  C_5
REMARK    4  A    between atoms: C_10  and  C_11
REMARK    5  A    between atoms: C_19  and  S_20
REMARK    6  A    between atoms: S_20  and  N_23
REMARK    7  A    between atoms: N_23  and  C_24
REMARK    8  A    between atoms: C_24  and  C_25
REMARK    9  A    between atoms: C_24  and  C_26
REMARK                            x       y       z     vdW  Elec       q    Type
REMARK                         _______ _______ _______ _____ _____    ______ ____
ROOT
ATOM      1  C   UNL     1       2.740   7.775  17.715  0.00  0.00    +0.000 C 
ATOM      2  C   UNL     1       2.329   9.103  17.703  0.00  0.00    +0.000 C 
ATOM      3  C   UNL     1       1.183   8.874  18.621  0.00  0.00    +0.000 C 
ATOM      4  O   UNL     1       1.352   8.972  19.835  0.00  0.00    +0.000 OA
ATOM      5  N   UNL     1       0.125   9.473  17.948  0.00  0.00    +0.000 N 
ATOM      6  C   UNL     1       0.620  10.798  18.027  0.00  0.00    +0.000 A 
ATOM      7  C   UNL     1      -0.063  11.578  18.993  0.00  0.00    +0.000 A 
ATOM      8  C   UNL     1       0.599  12.571  19.679  0.00  0.00    +0.000 A 
ATOM      9  C   UNL     1       1.930  12.810  19.356  0.00  0.00    +0.000 A 
ATOM     10  C   UNL     1       2.722  11.897  18.505  0.00  0.00    +0.000 A 
ATOM     11  C   UNL     1       2.061  10.792  17.856  0.00  0.00    +0.000 A 
ATOM     12  H   UNL     1      -0.795   9.363  18.363  0.00  0.00    +0.000 HD
ENDROOT
BRANCH   1  18
ATOM     13  C   UNL     1       4.492   5.975  17.415  0.00  0.00    +0.000 A 
ATOM     14  C   UNL     1       4.517   4.552  17.274  0.00  0.00    +0.000 A 
ATOM     15  C   UNL     1       3.959   3.710  18.234  0.00  0.00    +0.000 A 
ATOM     16  C   UNL     1       3.480   4.318  19.382  0.00  0.00    +0.000 A 
ATOM     17  C   UNL     1       3.223   5.732  19.381  0.00  0.00    +0.000 A 
ATOM     18  C   UNL     1       3.573   6.574  18.300  0.00  0.00    +0.000 A 
BRANCH  13  19
ATOM     19  C   UNL     1       5.244   6.846  16.457  0.00  0.00    +0.000 C 
ATOM     20  O   UNL     1       4.924   6.859  15.282  0.00  0.00    +0.000 OA
BRANCH  19  22
ATOM     21  C   UNL     1       7.521   7.179  17.550  0.00  0.00    +0.000 C 
ATOM     22  O   UNL     1       6.188   7.606  17.103  0.00  0.00    +0.000 OA
ENDBRANCH  19  22
ENDBRANCH  13  19
ENDBRANCH   1  18
BRANCH   9  23
ATOM     23  S   UNL     1       2.561  14.229  20.320  0.00  0.00    +0.000 S 
ATOM     24  O   UNL     1       1.605  15.311  20.169  0.00  0.00    +0.000 OA
ATOM     25  O   UNL     1       3.001  13.782  21.617  0.00  0.00    +0.000 OA
BRANCH  23  26
ATOM     26  N   UNL     1       3.941  14.819  19.471  0.00  0.00    +0.000 NA
ATOM     27  H   UNL     1       4.209  14.089  18.796  0.00  0.00    +0.000 HD
BRANCH  26  28
ATOM     28  C   UNL     1       3.875  16.161  18.843  0.00  0.00    +0.000 C 
ATOM     29  C   UNL     1       5.211  16.880  18.889  0.00  0.00    +0.000 C 
ATOM     30  C   UNL     1       3.423  16.027  17.384  0.00  0.00    +0.000 C 
ENDBRANCH  26  28
ENDBRANCH  23  26
ENDBRANCH   9  23
TORSDOF 6
ENDMDL
MODEL 8
REMARK VINA RESULT:      -6.8      4.272      8.502
REMARK  Name = 
REMARK  9 active torsions:
REMARK  status: ('A' for Active; 'I' for Inactive)
REMARK    1  A    between atoms: C_1  and  O_2
REMARK    2  A    between atoms: O_2  and  C_3
REMARK    3  A    between atoms: C_3  and  C_5
REMARK    4  A    between atoms: C_10  and  C_11
REMARK    5  A    between atoms: C_19  and  S_20
REMARK    6  A    between atoms: S_20  and  N_23
REMARK    7  A    between atoms: N_23  and  C_24
REMARK    8  A    between atoms: C_24  and  C_25
REMARK    9  A    between atoms: C_24  and  C_26
REMARK                            x       y       z     vdW  Elec       q    Type
REMARK                         _______ _______ _______ _____ _____    ______ ____
ROOT
ATOM      1  C   UNL     1       2.288   7.710  17.688  0.00  0.00    +0.000 C 
ATOM      2  C   UNL     1       1.774   8.965  17.993  0.00  0.00    +0.000 C 
ATOM      3  C   UNL     1       1.407   8.602  19.386  0.00  0.00    +0.000 C 
ATOM      4  O   UNL     1       2.230   8.757  20.288  0.00  0.00    +0.000 OA
ATOM      5  N   UNL     1       0.087   9.024  19.479  0.00  0.00    +0.000 N 
ATOM      6  C   UNL     1       0.356  10.408  19.337  0.00  0.00    +0.000 A 
ATOM      7  C   UNL     1       0.257  11.110  20.564  0.00  0.00    +0.000 A 
ATOM      8  C   UNL     1       1.054  12.207  20.804  0.00  0.00    +0.000 A 
ATOM      9  C   UNL     1       1.910  12.624  19.791  0.00  0.00    +0.000 A 
ATOM     10  C   UNL     1       2.181  11.809  18.588  0.00  0.00    +0.000 A 
ATOM     11  C   UNL     1       1.420  10.602  18.371  0.00  0.00    +0.000 A 
ATOM     12  H   UNL     1      -0.403   8.796  20.338  0.00  0.00    +0.000 HD
ENDROOT
BRANCH   1  18
ATOM     13  C   UNL     1       3.269   5.480  18.370  0.00  0.00    +0.000 A 
ATOM     14  C   UNL     1       4.312   5.015  19.232  0.00  0.00    +0.000 A 
ATOM     15  C   UNL     1       5.632   5.438  19.079  0.00  0.00    +0.000 A 
ATOM     16  C   UNL     1       5.898   6.242  17.984  0.00  0.00    +0.000 A 
ATOM     17  C   UNL     1       4.814   6.902  17.309  0.00  0.00    +0.000 A 
ATOM     18  C   UNL     1       3.456   6.658  17.618  0.00  0.00    +0.000 A 
BRANCH  13  19
ATOM     19  C   UNL     1       1.899   4.884  18.447  0.00  0.00    +0.000 C 
ATOM     20  O   UNL     1       1.376   4.450  17.436  0.00  0.00    +0.000 OA
BRANCH  19  22
ATOM     21  C   UNL     1       0.935   3.663  20.465  0.00  0.00    +0.000 C 
ATOM     22  O   UNL     1       1.442   4.838  19.742  0.00  0.00    +0.000 OA
ENDBRANCH  19  22
ENDBRANCH  13  19
ENDBRANCH   1  18
BRANCH   9  23
ATOM     23  S   UNL     1       2.786  14.145  20.300  0.00  0.00    +0.000 S 
ATOM     24  O   UNL     1       2.982  14.068  21.736  0.00  0.00    +0.000 OA
ATOM     25  O   UNL     1       3.880  14.404  19.399  0.00  0.00    +0.000 OA
BRANCH  23  26
ATOM     26  N   UNL     1       1.653  15.435  20.138  0.00  0.00    +0.000 NA
ATOM     27  H   UNL     1       2.050  16.244  20.636  0.00  0.00    +0.000 HD
BRANCH  26  28
ATOM     28  C   UNL     1       1.171  15.797  18.784  0.00  0.00    +0.000 C 
ATOM     29  C   UNL     1      -0.344  15.881  18.720  0.00  0.00    +0.000 C 
ATOM     30  C   UNL     1       1.771  17.145  18.364  0.00  0.00    +0.000 C 
ENDBRANCH  26  28
ENDBRANCH  23  26
ENDBRANCH   9  23
TORSDOF 6
ENDMDL
MODEL 9
REMARK VINA RESULT:      -6.7      4.058      9.363
REMARK  Name = 
REMARK  9 active torsions:
REMARK  status: ('A' for Active; 'I' for Inactive)
REMARK    1  A    between atoms: C_1  and  O_2
REMARK    2  A    between atoms: O_2  and  C_3
REMARK    3  A    between atoms: C_3  and  C_5
REMARK    4  A    between atoms: C_10  and  C_11
REMARK    5  A    between atoms: C_19  and  S_20
REMARK    6  A    between atoms: S_20  and  N_23
REMARK    7  A    between atoms: N_23  and  C_24
REMARK    8  A    between atoms: C_24  and  C_25
REMARK    9  A    between atoms: C_24  and  C_26
REMARK                            x       y       z     vdW  Elec       q    Type
REMARK                         _______ _______ _______ _____ _____    ______ ____
ROOT
ATOM      1  C   UNL     1       2.022   8.404  18.625  0.00  0.00    +0.000 C 
ATOM      2  C   UNL     1       1.664   9.747  18.652  0.00  0.00    +0.000 C 
ATOM      3  C   UNL     1       0.204   9.474  18.622  0.00  0.00    +0.000 C 
ATOM      4  O   UNL     1      -0.405   9.325  19.681  0.00  0.00    +0.000 OA
ATOM      5  N   UNL     1      -0.243  10.298  17.596  0.00  0.00    +0.000 N 
ATOM      6  C   UNL     1       0.062  11.524  18.236  0.00  0.00    +0.000 A 
ATOM      7  C   UNL     1      -1.091  12.179  18.737  0.00  0.00    +0.000 A 
ATOM      8  C   UNL     1      -1.014  12.950  19.875  0.00  0.00    +0.000 A 
ATOM      9  C   UNL     1       0.232  13.101  20.476  0.00  0.00    +0.000 A 
ATOM     10  C   UNL     1       1.404  12.284  20.101  0.00  0.00    +0.000 A 
ATOM     11  C   UNL     1       1.308  11.396  18.968  0.00  0.00    +0.000 A 
ATOM     12  H   UNL     1      -1.221  10.211  17.339  0.00  0.00    +0.000 HD
ENDROOT
BRANCH   1  18
ATOM     13  C   UNL     1       2.979   6.065  18.502  0.00  0.00    +0.000 A 
ATOM     14  C   UNL     1       2.473   4.727  18.480  0.00  0.00    +0.000 A 
ATOM     15  C   UNL     1       1.660   4.234  19.499  0.00  0.00    +0.000 A 
ATOM     16  C   UNL     1       1.460   5.070  20.585  0.00  0.00    +0.000 A 
ATOM     17  C   UNL     1       1.744   6.473  20.462  0.00  0.00    +0.000 A 
ATOM     18  C   UNL     1       2.362   7.033  19.320  0.00  0.00    +0.000 A 
BRANCH  13  19
ATOM     19  C   UNL     1       3.983   6.513  17.486  0.00  0.00    +0.000 C 
ATOM     20  O   UNL     1       4.442   7.640  17.553  0.00  0.00    +0.000 OA
BRANCH  19  22
ATOM     21  C   UNL     1       5.465   5.448  15.709  0.00  0.00    +0.000 C 
ATOM     22  O   UNL     1       4.319   5.495  16.627  0.00  0.00    +0.000 OA
ENDBRANCH  19  22
ENDBRANCH  13  19
ENDBRANCH   1  18
BRANCH   9  23
ATOM     23  S   UNL     1       0.102  14.240  21.900  0.00  0.00    +0.000 S 
ATOM     24  O   UNL     1       1.452  14.499  22.367  0.00  0.00    +0.000 OA
ATOM     25  O   UNL     1      -0.810  15.311  21.588  0.00  0.00    +0.000 OA
BRANCH  23  26
ATOM     26  N   UNL     1      -0.580  13.327  23.193  0.00  0.00    +0.000 NA
ATOM     27  H   UNL     1      -0.911  14.004  23.894  0.00  0.00    +0.000 HD
BRANCH  26  28
ATOM     28  C   UNL     1      -1.608  12.304  22.881  0.00  0.00    +0.000 C 
ATOM     29  C   UNL     1      -1.119  10.895  23.170  0.00  0.00    +0.000 C 
ATOM     30  C   UNL     1      -2.875  12.577  23.700  0.00  0.00    +0.000 C 
ENDBRANCH  26  28
ENDBRANCH  23  26
ENDBRANCH   9  23
TORSDOF 6
ENDMDL
