MODEL 1
REMARK VINA RESULT:      -8.4      0.000      0.000
REMARK  Name = 
REMARK  8 active torsions:
REMARK  status: ('A' for Active; 'I' for Inactive)
REMARK    1  A    between atoms: C_2  and  C_3
REMARK    2  A    between atoms: N_5  and  C_6
REMARK    3  A    between atoms: C_10  and  C_11
REMARK    4  A    between atoms: C_11  and  N_12
REMARK    5  A    between atoms: N_12  and  C_13
REMARK    6  A    between atoms: N_16  and  C_17
REMARK    7  A    between atoms: C_20  and  N_21
REMARK    8  A    between atoms: N_24  and  C_25
REMARK                            x       y       z     vdW  Elec       q    Type
REMARK                         _______ _______ _______ _____ _____    ______ ____
ROOT
ATOM      1  C   UNL     1       3.267   4.189  18.703  0.00  0.00    +0.000 A 
ATOM      2  N   UNL     1       2.823   5.285  19.336  0.00  0.00    +0.000 NA
ATOM      3  C   UNL     1       2.031   5.156  20.411  0.00  0.00    +0.000 A 
ATOM      4  N   UNL     1       1.554   6.275  21.078  0.00  0.00    +0.000 N 
ATOM      5  N   UNL     1       1.639   3.969  20.890  0.00  0.00    +0.000 NA
ATOM      6  C   UNL     1       2.079   2.877  20.228  0.00  0.00    +0.000 A 
ATOM      7  C   UNL     1       2.922   2.923  19.142  0.00  0.00    +0.000 A 
ATOM      8 CL   UNL     1       3.429   1.480  18.362  0.00  0.00    +0.000 Cl
ATOM      9  H   UNL     1       0.946   6.004  21.836  0.00  0.00    +0.000 HD
ENDROOT
BRANCH   4  10
ATOM     10  C   UNL     1       1.520   7.623  20.687  0.00  0.00    +0.000 A 
ATOM     11  C   UNL     1       1.013   8.580  21.567  0.00  0.00    +0.000 A 
ATOM     12  C   UNL     1       0.868   9.920  21.177  0.00  0.00    +0.000 A 
ATOM     13  C   UNL     1       1.230  10.368  19.899  0.00  0.00    +0.000 A 
ATOM     14  C   UNL     1       1.761   9.412  19.035  0.00  0.00    +0.000 A 
ATOM     15  C   UNL     1       1.908   8.072  19.422  0.00  0.00    +0.000 A 
BRANCH  13  16
ATOM     16  N   UNL     1       0.991  11.675  19.513  0.00  0.00    +0.000 N 
ATOM     17  C   UNL     1       1.602  12.196  18.279  0.00  0.00    +0.000 C 
ATOM     18  C   UNL     1       1.869  13.709  18.445  0.00  0.00    +0.000 C 
ATOM     19  N   UNL     1       0.642  14.469  18.785  0.00  0.00    +0.000 NA
ATOM     20  C   UNL     1       0.958  15.879  18.998  0.00  0.00    +0.000 C 
ATOM     21  C   UNL     1       0.032  13.889  20.004  0.00  0.00    +0.000 C 
ATOM     22  C   UNL     1      -0.254  12.373  19.874  0.00  0.00    +0.000 C 
ENDBRANCH  13  16
ENDBRANCH   4  10
BRANCH   1  23
ATOM     23  N   UNL     1       4.091   4.358  17.578  0.00  0.00    +0.000 N 
ATOM     24  H   UNL     1       4.946   3.819  17.698  0.00  0.00    +0.000 HD
BRANCH  23  25
ATOM     25  C   UNL     1       4.360   5.744  17.210  0.00  0.00    +0.000 C 
BRANCH  25  30
ATOM     26  C   UNL     1       7.520   7.820  17.917  0.00  0.00    +0.000 A 
ATOM     27  C   UNL     1       8.241   6.911  18.692  0.00  0.00    +0.000 A 
ATOM     28  C   UNL     1       7.724   5.646  18.980  0.00  0.00    +0.000 A 
ATOM     29  C   UNL     1       6.477   5.272  18.481  0.00  0.00    +0.000 A 
ATOM     30  C   UNL     1       5.732   6.163  17.696  0.00  0.00    +0.000 A 
ATOM     31  C   UNL     1       6.251   7.451  17.456  0.00  0.00    +0.000 A 
BRANCH  26  34
ATOM     32  C   UNL     1       8.761   9.915  18.399  0.00  0.00    +0.000 C 
ATOM     33  O   UNL     1       9.177   9.641  19.518  0.00  0.00    +0.000 OA
ATOM     34  N   UNL     1       8.003   9.104  17.577  0.00  0.00    +0.000 N 
ATOM     35  H   UNL     1       7.859   9.397  16.620  0.00  0.00    +0.000 HD
BRANCH  32  37
ATOM     36  C   UNL     1      10.258  11.819  18.076  0.00  0.00    +0.000 C 
ATOM     37  C   UNL     1       9.098  11.220  17.767  0.00  0.00    +0.000 C 
ENDBRANCH  32  37
ENDBRANCH  26  34
ENDBRANCH  25  30
ENDBRANCH  23  25
ENDBRANCH   1  23
TORSDOF 7
ENDMDL
MODEL 2
REMARK VINA RESULT:      -8.4      3.373      4.665
REMARK  Name = 
REMARK  8 active torsions:
REMARK  status: ('A' for Active; 'I' for Inactive)
REMARK    1  A    between atoms: C_2  and  C_3
REMARK    2  A    between atoms: N_5  and  C_6
REMARK    3  A    between atoms: C_10  and  C_11
REMARK    4  A    between atoms: C_11  and  N_12
REMARK    5  A    between atoms: N_12  and  C_13
REMARK    6  A    between atoms: N_16  and  C_17
REMARK    7  A    between atoms: C_20  and  N_21
REMARK    8  A    between atoms: N_24  and  C_25
REMARK                            x       y       z     vdW  Elec       q    Type
REMARK                         _______ _______ _______ _____ _____    ______ ____
ROOT
ATOM      1  C   UNL     1       3.732   4.268  19.295  0.00  0.00    +0.000 A 
ATOM      2  N   UNL     1       3.121   5.361  19.775  0.00  0.00    +0.000 NA
ATOM      3  C   UNL     1       2.201   5.236  20.743  0.00  0.00    +0.000 A 
ATOM      4  N   UNL     1       1.550   6.353  21.251  0.00  0.00    +0.000 N 
ATOM      5  N   UNL     1       1.838   4.055  21.258  0.00  0.00    +0.000 NA
ATOM      6  C   UNL     1       2.449   2.963  20.748  0.00  0.00    +0.000 A 
ATOM      7  C   UNL     1       3.428   3.009  19.783  0.00  0.00    +0.000 A 
ATOM      8 CL   UNL     1       4.148   1.566  19.193  0.00  0.00    +0.000 Cl
ATOM      9  H   UNL     1       0.866   6.081  21.940  0.00  0.00    +0.000 HD
ENDROOT
BRANCH   4  10
ATOM     10  C   UNL     1       1.467   7.663  20.754  0.00  0.00    +0.000 A 
ATOM     11  C   UNL     1       1.109   8.701  21.615  0.00  0.00    +0.000 A 
ATOM     12  C   UNL     1       0.916  10.006  21.136  0.00  0.00    +0.000 A 
ATOM     13  C   UNL     1       1.081  10.337  19.784  0.00  0.00    +0.000 A 
ATOM     14  C   UNL     1       1.465   9.299  18.935  0.00  0.00    +0.000 A 
ATOM     15  C   UNL     1       1.660   7.994  19.410  0.00  0.00    +0.000 A 
BRANCH  13  16
ATOM     16  N   UNL     1       0.796  11.610  19.327  0.00  0.00    +0.000 N 
ATOM     17  C   UNL     1       1.895  12.520  18.960  0.00  0.00    +0.000 C 
ATOM     18  C   UNL     1       1.464  13.976  19.244  0.00  0.00    +0.000 C 
ATOM     19  N   UNL     1       0.217  14.349  18.535  0.00  0.00    +0.000 NA
ATOM     20  C   UNL     1      -0.183  15.708  18.889  0.00  0.00    +0.000 C 
ATOM     21  C   UNL     1      -0.852  13.388  18.893  0.00  0.00    +0.000 C 
ATOM     22  C   UNL     1      -0.459  11.916  18.619  0.00  0.00    +0.000 C 
ENDBRANCH  13  16
ENDBRANCH   4  10
BRANCH   1  23
ATOM     23  N   UNL     1       4.689   4.432  18.280  0.00  0.00    +0.000 N 
ATOM     24  H   UNL     1       5.365   5.139  18.560  0.00  0.00    +0.000 HD
BRANCH  23  25
ATOM     25  C   UNL     1       4.144   4.684  16.951  0.00  0.00    +0.000 C 
BRANCH  25  30
ATOM     26  C   UNL     1       6.326   3.915  13.878  0.00  0.00    +0.000 A 
ATOM     27  C   UNL     1       7.292   4.915  14.009  0.00  0.00    +0.000 A 
ATOM     28  C   UNL     1       7.247   5.821  15.071  0.00  0.00    +0.000 A 
ATOM     29  C   UNL     1       6.237   5.726  16.026  0.00  0.00    +0.000 A 
ATOM     30  C   UNL     1       5.256   4.729  15.923  0.00  0.00    +0.000 A 
ATOM     31  C   UNL     1       5.292   3.855  14.819  0.00  0.00    +0.000 A 
BRANCH  26  34
ATOM     32  C   UNL     1       5.341   2.804  11.889  0.00  0.00    +0.000 C 
ATOM     33  O   UNL     1       4.334   3.489  11.764  0.00  0.00    +0.000 OA
ATOM     34  N   UNL     1       6.335   2.960  12.837  0.00  0.00    +0.000 N 
ATOM     35  H   UNL     1       7.184   2.422  12.730  0.00  0.00    +0.000 HD
BRANCH  32  37
ATOM     36  C   UNL     1       6.667   0.883  11.166  0.00  0.00    +0.000 C 
ATOM     37  C   UNL     1       5.624   1.696  10.937  0.00  0.00    +0.000 C 
ENDBRANCH  32  37
ENDBRANCH  26  34
ENDBRANCH  25  30
ENDBRANCH  23  25
ENDBRANCH   1  23
TORSDOF 7
ENDMDL
MODEL 3
REMARK VINA RESULT:      -8.4      3.583      7.700
REMARK  Name = 
REMARK  8 active torsions:
REMARK  status: ('A' for Active; 'I' for Inactive)
REMARK    1  A    between atoms: C_2  and  C_3
REMARK    2  A    between atoms: N_5  and  C_6
REMARK    3  A    between atoms: C_10  and  C_11
REMARK    4  A    between atoms: C_11  and  N_12
REMARK    5  A    between atoms: N_12  and  C_13
REMARK    6  A    between atoms: N_16  and  C_17
REMARK    7  A    between atoms: C_20  and  N_21
REMARK    8  A    between atoms: N_24  and  C_25
REMARK                            x       y       z     vdW  Elec       q    Type
REMARK                         _______ _______ _______ _____ _____    ______ ____
ROOT
ATOM      1  C   UNL     1       0.754  11.349  18.878  0.00  0.00    +0.000 A 
ATOM      2  N   UNL     1       1.526  12.438  19.002  0.00  0.00    +0.000 NA
ATOM      3  C   UNL     1       1.002  13.652  18.776  0.00  0.00    +0.000 A 
ATOM      4  N   UNL     1       1.783  14.794  18.891  0.00  0.00    +0.000 N 
ATOM      5  N   UNL     1      -0.272  13.842  18.412  0.00  0.00    +0.000 NA
ATOM      6  C   UNL     1      -1.029  12.731  18.272  0.00  0.00    +0.000 A 
ATOM      7  C   UNL     1      -0.579  11.456  18.520  0.00  0.00    +0.000 A 
ATOM      8 CL   UNL     1      -1.616  10.102  18.314  0.00  0.00    +0.000 Cl
ATOM      9  H   UNL     1       1.248  15.615  18.653  0.00  0.00    +0.000 HD
ENDROOT
BRANCH   4  10
ATOM     10  C   UNL     1       3.178  14.940  18.958  0.00  0.00    +0.000 A 
ATOM     11  C   UNL     1       3.929  14.896  17.783  0.00  0.00    +0.000 A 
ATOM     12  C   UNL     1       5.331  14.936  17.817  0.00  0.00    +0.000 A 
ATOM     13  C   UNL     1       6.046  15.032  19.019  0.00  0.00    +0.000 A 
ATOM     14  C   UNL     1       5.288  15.103  20.186  0.00  0.00    +0.000 A 
ATOM     15  C   UNL     1       3.886  15.064  20.157  0.00  0.00    +0.000 A 
BRANCH  13  16
ATOM     16  N   UNL     1       7.428  14.978  19.026  0.00  0.00    +0.000 N 
ATOM     17  C   UNL     1       8.207  16.102  18.480  0.00  0.00    +0.000 C 
ATOM     18  C   UNL     1       9.527  15.562  17.885  0.00  0.00    +0.000 C 
ATOM     19  N   UNL     1      10.328  14.801  18.874  0.00  0.00    +0.000 NA
ATOM     20  C   UNL     1      11.528  14.256  18.246  0.00  0.00    +0.000 C 
ATOM     21  C   UNL     1       9.498  13.709  19.434  0.00  0.00    +0.000 C 
ATOM     22  C   UNL     1       8.167  14.211  20.043  0.00  0.00    +0.000 C 
ENDBRANCH  13  16
ENDBRANCH   4  10
BRANCH   1  23
ATOM     23  N   UNL     1       1.333  10.091  19.118  0.00  0.00    +0.000 N 
ATOM     24  H   UNL     1       2.048  10.178  19.837  0.00  0.00    +0.000 HD
BRANCH  23  25
ATOM     25  C   UNL     1       1.823   9.399  17.931  0.00  0.00    +0.000 C 
BRANCH  25  30
ATOM     26  C   UNL     1       3.976   6.212  17.892  0.00  0.00    +0.000 A 
ATOM     27  C   UNL     1       3.594   5.645  19.109  0.00  0.00    +0.000 A 
ATOM     28  C   UNL     1       2.654   6.273  19.929  0.00  0.00    +0.000 A 
ATOM     29  C   UNL     1       2.074   7.476  19.531  0.00  0.00    +0.000 A 
ATOM     30  C   UNL     1       2.435   8.067  18.312  0.00  0.00    +0.000 A 
ATOM     31  C   UNL     1       3.419   7.442  17.521  0.00  0.00    +0.000 A 
BRANCH  26  34
ATOM     32  C   UNL     1       4.807   4.330  16.505  0.00  0.00    +0.000 C 
ATOM     33  O   UNL     1       3.892   3.537  16.684  0.00  0.00    +0.000 OA
ATOM     34  N   UNL     1       4.905   5.611  17.014  0.00  0.00    +0.000 N 
ATOM     35  H   UNL     1       5.640   6.209  16.661  0.00  0.00    +0.000 HD
BRANCH  32  37
ATOM     36  C   UNL     1       5.933   4.345  14.336  0.00  0.00    +0.000 C 
ATOM     37  C   UNL     1       5.954   3.973  15.624  0.00  0.00    +0.000 C 
ENDBRANCH  32  37
ENDBRANCH  26  34
ENDBRANCH  25  30
ENDBRANCH  23  25
ENDBRANCH   1  23
TORSDOF 7
ENDMDL
MODEL 4
REMARK VINA RESULT:      -8.4      3.721      8.371
REMARK  Name = 
REMARK  8 active torsions:
REMARK  status: ('A' for Active; 'I' for Inactive)
REMARK    1  A    between atoms: C_2  and  C_3
REMARK    2  A    between atoms: N_5  and  C_6
REMARK    3  A    between atoms: C_10  and  C_11
REMARK    4  A    between atoms: C_11  and  N_12
REMARK    5  A    between atoms: N_12  and  C_13
REMARK    6  A    between atoms: N_16  and  C_17
REMARK    7  A    between atoms: C_20  and  N_21
REMARK    8  A    between atoms: N_24  and  C_25
REMARK                            x       y       z     vdW  Elec       q    Type
REMARK                         _______ _______ _______ _____ _____    ______ ____
ROOT
ATOM      1  C   UNL     1       3.054  14.106  18.930  0.00  0.00    +0.000 A 
ATOM      2  N   UNL     1       2.544  12.873  18.798  0.00  0.00    +0.000 NA
ATOM      3  C   UNL     1       1.216  12.711  18.690  0.00  0.00    +0.000 A 
ATOM      4  N   UNL     1       0.664  11.445  18.560  0.00  0.00    +0.000 N 
ATOM      5  N   UNL     1       0.352  13.733  18.721  0.00  0.00    +0.000 NA
ATOM      6  C   UNL     1       0.882  14.966  18.875  0.00  0.00    +0.000 A 
ATOM      7  C   UNL     1       2.232  15.219  18.956  0.00  0.00    +0.000 A 
ATOM      8 CL   UNL     1       2.815  16.823  19.152  0.00  0.00    +0.000 Cl
ATOM      9  H   UNL     1      -0.342  11.498  18.528  0.00  0.00    +0.000 HD
ENDROOT
BRANCH   4  10
ATOM     10  C   UNL     1       1.228  10.178  18.783  0.00  0.00    +0.000 A 
ATOM     11  C   UNL     1       1.915   9.542  17.749  0.00  0.00    +0.000 A 
ATOM     12  C   UNL     1       2.404   8.235  17.900  0.00  0.00    +0.000 A 
ATOM     13  C   UNL     1       2.241   7.510  19.089  0.00  0.00    +0.000 A 
ATOM     14  C   UNL     1       1.576   8.163  20.126  0.00  0.00    +0.000 A 
ATOM     15  C   UNL     1       1.087   9.469  19.979  0.00  0.00    +0.000 A 
BRANCH  13  16
ATOM     16  N   UNL     1       2.653   6.193  19.176  0.00  0.00    +0.000 N 
ATOM     17  C   UNL     1       1.809   5.207  19.872  0.00  0.00    +0.000 C 
ATOM     18  C   UNL     1       2.712   4.128  20.513  0.00  0.00    +0.000 C 
ATOM     19  N   UNL     1       3.590   3.461  19.523  0.00  0.00    +0.000 NA
ATOM     20  C   UNL     1       4.469   2.502  20.186  0.00  0.00    +0.000 C 
ATOM     21  C   UNL     1       4.390   4.486  18.812  0.00  0.00    +0.000 C 
ATOM     22  C   UNL     1       3.520   5.583  18.154  0.00  0.00    +0.000 C 
ENDBRANCH  13  16
ENDBRANCH   4  10
BRANCH   1  23
ATOM     23  N   UNL     1       4.447  14.241  19.044  0.00  0.00    +0.000 N 
ATOM     24  H   UNL     1       4.672  14.740  19.902  0.00  0.00    +0.000 HD
BRANCH  23  25
ATOM     25  C   UNL     1       5.111  14.818  17.880  0.00  0.00    +0.000 C 
BRANCH  25  30
ATOM     26  C   UNL     1       8.882  14.393  18.507  0.00  0.00    +0.000 A 
ATOM     27  C   UNL     1       9.250  15.726  18.691  0.00  0.00    +0.000 A 
ATOM     28  C   UNL     1       8.302  16.749  18.619  0.00  0.00    +0.000 A 
ATOM     29  C   UNL     1       6.964  16.443  18.376  0.00  0.00    +0.000 A 
ATOM     30  C   UNL     1       6.564  15.112  18.192  0.00  0.00    +0.000 A 
ATOM     31  C   UNL     1       7.543  14.100  18.221  0.00  0.00    +0.000 A 
BRANCH  26  34
ATOM     32  C   UNL     1      10.728  12.987  17.626  0.00  0.00    +0.000 C 
ATOM     33  O   UNL     1      10.951  13.591  16.585  0.00  0.00    +0.000 OA
ATOM     34  N   UNL     1       9.795  13.317  18.590  0.00  0.00    +0.000 N 
ATOM     35  H   UNL     1       9.822  12.820  19.470  0.00  0.00    +0.000 HD
BRANCH  32  37
ATOM     36  C   UNL     1      12.012  11.672  19.237  0.00  0.00    +0.000 C 
ATOM     37  C   UNL     1      11.530  11.787  17.990  0.00  0.00    +0.000 C 
ENDBRANCH  32  37
ENDBRANCH  26  34
ENDBRANCH  25  30
ENDBRANCH  23  25
ENDBRANCH   1  23
TORSDOF 7
ENDMDL
MODEL 5
REMARK VINA RESULT:      -8.4      4.483      9.847
REMARK  Name = 
REMARK  8 active torsions:
REMARK  status: ('A' for Active; 'I' for Inactive)
REMARK    1  A    between atoms: C_2  and  C_3
REMARK    2  A    between atoms: N_5  and  C_6
REMARK    3  A    between atoms: C_10  and  C_11
REMARK    4  A    between atoms: C_11  and  N_12
REMARK    5  A    between atoms: N_12  and  C_13
REMARK    6  A    between atoms: N_16  and  C_17
REMARK    7  A    between atoms: C_20  and  N_21
REMARK    8  A    between atoms: N_24  and  C_25
REMARK                            x       y       z     vdW  Elec       q    Type
REMARK                         _______ _______ _______ _____ _____    ______ ____
ROOT
ATOM      1  C   UNL     1       0.058  10.970  20.929  0.00  0.00    +0.000 A 
ATOM      2  N   UNL     1       0.546   9.742  20.700  0.00  0.00    +0.000 NA
ATOM      3  C   UNL     1       0.317   8.761  21.586  0.00  0.00    +0.000 A 
ATOM      4  N   UNL     1       0.817   7.483  21.375  0.00  0.00    +0.000 N 
ATOM      5  N   UNL     1      -0.375   8.946  22.717  0.00  0.00    +0.000 NA
ATOM      6  C   UNL     1      -0.841  10.194  22.941  0.00  0.00    +0.000 A 
ATOM      7  C   UNL     1      -0.681  11.244  22.066  0.00  0.00    +0.000 A 
ATOM      8 CL   UNL     1      -1.308  12.799  22.436  0.00  0.00    +0.000 Cl
ATOM      9  H   UNL     1       0.586   6.880  22.150  0.00  0.00    +0.000 HD
ENDROOT
BRANCH   4  10
ATOM     10  C   UNL     1       1.799   7.026  20.482  0.00  0.00    +0.000 A 
ATOM     11  C   UNL     1       2.114   7.791  19.359  0.00  0.00    +0.000 A 
ATOM     12  C   UNL     1       3.014   7.322  18.391  0.00  0.00    +0.000 A 
ATOM     13  C   UNL     1       3.648   6.076  18.503  0.00  0.00    +0.000 A 
ATOM     14  C   UNL     1       3.348   5.330  19.641  0.00  0.00    +0.000 A 
ATOM     15  C   UNL     1       2.450   5.796  20.612  0.00  0.00    +0.000 A 
BRANCH  13  16
ATOM     16  N   UNL     1       4.460   5.602  17.489  0.00  0.00    +0.000 N 
ATOM     17  C   UNL     1       5.163   6.552  16.610  0.00  0.00    +0.000 C 
ATOM     18  C   UNL     1       5.321   5.922  15.207  0.00  0.00    +0.000 C 
ATOM     19  N   UNL     1       6.028   4.620  15.244  0.00  0.00    +0.000 NA
ATOM     20  C   UNL     1       6.090   4.036  13.907  0.00  0.00    +0.000 C 
ATOM     21  C   UNL     1       5.319   3.707  16.171  0.00  0.00    +0.000 C 
ATOM     22  C   UNL     1       5.144   4.301  17.589  0.00  0.00    +0.000 C 
ENDBRANCH  13  16
ENDBRANCH   4  10
BRANCH   1  23
ATOM     23  N   UNL     1       0.319  11.976  19.983  0.00  0.00    +0.000 N 
ATOM     24  H   UNL     1      -0.193  12.819  20.234  0.00  0.00    +0.000 HD
BRANCH  23  25
ATOM     25  C   UNL     1       0.103  11.590  18.593  0.00  0.00    +0.000 C 
BRANCH  25  30
ATOM     26  C   UNL     1      -3.738  11.778  18.540  0.00  0.00    +0.000 A 
ATOM     27  C   UNL     1      -4.030  10.615  17.827  0.00  0.00    +0.000 A 
ATOM     28  C   UNL     1      -3.008   9.777  17.372  0.00  0.00    +0.000 A 
ATOM     29  C   UNL     1      -1.677  10.091  17.641  0.00  0.00    +0.000 A 
ATOM     30  C   UNL     1      -1.355  11.251  18.360  0.00  0.00    +0.000 A 
ATOM     31  C   UNL     1      -2.397  12.107  18.769  0.00  0.00    +0.000 A 
BRANCH  26  34
ATOM     32  C   UNL     1      -5.118  12.739  20.366  0.00  0.00    +0.000 C 
ATOM     33  O   UNL     1      -4.638  12.130  21.313  0.00  0.00    +0.000 OA
ATOM     34  N   UNL     1      -4.731  12.649  19.043  0.00  0.00    +0.000 N 
ATOM     35  H   UNL     1      -5.109  13.321  18.389  0.00  0.00    +0.000 HD
BRANCH  32  37
ATOM     36  C   UNL     1      -7.444  13.454  20.146  0.00  0.00    +0.000 C 
ATOM     37  C   UNL     1      -6.206  13.733  20.580  0.00  0.00    +0.000 C 
ENDBRANCH  32  37
ENDBRANCH  26  34
ENDBRANCH  25  30
ENDBRANCH  23  25
ENDBRANCH   1  23
TORSDOF 7
ENDMDL
MODEL 6
REMARK VINA RESULT:      -8.4      2.734      3.872
REMARK  Name = 
REMARK  8 active torsions:
REMARK  status: ('A' for Active; 'I' for Inactive)
REMARK    1  A    between atoms: C_2  and  C_3
REMARK    2  A    between atoms: N_5  and  C_6
REMARK    3  A    between atoms: C_10  and  C_11
REMARK    4  A    between atoms: C_11  and  N_12
REMARK    5  A    between atoms: N_12  and  C_13
REMARK    6  A    between atoms: N_16  and  C_17
REMARK    7  A    between atoms: C_20  and  N_21
REMARK    8  A    between atoms: N_24  and  C_25
REMARK                            x       y       z     vdW  Elec       q    Type
REMARK                         _______ _______ _______ _____ _____    ______ ____
ROOT
ATOM      1  C   UNL     1       4.375   3.569  19.805  0.00  0.00    +0.000 A 
ATOM      2  N   UNL     1       3.572   4.619  20.029  0.00  0.00    +0.000 NA
ATOM      3  C   UNL     1       2.333   4.419  20.500  0.00  0.00    +0.000 A 
ATOM      4  N   UNL     1       1.480   5.490  20.733  0.00  0.00    +0.000 N 
ATOM      5  N   UNL     1       1.835   3.202  20.752  0.00  0.00    +0.000 NA
ATOM      6  C   UNL     1       2.651   2.154  20.501  0.00  0.00    +0.000 A 
ATOM      7  C   UNL     1       3.946   2.277  20.053  0.00  0.00    +0.000 A 
ATOM      8 CL   UNL     1       4.910   0.886  19.760  0.00  0.00    +0.000 Cl
ATOM      9  H   UNL     1       0.580   5.163  21.049  0.00  0.00    +0.000 HD
ENDROOT
BRANCH   4  10
ATOM     10  C   UNL     1       1.562   6.827  20.313  0.00  0.00    +0.000 A 
ATOM     11  C   UNL     1       1.157   7.843  21.179  0.00  0.00    +0.000 A 
ATOM     12  C   UNL     1       1.127   9.182  20.761  0.00  0.00    +0.000 A 
ATOM     13  C   UNL     1       1.509   9.570  19.469  0.00  0.00    +0.000 A 
ATOM     14  C   UNL     1       1.938   8.551  18.619  0.00  0.00    +0.000 A 
ATOM     15  C   UNL     1       1.970   7.212  19.033  0.00  0.00    +0.000 A 
BRANCH  13  16
ATOM     16  N   UNL     1       1.383  10.884  19.058  0.00  0.00    +0.000 N 
ATOM     17  C   UNL     1       2.331  11.438  18.076  0.00  0.00    +0.000 C 
ATOM     18  C   UNL     1       2.519  12.947  18.348  0.00  0.00    +0.000 C 
ATOM     19  N   UNL     1       1.238  13.694  18.319  0.00  0.00    +0.000 NA
ATOM     20  C   UNL     1       1.461  15.099  18.648  0.00  0.00    +0.000 C 
ATOM     21  C   UNL     1       0.296  13.082  19.285  0.00  0.00    +0.000 C 
ATOM     22  C   UNL     1       0.079  11.569  19.043  0.00  0.00    +0.000 C 
ENDBRANCH  13  16
ENDBRANCH   4  10
BRANCH   1  23
ATOM     23  N   UNL     1       5.667   3.813  19.308  0.00  0.00    +0.000 N 
ATOM     24  H   UNL     1       6.349   3.311  19.873  0.00  0.00    +0.000 HD
BRANCH  23  25
ATOM     25  C   UNL     1       6.012   5.221  19.147  0.00  0.00    +0.000 C 
BRANCH  25  30
ATOM     26  C   UNL     1       5.472   5.270  15.339  0.00  0.00    +0.000 A 
ATOM     27  C   UNL     1       5.001   6.573  15.176  0.00  0.00    +0.000 A 
ATOM     28  C   UNL     1       4.862   7.428  16.272  0.00  0.00    +0.000 A 
ATOM     29  C   UNL     1       5.209   6.988  17.548  0.00  0.00    +0.000 A 
ATOM     30  C   UNL     1       5.690   5.685  17.741  0.00  0.00    +0.000 A 
ATOM     31  C   UNL     1       5.778   4.823  16.630  0.00  0.00    +0.000 A 
BRANCH  26  34
ATOM     32  C   UNL     1       6.667   4.440  13.328  0.00  0.00    +0.000 C 
ATOM     33  O   UNL     1       7.589   5.244  13.304  0.00  0.00    +0.000 OA
ATOM     34  N   UNL     1       5.653   4.371  14.264  0.00  0.00    +0.000 N 
ATOM     35  H   UNL     1       5.045   3.563  14.249  0.00  0.00    +0.000 HD
BRANCH  32  37
ATOM     36  C   UNL     1       5.377   3.035  11.799  0.00  0.00    +0.000 C 
ATOM     37  C   UNL     1       6.577   3.364  12.302  0.00  0.00    +0.000 C 
ENDBRANCH  32  37
ENDBRANCH  26  34
ENDBRANCH  25  30
ENDBRANCH  23  25
ENDBRANCH   1  23
TORSDOF 7
ENDMDL
MODEL 7
REMARK VINA RESULT:      -8.3      3.893      8.065
REMARK  Name = 
REMARK  8 active torsions:
REMARK  status: ('A' for Active; 'I' for Inactive)
REMARK    1  A    between atoms: C_2  and  C_3
REMARK    2  A    between atoms: N_5  and  C_6
REMARK    3  A    between atoms: C_10  and  C_11
REMARK    4  A    between atoms: C_11  and  N_12
REMARK    5  A    between atoms: N_12  and  C_13
REMARK    6  A    between atoms: N_16  and  C_17
REMARK    7  A    between atoms: C_20  and  N_21
REMARK    8  A    between atoms: N_24  and  C_25
REMARK                            x       y       z     vdW  Elec       q    Type
REMARK                         _______ _______ _______ _____ _____    ______ ____
ROOT
ATOM      1  C   UNL     1       0.717  11.078  18.829  0.00  0.00    +0.000 A 
ATOM      2  N   UNL     1       1.526  12.132  19.011  0.00  0.00    +0.000 NA
ATOM      3  C   UNL     1       1.015  13.372  18.996  0.00  0.00    +0.000 A 
ATOM      4  N   UNL     1       1.833  14.479  19.176  0.00  0.00    +0.000 N 
ATOM      5  N   UNL     1      -0.283  13.624  18.790  0.00  0.00    +0.000 NA
ATOM      6  C   UNL     1      -1.080  12.551  18.587  0.00  0.00    +0.000 A 
ATOM      7  C   UNL     1      -0.641  11.248  18.624  0.00  0.00    +0.000 A 
ATOM      8 CL   UNL     1      -1.728   9.947  18.353  0.00  0.00    +0.000 Cl
ATOM      9  H   UNL     1       1.299  15.330  19.099  0.00  0.00    +0.000 HD
ENDROOT
BRANCH   4  10
ATOM     10  C   UNL     1       3.231  14.596  19.120  0.00  0.00    +0.000 A 
ATOM     11  C   UNL     1       3.948  14.817  20.296  0.00  0.00    +0.000 A 
ATOM     12  C   UNL     1       5.333  15.042  20.270  0.00  0.00    +0.000 A 
ATOM     13  C   UNL     1       6.066  15.045  19.075  0.00  0.00    +0.000 A 
ATOM     14  C   UNL     1       5.346  14.797  17.907  0.00  0.00    +0.000 A 
ATOM     15  C   UNL     1       3.963  14.571  17.929  0.00  0.00    +0.000 A 
BRANCH  13  16
ATOM     16  N   UNL     1       7.413  15.359  19.072  0.00  0.00    +0.000 N 
ATOM     17  C   UNL     1       7.913  16.444  19.934  0.00  0.00    +0.000 C 
ATOM     18  C   UNL     1       9.128  17.113  19.252  0.00  0.00    +0.000 C 
ATOM     19  N   UNL     1      10.210  16.147  18.943  0.00  0.00    +0.000 NA
ATOM     20  C   UNL     1      11.303  16.815  18.241  0.00  0.00    +0.000 C 
ATOM     21  C   UNL     1       9.660  15.050  18.114  0.00  0.00    +0.000 C 
ATOM     22  C   UNL     1       8.442  14.351  18.765  0.00  0.00    +0.000 C 
ENDBRANCH  13  16
ENDBRANCH   4  10
BRANCH   1  23
ATOM     23  N   UNL     1       1.284   9.793  18.847  0.00  0.00    +0.000 N 
ATOM     24  H   UNL     1       1.757   9.642  19.735  0.00  0.00    +0.000 HD
BRANCH  23  25
ATOM     25  C   UNL     1       2.136   9.476  17.706  0.00  0.00    +0.000 C 
BRANCH  25  30
ATOM     26  C   UNL     1       2.748   5.841  18.803  0.00  0.00    +0.000 A 
ATOM     27  C   UNL     1       3.915   5.564  18.090  0.00  0.00    +0.000 A 
ATOM     28  C   UNL     1       4.502   6.531  17.271  0.00  0.00    +0.000 A 
ATOM     29  C   UNL     1       3.930   7.798  17.169  0.00  0.00    +0.000 A 
ATOM     30  C   UNL     1       2.760   8.106  17.877  0.00  0.00    +0.000 A 
ATOM     31  C   UNL     1       2.157   7.102  18.660  0.00  0.00    +0.000 A 
BRANCH  26  34
ATOM     32  C   UNL     1       1.360   3.832  19.250  0.00  0.00    +0.000 C 
ATOM     33  O   UNL     1       1.145   3.484  18.097  0.00  0.00    +0.000 OA
ATOM     34  N   UNL     1       2.124   4.908  19.661  0.00  0.00    +0.000 N 
ATOM     35  H   UNL     1       2.343   4.989  20.645  0.00  0.00    +0.000 HD
BRANCH  32  37
ATOM     36  C   UNL     1       1.584   2.837  21.471  0.00  0.00    +0.000 C 
ATOM     37  C   UNL     1       0.816   3.045  20.391  0.00  0.00    +0.000 C 
ENDBRANCH  32  37
ENDBRANCH  26  34
ENDBRANCH  25  30
ENDBRANCH  23  25
ENDBRANCH   1  23
TORSDOF 7
ENDMDL
MODEL 8
REMARK VINA RESULT:      -8.3      3.235      7.933
REMARK  Name = 
REMARK  8 active torsions:
REMARK  status: ('A' for Active; 'I' for Inactive)
REMARK    1  A    between atoms: C_2  and  C_3
REMARK    2  A    between atoms: N_5  and  C_6
REMARK    3  A    between atoms: C_10  and  C_11
REMARK    4  A    between atoms: C_11  and  N_12
REMARK    5  A    between atoms: N_12  and  C_13
REMARK    6  A    between atoms: N_16  and  C_17
REMARK    7  A    between atoms: C_20  and  N_21
REMARK    8  A    between atoms: N_24  and  C_25
REMARK                            x       y       z     vdW  Elec       q    Type
REMARK                         _______ _______ _______ _____ _____    ______ ____
ROOT
ATOM      1  C   UNL     1       3.205   5.886  17.860  0.00  0.00    +0.000 A 
ATOM      2  N   UNL     1       4.465   6.337  17.769  0.00  0.00    +0.000 NA
ATOM      3  C   UNL     1       5.457   5.481  17.481  0.00  0.00    +0.000 A 
ATOM      4  N   UNL     1       6.770   5.923  17.387  0.00  0.00    +0.000 N 
ATOM      5  N   UNL     1       5.259   4.172  17.289  0.00  0.00    +0.000 NA
ATOM      6  C   UNL     1       3.986   3.732  17.406  0.00  0.00    +0.000 A 
ATOM      7  C   UNL     1       2.910   4.549  17.661  0.00  0.00    +0.000 A 
ATOM      8 CL   UNL     1       1.326   3.900  17.793  0.00  0.00    +0.000 Cl
ATOM      9  H   UNL     1       7.391   5.150  17.203  0.00  0.00    +0.000 HD
ENDROOT
BRANCH   4  10
ATOM     10  C   UNL     1       7.358   7.127  17.808  0.00  0.00    +0.000 A 
ATOM     11  C   UNL     1       7.024   8.315  17.158  0.00  0.00    +0.000 A 
ATOM     12  C   UNL     1       7.665   9.522  17.480  0.00  0.00    +0.000 A 
ATOM     13  C   UNL     1       8.656   9.600  18.469  0.00  0.00    +0.000 A 
ATOM     14  C   UNL     1       8.964   8.413  19.131  0.00  0.00    +0.000 A 
ATOM     15  C   UNL     1       8.325   7.205  18.813  0.00  0.00    +0.000 A 
BRANCH  13  16
ATOM     16  N   UNL     1       9.333  10.783  18.700  0.00  0.00    +0.000 N 
ATOM     17  C   UNL     1       9.523  11.259  20.082  0.00  0.00    +0.000 C 
ATOM     18  C   UNL     1       9.551  12.804  20.086  0.00  0.00    +0.000 C 
ATOM     19  N   UNL     1      10.597  13.357  19.193  0.00  0.00    +0.000 NA
ATOM     20  C   UNL     1      10.537  14.815  19.180  0.00  0.00    +0.000 C 
ATOM     21  C   UNL     1      10.401  12.822  17.825  0.00  0.00    +0.000 C 
ATOM     22  C   UNL     1      10.371  11.275  17.779  0.00  0.00    +0.000 C 
ENDBRANCH  13  16
ENDBRANCH   4  10
BRANCH   1  23
ATOM     23  N   UNL     1       2.190   6.807  18.167  0.00  0.00    +0.000 N 
ATOM     24  H   UNL     1       2.003   7.391  17.354  0.00  0.00    +0.000 HD
BRANCH  23  25
ATOM     25  C   UNL     1       2.413   7.595  19.374  0.00  0.00    +0.000 C 
BRANCH  25  30
ATOM     26  C   UNL     1      -0.384  10.104  18.548  0.00  0.00    +0.000 A 
ATOM     27  C   UNL     1      -0.655  10.597  19.825  0.00  0.00    +0.000 A 
ATOM     28  C   UNL     1       0.053  10.135  20.937  0.00  0.00    +0.000 A 
ATOM     29  C   UNL     1       1.055   9.179  20.778  0.00  0.00    +0.000 A 
ATOM     30  C   UNL     1       1.352   8.669  19.506  0.00  0.00    +0.000 A 
ATOM     31  C   UNL     1       0.595   9.113  18.404  0.00  0.00    +0.000 A 
BRANCH  26  34
ATOM     32  C   UNL     1      -2.361  10.253  17.055  0.00  0.00    +0.000 C 
ATOM     33  O   UNL     1      -3.159   9.610  17.725  0.00  0.00    +0.000 OA
ATOM     34  N   UNL     1      -1.053  10.551  17.386  0.00  0.00    +0.000 N 
ATOM     35  H   UNL     1      -0.556  11.219  16.813  0.00  0.00    +0.000 HD
BRANCH  32  37
ATOM     36  C   UNL     1      -2.848  10.067  14.668  0.00  0.00    +0.000 C 
ATOM     37  C   UNL     1      -2.775  10.850  15.755  0.00  0.00    +0.000 C 
ENDBRANCH  32  37
ENDBRANCH  26  34
ENDBRANCH  25  30
ENDBRANCH  23  25
ENDBRANCH   1  23
TORSDOF 7
ENDMDL
MODEL 9
REMARK VINA RESULT:      -8.3      2.806      4.041
REMARK  Name = 
REMARK  8 active torsions:
REMARK  status: ('A' for Active; 'I' for Inactive)
REMARK    1  A    between atoms: C_2  and  C_3
REMARK    2  A    between atoms: N_5  and  C_6
REMARK    3  A    between atoms: C_10  and  C_11
REMARK    4  A    between atoms: C_11  and  N_12
REMARK    5  A    between atoms: N_12  and  C_13
REMARK    6  A    between atoms: N_16  and  C_17
REMARK    7  A    between atoms: C_20  and  N_21
REMARK    8  A    between atoms: N_24  and  C_25
REMARK                            x       y       z     vdW  Elec       q    Type
REMARK                         _______ _______ _______ _____ _____    ______ ____
ROOT
ATOM      1  C   UNL     1       2.660   6.652  18.684  0.00  0.00    +0.000 A 
ATOM      2  N   UNL     1       2.056   7.577  19.443  0.00  0.00    +0.000 NA
ATOM      3  C   UNL     1       1.463   7.212  20.589  0.00  0.00    +0.000 A 
ATOM      4  N   UNL     1       0.826   8.151  21.389  0.00  0.00    +0.000 N 
ATOM      5  N   UNL     1       1.426   5.945  21.021  0.00  0.00    +0.000 NA
ATOM      6  C   UNL     1       2.022   5.023  20.232  0.00  0.00    +0.000 A 
ATOM      7  C   UNL     1       2.682   5.321  19.064  0.00  0.00    +0.000 A 
ATOM      8 CL   UNL     1       3.410   4.081  18.125  0.00  0.00    +0.000 Cl
ATOM      9  H   UNL     1       0.402   7.706  22.189  0.00  0.00    +0.000 HD
ENDROOT
BRANCH   4  10
ATOM     10  C   UNL     1       0.425   9.466  21.106  0.00  0.00    +0.000 A 
ATOM     11  C   UNL     1      -0.125   9.762  19.859  0.00  0.00    +0.000 A 
ATOM     12  C   UNL     1      -0.443  11.081  19.501  0.00  0.00    +0.000 A 
ATOM     13  C   UNL     1      -0.237  12.161  20.371  0.00  0.00    +0.000 A 
ATOM     14  C   UNL     1       0.288  11.853  21.625  0.00  0.00    +0.000 A 
ATOM     15  C   UNL     1       0.605  10.536  21.988  0.00  0.00    +0.000 A 
BRANCH  13  16
ATOM     16  N   UNL     1      -0.475  13.458  19.957  0.00  0.00    +0.000 N 
ATOM     17  C   UNL     1       0.082  13.932  18.679  0.00  0.00    +0.000 C 
ATOM     18  C   UNL     1       0.380  15.445  18.785  0.00  0.00    +0.000 C 
ATOM     19  N   UNL     1      -0.818  16.235  19.160  0.00  0.00    +0.000 NA
ATOM     20  C   UNL     1      -0.470  17.645  19.314  0.00  0.00    +0.000 C 
ATOM     21  C   UNL     1      -1.376  15.702  20.425  0.00  0.00    +0.000 C 
ATOM     22  C   UNL     1      -1.691  14.188  20.357  0.00  0.00    +0.000 C 
ENDBRANCH  13  16
ENDBRANCH   4  10
BRANCH   1  23
ATOM     23  N   UNL     1       3.269   7.067  17.488  0.00  0.00    +0.000 N 
ATOM     24  H   UNL     1       3.171   6.337  16.785  0.00  0.00    +0.000 HD
BRANCH  23  25
ATOM     25  C   UNL     1       4.648   7.524  17.621  0.00  0.00    +0.000 C 
BRANCH  25  30
ATOM     26  C   UNL     1       6.529   4.795  15.668  0.00  0.00    +0.000 A 
ATOM     27  C   UNL     1       7.468   4.413  16.627  0.00  0.00    +0.000 A 
ATOM     28  C   UNL     1       7.496   5.018  17.885  0.00  0.00    +0.000 A 
ATOM     29  C   UNL     1       6.569   6.009  18.203  0.00  0.00    +0.000 A 
ATOM     30  C   UNL     1       5.610   6.410  17.262  0.00  0.00    +0.000 A 
ATOM     31  C   UNL     1       5.629   5.821  15.982  0.00  0.00    +0.000 A 
BRANCH  26  34
ATOM     32  C   UNL     1       7.119   4.631  13.264  0.00  0.00    +0.000 C 
ATOM     33  O   UNL     1       7.933   5.544  13.201  0.00  0.00    +0.000 OA
ATOM     34  N   UNL     1       6.441   4.203  14.388  0.00  0.00    +0.000 N 
ATOM     35  H   UNL     1       5.916   3.341  14.329  0.00  0.00    +0.000 HD
BRANCH  32  37
ATOM     36  C   UNL     1       5.717   3.029  12.064  0.00  0.00    +0.000 C 
ATOM     37  C   UNL     1       6.802   3.819  12.057  0.00  0.00    +0.000 C 
ENDBRANCH  32  37
ENDBRANCH  26  34
ENDBRANCH  25  30
ENDBRANCH  23  25
ENDBRANCH   1  23
TORSDOF 7
ENDMDL
