MODEL 1
REMARK VINA RESULT:      -8.9      0.000      0.000
REMARK  Name = 
REMARK  3 active torsions:
REMARK  status: ('A' for Active; 'I' for Inactive)
REMARK    1  A    between atoms: N_1  and  C_2
REMARK    2  A    between atoms: C_6  and  N_7
REMARK    3  A    between atoms: N_7  and  C_8
REMARK                            x       y       z     vdW  Elec       q    Type
REMARK                         _______ _______ _______ _____ _____    ______ ____
ROOT
ATOM      1  C   UNL     1       2.380   7.429  19.026  0.00  0.00    +0.000 A 
ATOM      2  C   UNL     1       2.207   8.196  17.867  0.00  0.00    +0.000 A 
ATOM      3  C   UNL     1       1.618   9.541  17.897  0.00  0.00    +0.000 A 
ATOM      4  C   UNL     1       1.063  10.034  19.082  0.00  0.00    +0.000 A 
ATOM      5  C   UNL     1       1.118   9.116  20.064  0.00  0.00    +0.000 A 
ATOM      6  C   UNL     1       1.956   8.000  20.191  0.00  0.00    +0.000 A 
ATOM      7  O   UNL     1      -0.055   8.859  20.750  0.00  0.00    +0.000 OA
ATOM      8  C   UNL     1       0.252   9.298  22.021  0.00  0.00    +0.000 C 
ATOM      9  C   UNL     1      -0.445  10.589  22.028  0.00  0.00    +0.000 A 
ATOM     10  C   UNL     1      -1.245  10.742  23.170  0.00  0.00    +0.000 A 
ATOM     11  C   UNL     1      -1.945  11.903  23.279  0.00  0.00    +0.000 A 
ATOM     12  C   UNL     1      -1.206  12.972  22.815  0.00  0.00    +0.000 A 
ATOM     13  C   UNL     1      -0.572  12.868  21.557  0.00  0.00    +0.000 A 
ATOM     14  C   UNL     1      -0.240  11.614  21.028  0.00  0.00    +0.000 A 
ATOM     15  C   UNL     1       0.390  11.433  19.505  0.00  0.00    +0.000 C 
ATOM     16  O   UNL     1       0.389  12.393  18.740  0.00  0.00    +0.000 OA
ENDROOT
BRANCH   1  17
ATOM     17  N   UNL     1       2.882   6.110  19.153  0.00  0.00    +0.000 N 
ATOM     18  H   UNL     1       3.556   6.109  19.933  0.00  0.00    +0.000 HD
BRANCH  17  23
ATOM     19  C   UNL     1       1.446   3.109  20.889  0.00  0.00    +0.000 A 
ATOM     20  C   UNL     1       0.984   2.396  19.779  0.00  0.00    +0.000 A 
ATOM     21  C   UNL     1       1.081   2.936  18.497  0.00  0.00    +0.000 A 
ATOM     22  C   UNL     1       1.674   4.184  18.314  0.00  0.00    +0.000 A 
ATOM     23  C   UNL     1       2.128   4.928  19.413  0.00  0.00    +0.000 A 
ATOM     24  C   UNL     1       2.048   4.357  20.689  0.00  0.00    +0.000 A 
BRANCH  19  25
ATOM     25  N   UNL     1       1.555   2.470  22.132  0.00  0.00    +0.000 N 
ATOM     26  H   UNL     1       2.016   3.023  22.847  0.00  0.00    +0.000 HD
ATOM     27  H   UNL     1       1.911   1.521  22.081  0.00  0.00    +0.000 HD
ENDBRANCH  19  25
ENDBRANCH  17  23
ENDBRANCH   1  17
TORSDOF 3
ENDMDL
MODEL 2
REMARK VINA RESULT:      -8.6      1.274      1.377
REMARK  Name = 
REMARK  3 active torsions:
REMARK  status: ('A' for Active; 'I' for Inactive)
REMARK    1  A    between atoms: N_1  and  C_2
REMARK    2  A    between atoms: C_6  and  N_7
REMARK    3  A    between atoms: N_7  and  C_8
REMARK                            x       y       z     vdW  Elec       q    Type
REMARK                         _______ _______ _______ _____ _____    ______ ____
ROOT
ATOM      1  C   UNL     1       2.538   6.979  19.722  0.00  0.00    +0.000 A 
ATOM      2  C   UNL     1       2.290   7.475  18.435  0.00  0.00    +0.000 A 
ATOM      3  C   UNL     1       1.593   8.746  18.205  0.00  0.00    +0.000 A 
ATOM      4  C   UNL     1       1.010   9.428  19.279  0.00  0.00    +0.000 A 
ATOM      5  C   UNL     1       1.150   8.738  20.426  0.00  0.00    +0.000 A 
ATOM      6  C   UNL     1       2.080   7.743  20.756  0.00  0.00    +0.000 A 
ATOM      7  O   UNL     1       0.010   8.536  21.181  0.00  0.00    +0.000 OA
ATOM      8  C   UNL     1       0.292   9.251  22.326  0.00  0.00    +0.000 C 
ATOM      9  C   UNL     1      -0.510  10.456  22.088  0.00  0.00    +0.000 A 
ATOM     10  C   UNL     1      -1.308  10.777  23.195  0.00  0.00    +0.000 A 
ATOM     11  C   UNL     1      -2.101  11.877  23.083  0.00  0.00    +0.000 A 
ATOM     12  C   UNL     1      -1.458  12.883  22.391  0.00  0.00    +0.000 A 
ATOM     13  C   UNL     1      -0.830  12.572  21.165  0.00  0.00    +0.000 A 
ATOM     14  C   UNL     1      -0.400  11.266  20.894  0.00  0.00    +0.000 A 
ATOM     15  C   UNL     1       0.228  10.826  19.425  0.00  0.00    +0.000 C 
ATOM     16  O   UNL     1       0.140  11.604  18.479  0.00  0.00    +0.000 OA
ENDROOT
BRANCH   1  17
ATOM     17  N   UNL     1       3.149   5.758  20.102  0.00  0.00    +0.000 N 
ATOM     18  H   UNL     1       3.249   5.769  21.128  0.00  0.00    +0.000 HD
BRANCH  17  23
ATOM     19  C   UNL     1       2.888   2.203  18.929  0.00  0.00    +0.000 A 
ATOM     20  C   UNL     1       1.508   2.017  19.053  0.00  0.00    +0.000 A 
ATOM     21  C   UNL     1       0.701   3.022  19.583  0.00  0.00    +0.000 A 
ATOM     22  C   UNL     1       1.267   4.238  19.963  0.00  0.00    +0.000 A 
ATOM     23  C   UNL     1       2.651   4.442  19.868  0.00  0.00    +0.000 A 
ATOM     24  C   UNL     1       3.442   3.433  19.306  0.00  0.00    +0.000 A 
BRANCH  19  25
ATOM     25  N   UNL     1       3.651   1.289  18.190  0.00  0.00    +0.000 N 
ATOM     26  H   UNL     1       4.006   1.654  17.312  0.00  0.00    +0.000 HD
ATOM     27  H   UNL     1       3.220   0.375  18.088  0.00  0.00    +0.000 HD
ENDBRANCH  19  25
ENDBRANCH  17  23
ENDBRANCH   1  17
TORSDOF 3
ENDMDL
MODEL 3
REMARK VINA RESULT:      -8.5      1.543      2.149
REMARK  Name = 
REMARK  3 active torsions:
REMARK  status: ('A' for Active; 'I' for Inactive)
REMARK    1  A    between atoms: N_1  and  C_2
REMARK    2  A    between atoms: C_6  and  N_7
REMARK    3  A    between atoms: N_7  and  C_8
REMARK                            x       y       z     vdW  Elec       q    Type
REMARK                         _______ _______ _______ _____ _____    ______ ____
ROOT
ATOM      1  C   UNL     1       2.143   7.317  19.805  0.00  0.00    +0.000 A 
ATOM      2  C   UNL     1       2.126   7.961  18.561  0.00  0.00    +0.000 A 
ATOM      3  C   UNL     1       1.624   9.331  18.393  0.00  0.00    +0.000 A 
ATOM      4  C   UNL     1       0.995   9.980  19.460  0.00  0.00    +0.000 A 
ATOM      5  C   UNL     1       0.901   9.173  20.533  0.00  0.00    +0.000 A 
ATOM      6  C   UNL     1       1.652   8.035  20.857  0.00  0.00    +0.000 A 
ATOM      7  O   UNL     1      -0.344   9.056  21.124  0.00  0.00    +0.000 OA
ATOM      8  C   UNL     1      -0.126   9.615  22.366  0.00  0.00    +0.000 C 
ATOM      9  C   UNL     1      -0.738  10.935  22.171  0.00  0.00    +0.000 A 
ATOM     10  C   UNL     1      -1.627  11.254  23.207  0.00  0.00    +0.000 A 
ATOM     11  C   UNL     1      -2.259  12.456  23.125  0.00  0.00    +0.000 A 
ATOM     12  C   UNL     1      -1.414  13.427  22.627  0.00  0.00    +0.000 A 
ATOM     13  C   UNL     1      -0.675  13.152  21.455  0.00  0.00    +0.000 A 
ATOM     14  C   UNL     1      -0.377  11.831  21.094  0.00  0.00    +0.000 A 
ATOM     15  C   UNL     1       0.377  11.451  19.668  0.00  0.00    +0.000 C 
ATOM     16  O   UNL     1       0.507  12.320  18.810  0.00  0.00    +0.000 OA
ENDROOT
BRANCH   1  17
ATOM     17  N   UNL     1       2.546   5.995  20.116  0.00  0.00    +0.000 N 
ATOM     18  H   UNL     1       1.699   5.466  20.370  0.00  0.00    +0.000 HD
BRANCH  17  23
ATOM     19  C   UNL     1       5.260   4.188  18.258  0.00  0.00    +0.000 A 
ATOM     20  C   UNL     1       4.492   3.575  17.264  0.00  0.00    +0.000 A 
ATOM     21  C   UNL     1       3.104   3.700  17.258  0.00  0.00    +0.000 A 
ATOM     22  C   UNL     1       2.474   4.471  18.234  0.00  0.00    +0.000 A 
ATOM     23  C   UNL     1       3.219   5.080  19.255  0.00  0.00    +0.000 A 
ATOM     24  C   UNL     1       4.614   4.967  19.227  0.00  0.00    +0.000 A 
BRANCH  19  25
ATOM     25  N   UNL     1       6.653   4.249  18.125  0.00  0.00    +0.000 N 
ATOM     26  H   UNL     1       7.146   3.455  18.521  0.00  0.00    +0.000 HD
ATOM     27  H   UNL     1       7.059   5.138  18.401  0.00  0.00    +0.000 HD
ENDBRANCH  19  25
ENDBRANCH  17  23
ENDBRANCH   1  17
TORSDOF 3
ENDMDL
MODEL 4
REMARK VINA RESULT:      -8.5      5.241      7.982
REMARK  Name = 
REMARK  3 active torsions:
REMARK  status: ('A' for Active; 'I' for Inactive)
REMARK    1  A    between atoms: N_1  and  C_2
REMARK    2  A    between atoms: C_6  and  N_7
REMARK    3  A    between atoms: N_7  and  C_8
REMARK                            x       y       z     vdW  Elec       q    Type
REMARK                         _______ _______ _______ _____ _____    ______ ____
ROOT
ATOM      1  C   UNL     1       6.305   5.647  16.294  0.00  0.00    +0.000 A 
ATOM      2  C   UNL     1       5.768   6.923  16.507  0.00  0.00    +0.000 A 
ATOM      3  C   UNL     1       4.697   7.172  17.480  0.00  0.00    +0.000 A 
ATOM      4  C   UNL     1       4.067   6.097  18.116  0.00  0.00    +0.000 A 
ATOM      5  C   UNL     1       4.544   4.921  17.668  0.00  0.00    +0.000 A 
ATOM      6  C   UNL     1       5.764   4.639  17.037  0.00  0.00    +0.000 A 
ATOM      7  O   UNL     1       3.616   3.980  17.262  0.00  0.00    +0.000 OA
ATOM      8  C   UNL     1       3.803   2.973  18.185  0.00  0.00    +0.000 C 
ATOM      9  C   UNL     1       2.652   3.206  19.065  0.00  0.00    +0.000 A 
ATOM     10  C   UNL     1       1.932   2.027  19.302  0.00  0.00    +0.000 A 
ATOM     11  C   UNL     1       0.836   2.127  20.103  0.00  0.00    +0.000 A 
ATOM     12  C   UNL     1       1.058   3.011  21.139  0.00  0.00    +0.000 A 
ATOM     13  C   UNL     1       1.601   4.281  20.845  0.00  0.00    +0.000 A 
ATOM     14  C   UNL     1       2.370   4.479  19.691  0.00  0.00    +0.000 A 
ATOM     15  C   UNL     1       2.923   5.975  19.239  0.00  0.00    +0.000 C 
ATOM     16  O   UNL     1       2.492   6.971  19.815  0.00  0.00    +0.000 OA
ENDROOT
BRANCH   1  17
ATOM     17  N   UNL     1       7.296   5.243  15.366  0.00  0.00    +0.000 N 
ATOM     18  H   UNL     1       7.738   4.389  15.738  0.00  0.00    +0.000 HD
BRANCH  17  23
ATOM     19  C   UNL     1       6.323   3.364  12.268  0.00  0.00    +0.000 A 
ATOM     20  C   UNL     1       7.094   4.052  11.326  0.00  0.00    +0.000 A 
ATOM     21  C   UNL     1       7.857   5.156  11.702  0.00  0.00    +0.000 A 
ATOM     22  C   UNL     1       7.879   5.561  13.036  0.00  0.00    +0.000 A 
ATOM     23  C   UNL     1       7.098   4.901  13.996  0.00  0.00    +0.000 A 
ATOM     24  C   UNL     1       6.361   3.776  13.606  0.00  0.00    +0.000 A 
BRANCH  19  25
ATOM     25  N   UNL     1       5.748   2.131  11.931  0.00  0.00    +0.000 N 
ATOM     26  H   UNL     1       6.183   1.670  11.139  0.00  0.00    +0.000 HD
ATOM     27  H   UNL     1       4.735   2.149  11.865  0.00  0.00    +0.000 HD
ENDBRANCH  19  25
ENDBRANCH  17  23
ENDBRANCH   1  17
TORSDOF 3
ENDMDL
MODEL 5
REMARK VINA RESULT:      -8.4      1.116      1.386
REMARK  Name = 
REMARK  3 active torsions:
REMARK  status: ('A' for Active; 'I' for Inactive)
REMARK    1  A    between atoms: N_1  and  C_2
REMARK    2  A    between atoms: C_6  and  N_7
REMARK    3  A    between atoms: N_7  and  C_8
REMARK                            x       y       z     vdW  Elec       q    Type
REMARK                         _______ _______ _______ _____ _____    ______ ____
ROOT
ATOM      1  C   UNL     1       2.222   7.490  19.455  0.00  0.00    +0.000 A 
ATOM      2  C   UNL     1       2.088   8.159  18.232  0.00  0.00    +0.000 A 
ATOM      3  C   UNL     1       1.502   9.501  18.131  0.00  0.00    +0.000 A 
ATOM      4  C   UNL     1       0.909  10.091  19.253  0.00  0.00    +0.000 A 
ATOM      5  C   UNL     1       0.930   9.256  20.308  0.00  0.00    +0.000 A 
ATOM      6  C   UNL     1       1.762   8.155  20.554  0.00  0.00    +0.000 A 
ATOM      7  O   UNL     1      -0.265   9.056  20.974  0.00  0.00    +0.000 OA
ATOM      8  C   UNL     1       0.002   9.599  22.214  0.00  0.00    +0.000 C 
ATOM      9  C   UNL     1      -0.693  10.886  22.092  0.00  0.00    +0.000 A 
ATOM     10  C   UNL     1      -1.528  11.132  23.190  0.00  0.00    +0.000 A 
ATOM     11  C   UNL     1      -2.230  12.297  23.181  0.00  0.00    +0.000 A 
ATOM     12  C   UNL     1      -1.474  13.325  22.654  0.00  0.00    +0.000 A 
ATOM     13  C   UNL     1      -0.800  13.118  21.431  0.00  0.00    +0.000 A 
ATOM     14  C   UNL     1      -0.453  11.825  21.018  0.00  0.00    +0.000 A 
ATOM     15  C   UNL     1       0.226  11.519  19.537  0.00  0.00    +0.000 C 
ATOM     16  O   UNL     1       0.252  12.412  18.695  0.00  0.00    +0.000 OA
ENDROOT
BRANCH   1  17
ATOM     17  N   UNL     1       2.716   6.186  19.706  0.00  0.00    +0.000 N 
ATOM     18  H   UNL     1       2.286   5.856  20.583  0.00  0.00    +0.000 HD
BRANCH  17  23
ATOM     19  C   UNL     1       1.624   2.857  18.361  0.00  0.00    +0.000 A 
ATOM     20  C   UNL     1       2.646   2.635  17.433  0.00  0.00    +0.000 A 
ATOM     21  C   UNL     1       3.626   3.600  17.210  0.00  0.00    +0.000 A 
ATOM     22  C   UNL     1       3.610   4.787  17.941  0.00  0.00    +0.000 A 
ATOM     23  C   UNL     1       2.585   5.043  18.863  0.00  0.00    +0.000 A 
ATOM     24  C   UNL     1       1.625   4.050  19.095  0.00  0.00    +0.000 A 
BRANCH  19  25
ATOM     25  N   UNL     1       0.787   1.801  18.742  0.00  0.00    +0.000 N 
ATOM     26  H   UNL     1       0.048   2.065  19.386  0.00  0.00    +0.000 HD
ATOM     27  H   UNL     1       1.280   0.964  19.036  0.00  0.00    +0.000 HD
ENDBRANCH  19  25
ENDBRANCH  17  23
ENDBRANCH   1  17
TORSDOF 3
ENDMDL
MODEL 6
REMARK VINA RESULT:      -8.3      5.323      7.899
REMARK  Name = 
REMARK  3 active torsions:
REMARK  status: ('A' for Active; 'I' for Inactive)
REMARK    1  A    between atoms: N_1  and  C_2
REMARK    2  A    between atoms: C_6  and  N_7
REMARK    3  A    between atoms: N_7  and  C_8
REMARK                            x       y       z     vdW  Elec       q    Type
REMARK                         _______ _______ _______ _____ _____    ______ ____
ROOT
ATOM      1  C   UNL     1       5.630   5.297  15.314  0.00  0.00    +0.000 A 
ATOM      2  C   UNL     1       5.210   6.615  15.531  0.00  0.00    +0.000 A 
ATOM      3  C   UNL     1       4.433   7.007  16.713  0.00  0.00    +0.000 A 
ATOM      4  C   UNL     1       3.951   6.028  17.588  0.00  0.00    +0.000 A 
ATOM      5  C   UNL     1       4.257   4.792  17.151  0.00  0.00    +0.000 A 
ATOM      6  C   UNL     1       5.263   4.388  16.263  0.00  0.00    +0.000 A 
ATOM      7  O   UNL     1       3.223   3.876  17.084  0.00  0.00    +0.000 OA
ATOM      8  C   UNL     1       3.606   2.941  18.023  0.00  0.00    +0.000 C 
ATOM      9  C   UNL     1       2.727   3.315  19.138  0.00  0.00    +0.000 A 
ATOM     10  C   UNL     1       2.052   2.204  19.662  0.00  0.00    +0.000 A 
ATOM     11  C   UNL     1       1.202   2.434  20.699  0.00  0.00    +0.000 A 
ATOM     12  C   UNL     1       1.712   3.389  21.555  0.00  0.00    +0.000 A 
ATOM     13  C   UNL     1       2.205   4.596  21.013  0.00  0.00    +0.000 A 
ATOM     14  C   UNL     1       2.658   4.651  19.688  0.00  0.00    +0.000 A 
ATOM     15  C   UNL     1       3.128   6.069  18.970  0.00  0.00    +0.000 C 
ATOM     16  O   UNL     1       2.894   7.133  19.536  0.00  0.00    +0.000 OA
ENDROOT
BRANCH   1  17
ATOM     17  N   UNL     1       6.336   4.759  14.210  0.00  0.00    +0.000 N 
ATOM     18  H   UNL     1       7.155   4.254  14.582  0.00  0.00    +0.000 HD
BRANCH  17  23
ATOM     19  C   UNL     1       6.178   2.033  11.635  0.00  0.00    +0.000 A 
ATOM     20  C   UNL     1       4.943   2.333  11.054  0.00  0.00    +0.000 A 
ATOM     21  C   UNL     1       4.154   3.367  11.555  0.00  0.00    +0.000 A 
ATOM     22  C   UNL     1       4.613   4.133  12.626  0.00  0.00    +0.000 A 
ATOM     23  C   UNL     1       5.839   3.838  13.241  0.00  0.00    +0.000 A 
ATOM     24  C   UNL     1       6.631   2.815  12.705  0.00  0.00    +0.000 A 
BRANCH  19  25
ATOM     25  N   UNL     1       7.058   1.154  10.989  0.00  0.00    +0.000 N 
ATOM     26  H   UNL     1       8.033   1.435  11.028  0.00  0.00    +0.000 HD
ATOM     27  H   UNL     1       6.766   0.887  10.054  0.00  0.00    +0.000 HD
ENDBRANCH  19  25
ENDBRANCH  17  23
ENDBRANCH   1  17
TORSDOF 3
ENDMDL
MODEL 7
REMARK VINA RESULT:      -8.2      0.908      1.344
REMARK  Name = 
REMARK  3 active torsions:
REMARK  status: ('A' for Active; 'I' for Inactive)
REMARK    1  A    between atoms: N_1  and  C_2
REMARK    2  A    between atoms: C_6  and  N_7
REMARK    3  A    between atoms: N_7  and  C_8
REMARK                            x       y       z     vdW  Elec       q    Type
REMARK                         _______ _______ _______ _____ _____    ______ ____
ROOT
ATOM      1  C   UNL     1       2.553   7.259  18.968  0.00  0.00    +0.000 A 
ATOM      2  C   UNL     1       2.183   7.905  17.782  0.00  0.00    +0.000 A 
ATOM      3  C   UNL     1       1.441   9.172  17.776  0.00  0.00    +0.000 A 
ATOM      4  C   UNL     1       0.940   9.693  18.974  0.00  0.00    +0.000 A 
ATOM      5  C   UNL     1       1.195   8.869  20.007  0.00  0.00    +0.000 A 
ATOM      6  C   UNL     1       2.171   7.870  20.127  0.00  0.00    +0.000 A 
ATOM      7  O   UNL     1       0.129   8.536  20.823  0.00  0.00    +0.000 OA
ATOM      8  C   UNL     1       0.495   9.109  22.023  0.00  0.00    +0.000 C 
ATOM      9  C   UNL     1      -0.350  10.309  22.010  0.00  0.00    +0.000 A 
ATOM     10  C   UNL     1      -1.054  10.461  23.213  0.00  0.00    +0.000 A 
ATOM     11  C   UNL     1      -1.878  11.540  23.310  0.00  0.00    +0.000 A 
ATOM     12  C   UNL     1      -1.319  12.646  22.701  0.00  0.00    +0.000 A 
ATOM     13  C   UNL     1      -0.794  12.513  21.397  0.00  0.00    +0.000 A 
ATOM     14  C   UNL     1      -0.362  11.266  20.926  0.00  0.00    +0.000 A 
ATOM     15  C   UNL     1       0.144  11.035  19.364  0.00  0.00    +0.000 C 
ATOM     16  O   UNL     1      -0.043  11.924  18.537  0.00  0.00    +0.000 OA
ENDROOT
BRANCH   1  17
ATOM     17  N   UNL     1       3.220   6.020  19.135  0.00  0.00    +0.000 N 
ATOM     18  H   UNL     1       4.006   6.178  19.785  0.00  0.00    +0.000 HD
BRANCH  17  23
ATOM     19  C   UNL     1       1.351   2.772  19.332  0.00  0.00    +0.000 A 
ATOM     20  C   UNL     1       1.229   2.658  20.720  0.00  0.00    +0.000 A 
ATOM     21  C   UNL     1       1.817   3.597  21.565  0.00  0.00    +0.000 A 
ATOM     22  C   UNL     1       2.508   4.680  21.024  0.00  0.00    +0.000 A 
ATOM     23  C   UNL     1       2.662   4.807  19.636  0.00  0.00    +0.000 A 
ATOM     24  C   UNL     1       2.040   3.871  18.802  0.00  0.00    +0.000 A 
BRANCH  19  25
ATOM     25  N   UNL     1       0.571   1.964  18.495  0.00  0.00    +0.000 N 
ATOM     26  H   UNL     1       0.720   2.123  17.504  0.00  0.00    +0.000 HD
ATOM     27  H   UNL     1      -0.413   1.936  18.743  0.00  0.00    +0.000 HD
ENDBRANCH  19  25
ENDBRANCH  17  23
ENDBRANCH   1  17
TORSDOF 3
ENDMDL
MODEL 8
REMARK VINA RESULT:      -8.1      3.484      8.236
REMARK  Name = 
REMARK  3 active torsions:
REMARK  status: ('A' for Active; 'I' for Inactive)
REMARK    1  A    between atoms: N_1  and  C_2
REMARK    2  A    between atoms: C_6  and  N_7
REMARK    3  A    between atoms: N_7  and  C_8
REMARK                            x       y       z     vdW  Elec       q    Type
REMARK                         _______ _______ _______ _____ _____    ______ ____
ROOT
ATOM      1  C   UNL     1       1.849   6.280  20.668  0.00  0.00    +0.000 A 
ATOM      2  C   UNL     1       1.190   5.046  20.588  0.00  0.00    +0.000 A 
ATOM      3  C   UNL     1       1.632   3.977  19.683  0.00  0.00    +0.000 A 
ATOM      4  C   UNL     1       2.644   4.227  18.750  0.00  0.00    +0.000 A 
ATOM      5  C   UNL     1       3.047   5.510  18.800  0.00  0.00    +0.000 A 
ATOM      6  C   UNL     1       2.924   6.439  19.842  0.00  0.00    +0.000 A 
ATOM      7  O   UNL     1       3.094   6.201  17.604  0.00  0.00    +0.000 OA
ATOM      8  C   UNL     1       4.443   6.454  17.470  0.00  0.00    +0.000 C 
ATOM      9  C   UNL     1       4.805   5.430  16.483  0.00  0.00    +0.000 A 
ATOM     10  C   UNL     1       5.542   5.971  15.419  0.00  0.00    +0.000 A 
ATOM     11  C   UNL     1       5.927   5.111  14.438  0.00  0.00    +0.000 A 
ATOM     12  C   UNL     1       6.287   3.888  14.965  0.00  0.00    +0.000 A 
ATOM     13  C   UNL     1       5.422   3.263  15.889  0.00  0.00    +0.000 A 
ATOM     14  C   UNL     1       4.524   4.021  16.652  0.00  0.00    +0.000 A 
ATOM     15  C   UNL     1       3.405   3.325  17.657  0.00  0.00    +0.000 C 
ATOM     16  O   UNL     1       3.216   2.113  17.593  0.00  0.00    +0.000 OA
ENDROOT
BRANCH   1  17
ATOM     17  N   UNL     1       1.517   7.415  21.447  0.00  0.00    +0.000 N 
ATOM     18  H   UNL     1       2.400   7.821  21.794  0.00  0.00    +0.000 HD
BRANCH  17  23
ATOM     19  C   UNL     1       0.470  10.407  19.438  0.00  0.00    +0.000 A 
ATOM     20  C   UNL     1      -0.302  11.072  20.396  0.00  0.00    +0.000 A 
ATOM     21  C   UNL     1      -0.527  10.502  21.648  0.00  0.00    +0.000 A 
ATOM     22  C   UNL     1       0.049   9.272  21.963  0.00  0.00    +0.000 A 
ATOM     23  C   UNL     1       0.810   8.575  21.014  0.00  0.00    +0.000 A 
ATOM     24  C   UNL     1       1.050   9.176  19.772  0.00  0.00    +0.000 A 
BRANCH  19  25
ATOM     25  N   UNL     1       0.878  11.083  18.280  0.00  0.00    +0.000 N 
ATOM     26  H   UNL     1       1.493  11.872  18.452  0.00  0.00    +0.000 HD
ATOM     27  H   UNL     1       0.122  11.309  17.643  0.00  0.00    +0.000 HD
ENDBRANCH  19  25
ENDBRANCH  17  23
ENDBRANCH   1  17
TORSDOF 3
ENDMDL
MODEL 9
REMARK VINA RESULT:      -8.1      1.904      2.833
REMARK  Name = 
REMARK  3 active torsions:
REMARK  status: ('A' for Active; 'I' for Inactive)
REMARK    1  A    between atoms: N_1  and  C_2
REMARK    2  A    between atoms: C_6  and  N_7
REMARK    3  A    between atoms: N_7  and  C_8
REMARK                            x       y       z     vdW  Elec       q    Type
REMARK                         _______ _______ _______ _____ _____    ______ ____
ROOT
ATOM      1  C   UNL     1       2.293   7.497  18.975  0.00  0.00    +0.000 A 
ATOM      2  C   UNL     1       2.178   8.309  17.839  0.00  0.00    +0.000 A 
ATOM      3  C   UNL     1       1.649   9.677  17.902  0.00  0.00    +0.000 A 
ATOM      4  C   UNL     1       1.091  10.156  19.092  0.00  0.00    +0.000 A 
ATOM      5  C   UNL     1       1.084   9.204  20.043  0.00  0.00    +0.000 A 
ATOM      6  C   UNL     1       1.870   8.049  20.150  0.00  0.00    +0.000 A 
ATOM      7  O   UNL     1      -0.114   8.978  20.697  0.00  0.00    +0.000 OA
ATOM      8  C   UNL     1       0.186   9.361  21.988  0.00  0.00    +0.000 C 
ATOM      9  C   UNL     1      -0.454  10.681  22.024  0.00  0.00    +0.000 A 
ATOM     10  C   UNL     1      -1.270  10.833  23.154  0.00  0.00    +0.000 A 
ATOM     11  C   UNL     1      -1.921  12.020  23.288  0.00  0.00    +0.000 A 
ATOM     12  C   UNL     1      -1.126  13.070  22.876  0.00  0.00    +0.000 A 
ATOM     13  C   UNL     1      -0.470  12.978  21.628  0.00  0.00    +0.000 A 
ATOM     14  C   UNL     1      -0.183  11.728  21.064  0.00  0.00    +0.000 A 
ATOM     15  C   UNL     1       0.471  11.569  19.549  0.00  0.00    +0.000 C 
ATOM     16  O   UNL     1       0.529  12.552  18.816  0.00  0.00    +0.000 OA
ENDROOT
BRANCH   1  17
ATOM     17  N   UNL     1       2.733   6.154  19.067  0.00  0.00    +0.000 N 
ATOM     18  H   UNL     1       1.913   5.549  18.911  0.00  0.00    +0.000 HD
BRANCH  17  23
ATOM     19  C   UNL     1       5.779   5.596  16.948  0.00  0.00    +0.000 A 
ATOM     20  C   UNL     1       5.429   4.381  16.353  0.00  0.00    +0.000 A 
ATOM     21  C   UNL     1       4.248   3.731  16.705  0.00  0.00    +0.000 A 
ATOM     22  C   UNL     1       3.388   4.312  17.636  0.00  0.00    +0.000 A 
ATOM     23  C   UNL     1       3.725   5.521  18.262  0.00  0.00    +0.000 A 
ATOM     24  C   UNL     1       4.902   6.173  17.874  0.00  0.00    +0.000 A 
BRANCH  19  25
ATOM     25  N   UNL     1       6.840   6.348  16.426  0.00  0.00    +0.000 N 
ATOM     26  H   UNL     1       7.264   5.950  15.593  0.00  0.00    +0.000 HD
ATOM     27  H   UNL     1       7.528   6.632  17.116  0.00  0.00    +0.000 HD
ENDBRANCH  19  25
ENDBRANCH  17  23
ENDBRANCH   1  17
TORSDOF 3
ENDMDL
