MODEL 1
REMARK VINA RESULT:      -5.9      0.000      0.000
REMARK  Name = 
REMARK  2 active torsions:
REMARK  status: ('A' for Active; 'I' for Inactive)
REMARK    1  A    between atoms: C_2  and  C_3
REMARK    2  A    between atoms: C_4  and  N_5
REMARK                            x       y       z     vdW  Elec       q    Type
REMARK                         _______ _______ _______ _____ _____    ______ ____
ROOT
ATOM      1  N   UNL     1       4.222   3.859  18.947  0.00  0.00    +0.000 N 
ATOM      2  C   UNL     1       3.268   4.521  18.188  0.00  0.00    +0.000 A 
ATOM      3  C   UNL     1       2.054   4.008  17.980  0.00  0.00    +0.000 A 
ATOM      4  F   UNL     1       1.117   4.645  17.252  0.00  0.00    +0.000 F 
ATOM      5  C   UNL     1       1.690   2.709  18.568  0.00  0.00    +0.000 A 
ATOM      6  O   UNL     1       0.568   2.227  18.483  0.00  0.00    +0.000 OA
ATOM      7  N   UNL     1       2.708   2.080  19.232  0.00  0.00    +0.000 N 
ATOM      8  C   UNL     1       3.960   2.589  19.492  0.00  0.00    +0.000 A 
ATOM      9  O   UNL     1       4.730   1.916  20.173  0.00  0.00    +0.000 OA
ATOM     10  H   UNL     1       2.498   1.187  19.651  0.00  0.00    +0.000 HD
ENDROOT
BRANCH   1  12
ATOM     11  C   UNL     1       6.308   4.849  18.160  0.00  0.00    +0.000 C 
ATOM     12  C   UNL     1       5.412   4.565  19.117  0.00  0.00    +0.000 C 
BRANCH  11  14
ATOM     13  O   UNL     1       8.149   5.467  19.540  0.00  0.00    +0.000 OA
ATOM     14  C   UNL     1       7.547   5.590  18.481  0.00  0.00    +0.000 C 
ENDBRANCH  11  14
ENDBRANCH   1  12
TORSDOF 2
ENDMDL
MODEL 2
REMARK VINA RESULT:      -5.9      1.029      1.029
REMARK  Name = 
REMARK  2 active torsions:
REMARK  status: ('A' for Active; 'I' for Inactive)
REMARK    1  A    between atoms: C_2  and  C_3
REMARK    2  A    between atoms: C_4  and  N_5
REMARK                            x       y       z     vdW  Elec       q    Type
REMARK                         _______ _______ _______ _____ _____    ______ ____
ROOT
ATOM      1  N   UNL     1       4.191   3.819  18.585  0.00  0.00    +0.000 N 
ATOM      2  C   UNL     1       3.170   4.394  17.842  0.00  0.00    +0.000 A 
ATOM      3  C   UNL     1       1.921   3.926  17.880  0.00  0.00    +0.000 A 
ATOM      4  F   UNL     1       0.920   4.479  17.170  0.00  0.00    +0.000 F 
ATOM      5  C   UNL     1       1.590   2.774  18.735  0.00  0.00    +0.000 A 
ATOM      6  O   UNL     1       0.450   2.353  18.877  0.00  0.00    +0.000 OA
ATOM      7  N   UNL     1       2.663   2.212  19.372  0.00  0.00    +0.000 N 
ATOM      8  C   UNL     1       3.956   2.682  19.380  0.00  0.00    +0.000 A 
ATOM      9  O   UNL     1       4.784   2.094  20.072  0.00  0.00    +0.000 OA
ATOM     10  H   UNL     1       2.477   1.420  19.969  0.00  0.00    +0.000 HD
ENDROOT
BRANCH   1  12
ATOM     11  C   UNL     1       5.852   5.170  17.417  0.00  0.00    +0.000 C 
ATOM     12  C   UNL     1       5.418   4.472  18.476  0.00  0.00    +0.000 C 
BRANCH  11  14
ATOM     13  O   UNL     1       7.584   6.555  16.546  0.00  0.00    +0.000 OA
ATOM     14  C   UNL     1       7.191   5.797  17.423  0.00  0.00    +0.000 C 
ENDBRANCH  11  14
ENDBRANCH   1  12
TORSDOF 2
ENDMDL
MODEL 3
REMARK VINA RESULT:      -5.9      2.766      5.086
REMARK  Name = 
REMARK  2 active torsions:
REMARK  status: ('A' for Active; 'I' for Inactive)
REMARK    1  A    between atoms: C_2  and  C_3
REMARK    2  A    between atoms: C_4  and  N_5
REMARK                            x       y       z     vdW  Elec       q    Type
REMARK                         _______ _______ _______ _____ _____    ______ ____
ROOT
ATOM      1  N   UNL     1       5.661   4.257  17.867  0.00  0.00    +0.000 N 
ATOM      2  C   UNL     1       5.040   4.110  16.635  0.00  0.00    +0.000 A 
ATOM      3  C   UNL     1       5.646   4.450  15.496  0.00  0.00    +0.000 A 
ATOM      4  F   UNL     1       5.057   4.306  14.294  0.00  0.00    +0.000 F 
ATOM      5  C   UNL     1       7.015   4.990  15.520  0.00  0.00    +0.000 A 
ATOM      6  O   UNL     1       7.653   5.240  14.506  0.00  0.00    +0.000 OA
ATOM      7  N   UNL     1       7.529   5.181  16.774  0.00  0.00    +0.000 N 
ATOM      8  C   UNL     1       6.948   4.817  17.967  0.00  0.00    +0.000 A 
ATOM      9  O   UNL     1       7.586   4.995  19.002  0.00  0.00    +0.000 OA
ATOM     10  H   UNL     1       8.467   5.549  16.833  0.00  0.00    +0.000 HD
ENDROOT
BRANCH   1  12
ATOM     11  C   UNL     1       3.666   3.299  18.892  0.00  0.00    +0.000 C 
ATOM     12  C   UNL     1       4.911   3.794  18.947  0.00  0.00    +0.000 C 
BRANCH  11  14
ATOM     13  O   UNL     1       1.891   2.288  20.118  0.00  0.00    +0.000 OA
ATOM     14  C   UNL     1       2.972   2.862  20.123  0.00  0.00    +0.000 C 
ENDBRANCH  11  14
ENDBRANCH   1  12
TORSDOF 2
ENDMDL
MODEL 4
REMARK VINA RESULT:      -5.8      2.989      3.795
REMARK  Name = 
REMARK  2 active torsions:
REMARK  status: ('A' for Active; 'I' for Inactive)
REMARK    1  A    between atoms: C_2  and  C_3
REMARK    2  A    between atoms: C_4  and  N_5
REMARK                            x       y       z     vdW  Elec       q    Type
REMARK                         _______ _______ _______ _____ _____    ______ ____
ROOT
ATOM      1  N   UNL     1       6.132   4.623  16.663  0.00  0.00    +0.000 N 
ATOM      2  C   UNL     1       4.794   4.345  16.423  0.00  0.00    +0.000 A 
ATOM      3  C   UNL     1       3.979   3.921  17.391  0.00  0.00    +0.000 A 
ATOM      4  F   UNL     1       2.677   3.655  17.172  0.00  0.00    +0.000 F 
ATOM      5  C   UNL     1       4.487   3.744  18.760  0.00  0.00    +0.000 A 
ATOM      6  O   UNL     1       3.771   3.439  19.705  0.00  0.00    +0.000 OA
ATOM      7  N   UNL     1       5.831   3.958  18.900  0.00  0.00    +0.000 N 
ATOM      8  C   UNL     1       6.696   4.423  17.936  0.00  0.00    +0.000 A 
ATOM      9  O   UNL     1       7.864   4.633  18.256  0.00  0.00    +0.000 OA
ATOM     10  H   UNL     1       6.219   3.848  19.825  0.00  0.00    +0.000 HD
ENDROOT
BRANCH   1  12
ATOM     11  C   UNL     1       6.829   4.586  14.326  0.00  0.00    +0.000 C 
ATOM     12  C   UNL     1       6.823   5.117  15.557  0.00  0.00    +0.000 C 
BRANCH  11  14
ATOM     13  O   UNL     1       8.647   5.847  13.443  0.00  0.00    +0.000 OA
ATOM     14  C   UNL     1       7.628   5.199  13.243  0.00  0.00    +0.000 C 
ENDBRANCH  11  14
ENDBRANCH   1  12
TORSDOF 2
ENDMDL
MODEL 5
REMARK VINA RESULT:      -5.8      2.594      4.850
REMARK  Name = 
REMARK  2 active torsions:
REMARK  status: ('A' for Active; 'I' for Inactive)
REMARK    1  A    between atoms: C_2  and  C_3
REMARK    2  A    between atoms: C_4  and  N_5
REMARK                            x       y       z     vdW  Elec       q    Type
REMARK                         _______ _______ _______ _____ _____    ______ ____
ROOT
ATOM      1  N   UNL     1       5.262   4.150  18.400  0.00  0.00    +0.000 N 
ATOM      2  C   UNL     1       4.867   3.964  17.084  0.00  0.00    +0.000 A 
ATOM      3  C   UNL     1       5.532   4.511  16.064  0.00  0.00    +0.000 A 
ATOM      4  F   UNL     1       5.163   4.331  14.782  0.00  0.00    +0.000 F 
ATOM      5  C   UNL     1       6.727   5.331  16.318  0.00  0.00    +0.000 A 
ATOM      6  O   UNL     1       7.426   5.789  15.423  0.00  0.00    +0.000 OA
ATOM      7  N   UNL     1       7.006   5.537  17.642  0.00  0.00    +0.000 N 
ATOM      8  C   UNL     1       6.362   4.967  18.717  0.00  0.00    +0.000 A 
ATOM      9  O   UNL     1       6.794   5.202  19.844  0.00  0.00    +0.000 OA
ATOM     10  H   UNL     1       7.818   6.094  17.858  0.00  0.00    +0.000 HD
ENDROOT
BRANCH   1  12
ATOM     11  C   UNL     1       3.331   3.864  19.862  0.00  0.00    +0.000 C 
ATOM     12  C   UNL     1       4.494   3.456  19.334  0.00  0.00    +0.000 C 
BRANCH  11  14
ATOM     13  O   UNL     1       2.345   3.437  21.989  0.00  0.00    +0.000 OA
ATOM     14  C   UNL     1       2.626   3.037  20.866  0.00  0.00    +0.000 C 
ENDBRANCH  11  14
ENDBRANCH   1  12
TORSDOF 2
ENDMDL
MODEL 6
REMARK VINA RESULT:      -5.8      3.789      4.708
REMARK  Name = 
REMARK  2 active torsions:
REMARK  status: ('A' for Active; 'I' for Inactive)
REMARK    1  A    between atoms: C_2  and  C_3
REMARK    2  A    between atoms: C_4  and  N_5
REMARK                            x       y       z     vdW  Elec       q    Type
REMARK                         _______ _______ _______ _____ _____    ______ ____
ROOT
ATOM      1  N   UNL     1       6.125   4.325  16.176  0.00  0.00    +0.000 N 
ATOM      2  C   UNL     1       4.759   4.540  16.291  0.00  0.00    +0.000 A 
ATOM      3  C   UNL     1       4.194   4.873  17.453  0.00  0.00    +0.000 A 
ATOM      4  F   UNL     1       2.872   5.091  17.576  0.00  0.00    +0.000 F 
ATOM      5  C   UNL     1       5.024   5.034  18.658  0.00  0.00    +0.000 A 
ATOM      6  O   UNL     1       4.577   5.419  19.731  0.00  0.00    +0.000 OA
ATOM      7  N   UNL     1       6.346   4.727  18.484  0.00  0.00    +0.000 N 
ATOM      8  C   UNL     1       6.968   4.409  17.299  0.00  0.00    +0.000 A 
ATOM      9  O   UNL     1       8.185   4.236  17.311  0.00  0.00    +0.000 OA
ATOM     10  H   UNL     1       6.948   4.825  19.288  0.00  0.00    +0.000 HD
ENDROOT
BRANCH   1  12
ATOM     11  C   UNL     1       5.773   3.890  13.802  0.00  0.00    +0.000 C 
ATOM     12  C   UNL     1       6.556   4.048  14.879  0.00  0.00    +0.000 C 
BRANCH  11  14
ATOM     13  O   UNL     1       5.988   2.636  11.788  0.00  0.00    +0.000 OA
ATOM     14  C   UNL     1       6.360   3.573  12.482  0.00  0.00    +0.000 C 
ENDBRANCH  11  14
ENDBRANCH   1  12
TORSDOF 2
ENDMDL
MODEL 7
REMARK VINA RESULT:      -5.8      2.933      5.073
REMARK  Name = 
REMARK  2 active torsions:
REMARK  status: ('A' for Active; 'I' for Inactive)
REMARK    1  A    between atoms: C_2  and  C_3
REMARK    2  A    between atoms: C_4  and  N_5
REMARK                            x       y       z     vdW  Elec       q    Type
REMARK                         _______ _______ _______ _____ _____    ______ ____
ROOT
ATOM      1  N   UNL     1       4.592   4.352  18.859  0.00  0.00    +0.000 N 
ATOM      2  C   UNL     1       5.712   5.064  19.265  0.00  0.00    +0.000 A 
ATOM      3  C   UNL     1       6.784   5.197  18.481  0.00  0.00    +0.000 A 
ATOM      4  F   UNL     1       7.873   5.891  18.860  0.00  0.00    +0.000 F 
ATOM      5  C   UNL     1       6.798   4.589  17.141  0.00  0.00    +0.000 A 
ATOM      6  O   UNL     1       7.715   4.747  16.345  0.00  0.00    +0.000 OA
ATOM      7  N   UNL     1       5.694   3.837  16.845  0.00  0.00    +0.000 N 
ATOM      8  C   UNL     1       4.560   3.700  17.613  0.00  0.00    +0.000 A 
ATOM      9  O   UNL     1       3.626   3.044  17.158  0.00  0.00    +0.000 OA
ATOM     10  H   UNL     1       5.666   3.404  15.934  0.00  0.00    +0.000 HD
ENDROOT
BRANCH   1  12
ATOM     11  C   UNL     1       3.105   3.325  20.497  0.00  0.00    +0.000 C 
ATOM     12  C   UNL     1       3.540   4.367  19.774  0.00  0.00    +0.000 C 
BRANCH  11  14
ATOM     13  O   UNL     1       1.569   2.576  22.157  0.00  0.00    +0.000 OA
ATOM     14  C   UNL     1       1.958   3.472  21.419  0.00  0.00    +0.000 C 
ENDBRANCH  11  14
ENDBRANCH   1  12
TORSDOF 2
ENDMDL
MODEL 8
REMARK VINA RESULT:      -5.8      2.095      2.175
REMARK  Name = 
REMARK  2 active torsions:
REMARK  status: ('A' for Active; 'I' for Inactive)
REMARK    1  A    between atoms: C_2  and  C_3
REMARK    2  A    between atoms: C_4  and  N_5
REMARK                            x       y       z     vdW  Elec       q    Type
REMARK                         _______ _______ _______ _____ _____    ______ ____
ROOT
ATOM      1  N   UNL     1       3.771   3.337  19.331  0.00  0.00    +0.000 N 
ATOM      2  C   UNL     1       2.541   3.978  19.348  0.00  0.00    +0.000 A 
ATOM      3  C   UNL     1       1.653   3.773  20.323  0.00  0.00    +0.000 A 
ATOM      4  F   UNL     1       0.459   4.395  20.354  0.00  0.00    +0.000 F 
ATOM      5  C   UNL     1       1.968   2.852  21.426  0.00  0.00    +0.000 A 
ATOM      6  O   UNL     1       1.231   2.687  22.390  0.00  0.00    +0.000 OA
ATOM      7  N   UNL     1       3.163   2.197  21.298  0.00  0.00    +0.000 N 
ATOM      8  C   UNL     1       4.115   2.404  20.326  0.00  0.00    +0.000 A 
ATOM      9  O   UNL     1       5.170   1.779  20.405  0.00  0.00    +0.000 OA
ATOM     10  H   UNL     1       3.415   1.557  22.036  0.00  0.00    +0.000 HD
ENDROOT
BRANCH   1  12
ATOM     11  C   UNL     1       5.754   4.393  18.380  0.00  0.00    +0.000 C 
ATOM     12  C   UNL     1       4.602   3.715  18.277  0.00  0.00    +0.000 C 
BRANCH  11  14
ATOM     13  O   UNL     1       7.734   4.559  17.065  0.00  0.00    +0.000 OA
ATOM     14  C   UNL     1       6.529   4.752  17.173  0.00  0.00    +0.000 C 
ENDBRANCH  11  14
ENDBRANCH   1  12
TORSDOF 2
ENDMDL
MODEL 9
REMARK VINA RESULT:      -5.7      1.924      2.108
REMARK  Name = 
REMARK  2 active torsions:
REMARK  status: ('A' for Active; 'I' for Inactive)
REMARK    1  A    between atoms: C_2  and  C_3
REMARK    2  A    between atoms: C_4  and  N_5
REMARK                            x       y       z     vdW  Elec       q    Type
REMARK                         _______ _______ _______ _____ _____    ______ ____
ROOT
ATOM      1  N   UNL     1       3.930   3.696  18.944  0.00  0.00    +0.000 N 
ATOM      2  C   UNL     1       3.175   3.399  20.070  0.00  0.00    +0.000 A 
ATOM      3  C   UNL     1       1.933   2.920  19.978  0.00  0.00    +0.000 A 
ATOM      4  F   UNL     1       1.194   2.621  21.063  0.00  0.00    +0.000 F 
ATOM      5  C   UNL     1       1.328   2.684  18.658  0.00  0.00    +0.000 A 
ATOM      6  O   UNL     1       0.228   2.169  18.509  0.00  0.00    +0.000 OA
ATOM      7  N   UNL     1       2.101   3.077  17.599  0.00  0.00    +0.000 N 
ATOM      8  C   UNL     1       3.394   3.546  17.652  0.00  0.00    +0.000 A 
ATOM      9  O   UNL     1       3.970   3.782  16.592  0.00  0.00    +0.000 OA
ATOM     10  H   UNL     1       1.721   2.931  16.676  0.00  0.00    +0.000 HD
ENDROOT
BRANCH   1  12
ATOM     11  C   UNL     1       5.723   5.349  18.986  0.00  0.00    +0.000 C 
ATOM     12  C   UNL     1       5.228   4.126  19.220  0.00  0.00    +0.000 C 
BRANCH  11  14
ATOM     13  O   UNL     1       7.690   5.295  20.330  0.00  0.00    +0.000 OA
ATOM     14  C   UNL     1       7.131   5.668  19.306  0.00  0.00    +0.000 C 
ENDBRANCH  11  14
ENDBRANCH   1  12
TORSDOF 2
ENDMDL
