MODEL 1
REMARK VINA RESULT:      -7.6      0.000      0.000
REMARK  Name = 
REMARK  1 active torsions:
REMARK  status: ('A' for Active; 'I' for Inactive)
REMARK    1  A    between atoms: N_10  and  C_11
REMARK                            x       y       z     vdW  Elec       q    Type
REMARK                         _______ _______ _______ _____ _____    ______ ____
ROOT
ATOM      1  O   UNL     1       5.165   3.891  19.426  0.00  0.00    +0.000 OA
ATOM      2  C   UNL     1       5.157   4.779  18.589  0.00  0.00    +0.000 A 
ATOM      3  C   UNL     1       6.300   5.694  18.410  0.00  0.00    +0.000 A 
ATOM      4  C   UNL     1       7.491   5.645  19.124  0.00  0.00    +0.000 A 
ATOM      5  C   UNL     1       8.402   6.689  18.953  0.00  0.00    +0.000 A 
ATOM      6  C   UNL     1       8.102   7.760  18.098  0.00  0.00    +0.000 A 
ATOM      7  C   UNL     1       6.904   7.782  17.375  0.00  0.00    +0.000 A 
ATOM      8  C   UNL     1       6.017   6.731  17.528  0.00  0.00    +0.000 A 
ATOM      9  S   UNL     1       4.442   6.521  16.763  0.00  0.00    +0.000 S 
ATOM     10  N   UNL     1       4.087   5.155  17.767  0.00  0.00    +0.000 N 
ENDROOT
BRANCH  10  11
ATOM     11  C   UNL     1       2.704   4.882  18.199  0.00  0.00    +0.000 C 
ATOM     12  C   UNL     1       2.139   3.617  17.519  0.00  0.00    +0.000 C 
ATOM     13  C   UNL     1       2.335   2.311  18.295  0.00  0.00    +0.000 C 
ATOM     14  C   UNL     1       1.202   2.026  19.275  0.00  0.00    +0.000 C 
ATOM     15  C   UNL     1       1.148   2.940  20.495  0.00  0.00    +0.000 C 
ATOM     16  C   UNL     1       1.163   4.441  20.209  0.00  0.00    +0.000 C 
ATOM     17  C   UNL     1       2.527   4.946  19.723  0.00  0.00    +0.000 C 
ENDBRANCH  10  11
TORSDOF 1
ENDMDL
MODEL 2
REMARK VINA RESULT:      -7.2      2.274      2.957
REMARK  Name = 
REMARK  1 active torsions:
REMARK  status: ('A' for Active; 'I' for Inactive)
REMARK    1  A    between atoms: N_10  and  C_11
REMARK                            x       y       z     vdW  Elec       q    Type
REMARK                         _______ _______ _______ _____ _____    ______ ____
ROOT
ATOM      1  O   UNL     1       6.735   4.987  19.297  0.00  0.00    +0.000 OA
ATOM      2  C   UNL     1       6.060   4.394  18.470  0.00  0.00    +0.000 A 
ATOM      3  C   UNL     1       6.303   4.533  17.021  0.00  0.00    +0.000 A 
ATOM      4  C   UNL     1       7.304   5.301  16.441  0.00  0.00    +0.000 A 
ATOM      5  C   UNL     1       7.289   5.462  15.054  0.00  0.00    +0.000 A 
ATOM      6  C   UNL     1       6.274   4.875  14.283  0.00  0.00    +0.000 A 
ATOM      7  C   UNL     1       5.284   4.090  14.885  0.00  0.00    +0.000 A 
ATOM      8  C   UNL     1       5.320   3.913  16.257  0.00  0.00    +0.000 A 
ATOM      9  S   UNL     1       4.194   3.003  17.263  0.00  0.00    +0.000 S 
ATOM     10  N   UNL     1       4.925   3.611  18.711  0.00  0.00    +0.000 N 
ENDROOT
BRANCH  10  11
ATOM     11  C   UNL     1       4.111   3.856  19.915  0.00  0.00    +0.000 C 
ATOM     12  C   UNL     1       3.099   4.999  19.689  0.00  0.00    +0.000 C 
ATOM     13  C   UNL     1       1.716   4.566  19.194  0.00  0.00    +0.000 C 
ATOM     14  C   UNL     1       0.755   4.231  20.329  0.00  0.00    +0.000 C 
ATOM     15  C   UNL     1       1.070   2.950  21.095  0.00  0.00    +0.000 C 
ATOM     16  C   UNL     1       2.497   2.819  21.626  0.00  0.00    +0.000 C 
ATOM     17  C   UNL     1       3.528   2.570  20.519  0.00  0.00    +0.000 C 
ENDBRANCH  10  11
TORSDOF 1
ENDMDL
MODEL 3
REMARK VINA RESULT:      -7.1      2.298      6.013
REMARK  Name = 
REMARK  1 active torsions:
REMARK  status: ('A' for Active; 'I' for Inactive)
REMARK    1  A    between atoms: N_10  and  C_11
REMARK                            x       y       z     vdW  Elec       q    Type
REMARK                         _______ _______ _______ _____ _____    ______ ____
ROOT
ATOM      1  O   UNL     1       1.457   4.143  17.143  0.00  0.00    +0.000 OA
ATOM      2  C   UNL     1       2.325   3.629  17.831  0.00  0.00    +0.000 A 
ATOM      3  C   UNL     1       2.064   3.185  19.214  0.00  0.00    +0.000 A 
ATOM      4  C   UNL     1       0.842   3.268  19.870  0.00  0.00    +0.000 A 
ATOM      5  C   UNL     1       0.807   2.964  21.232  0.00  0.00    +0.000 A 
ATOM      6  C   UNL     1       1.982   2.607  21.910  0.00  0.00    +0.000 A 
ATOM      7  C   UNL     1       3.200   2.513  21.228  0.00  0.00    +0.000 A 
ATOM      8  C   UNL     1       3.224   2.789  19.872  0.00  0.00    +0.000 A 
ATOM      9  S   UNL     1       4.612   2.771  18.785  0.00  0.00    +0.000 S 
ATOM     10  N   UNL     1       3.679   3.476  17.508  0.00  0.00    +0.000 N 
ENDROOT
BRANCH  10  11
ATOM     11  C   UNL     1       4.306   4.395  16.541  0.00  0.00    +0.000 C 
ATOM     12  C   UNL     1       4.503   5.802  17.145  0.00  0.00    +0.000 C 
ATOM     13  C   UNL     1       5.857   6.045  17.819  0.00  0.00    +0.000 C 
ATOM     14  C   UNL     1       6.921   6.550  16.851  0.00  0.00    +0.000 C 
ATOM     15  C   UNL     1       7.420   5.526  15.835  0.00  0.00    +0.000 C 
ATOM     16  C   UNL     1       6.342   4.806  15.025  0.00  0.00    +0.000 C 
ATOM     17  C   UNL     1       5.543   3.795  15.855  0.00  0.00    +0.000 C 
ENDBRANCH  10  11
TORSDOF 1
ENDMDL
MODEL 4
REMARK VINA RESULT:      -7.0      1.325      5.965
REMARK  Name = 
REMARK  1 active torsions:
REMARK  status: ('A' for Active; 'I' for Inactive)
REMARK    1  A    between atoms: N_10  and  C_11
REMARK                            x       y       z     vdW  Elec       q    Type
REMARK                         _______ _______ _______ _____ _____    ______ ____
ROOT
ATOM      1  O   UNL     1       3.962   6.254  19.292  0.00  0.00    +0.000 OA
ATOM      2  C   UNL     1       3.633   5.269  18.650  0.00  0.00    +0.000 A 
ATOM      3  C   UNL     1       2.474   4.439  19.032  0.00  0.00    +0.000 A 
ATOM      4  C   UNL     1       1.631   4.680  20.110  0.00  0.00    +0.000 A 
ATOM      5  C   UNL     1       0.687   3.703  20.435  0.00  0.00    +0.000 A 
ATOM      6  C   UNL     1       0.617   2.511  19.700  0.00  0.00    +0.000 A 
ATOM      7  C   UNL     1       1.464   2.295  18.607  0.00  0.00    +0.000 A 
ATOM      8  C   UNL     1       2.379   3.278  18.273  0.00  0.00    +0.000 A 
ATOM      9  S   UNL     1       3.569   3.254  16.972  0.00  0.00    +0.000 S 
ATOM     10  N   UNL     1       4.313   4.702  17.565  0.00  0.00    +0.000 N 
ENDROOT
BRANCH  10  11
ATOM     11  C   UNL     1       5.765   4.909  17.426  0.00  0.00    +0.000 C 
ATOM     12  C   UNL     1       6.082   6.052  16.438  0.00  0.00    +0.000 C 
ATOM     13  C   UNL     1       6.234   7.440  17.065  0.00  0.00    +0.000 C 
ATOM     14  C   UNL     1       7.659   7.734  17.522  0.00  0.00    +0.000 C 
ATOM     15  C   UNL     1       8.130   6.946  18.741  0.00  0.00    +0.000 C 
ATOM     16  C   UNL     1       7.957   5.429  18.666  0.00  0.00    +0.000 C 
ATOM     17  C   UNL     1       6.494   4.985  18.777  0.00  0.00    +0.000 C 
ENDBRANCH  10  11
TORSDOF 1
ENDMDL
MODEL 5
REMARK VINA RESULT:      -7.0      2.040      5.613
REMARK  Name = 
REMARK  1 active torsions:
REMARK  status: ('A' for Active; 'I' for Inactive)
REMARK    1  A    between atoms: N_10  and  C_11
REMARK                            x       y       z     vdW  Elec       q    Type
REMARK                         _______ _______ _______ _____ _____    ______ ____
ROOT
ATOM      1  O   UNL     1       5.474   3.658  18.877  0.00  0.00    +0.000 OA
ATOM      2  C   UNL     1       4.429   4.271  19.034  0.00  0.00    +0.000 A 
ATOM      3  C   UNL     1       3.392   3.816  19.978  0.00  0.00    +0.000 A 
ATOM      4  C   UNL     1       3.479   2.694  20.793  0.00  0.00    +0.000 A 
ATOM      5  C   UNL     1       2.339   2.306  21.500  0.00  0.00    +0.000 A 
ATOM      6  C   UNL     1       1.142   3.026  21.368  0.00  0.00    +0.000 A 
ATOM      7  C   UNL     1       1.080   4.164  20.555  0.00  0.00    +0.000 A 
ATOM      8  C   UNL     1       2.220   4.559  19.877  0.00  0.00    +0.000 A 
ATOM      9  S   UNL     1       2.410   5.925  18.780  0.00  0.00    +0.000 S 
ATOM     10  N   UNL     1       3.990   5.389  18.313  0.00  0.00    +0.000 N 
ENDROOT
BRANCH  10  11
ATOM     11  C   UNL     1       4.482   5.612  16.942  0.00  0.00    +0.000 C 
ATOM     12  C   UNL     1       5.757   6.483  16.934  0.00  0.00    +0.000 C 
ATOM     13  C   UNL     1       7.080   5.713  16.977  0.00  0.00    +0.000 C 
ATOM     14  C   UNL     1       7.593   5.334  15.592  0.00  0.00    +0.000 C 
ATOM     15  C   UNL     1       6.792   4.254  14.871  0.00  0.00    +0.000 C 
ATOM     16  C   UNL     1       5.285   4.490  14.773  0.00  0.00    +0.000 C 
ATOM     17  C   UNL     1       4.562   4.321  16.114  0.00  0.00    +0.000 C 
ENDBRANCH  10  11
TORSDOF 1
ENDMDL
MODEL 6
REMARK VINA RESULT:      -7.0      0.908      1.037
REMARK  Name = 
REMARK  1 active torsions:
REMARK  status: ('A' for Active; 'I' for Inactive)
REMARK    1  A    between atoms: N_10  and  C_11
REMARK                            x       y       z     vdW  Elec       q    Type
REMARK                         _______ _______ _______ _____ _____    ______ ____
ROOT
ATOM      1  O   UNL     1       5.457   3.684  19.353  0.00  0.00    +0.000 OA
ATOM      2  C   UNL     1       5.606   4.379  18.360  0.00  0.00    +0.000 A 
ATOM      3  C   UNL     1       6.622   5.447  18.301  0.00  0.00    +0.000 A 
ATOM      4  C   UNL     1       7.518   5.765  19.315  0.00  0.00    +0.000 A 
ATOM      5  C   UNL     1       8.296   6.915  19.166  0.00  0.00    +0.000 A 
ATOM      6  C   UNL     1       8.154   7.726  18.030  0.00  0.00    +0.000 A 
ATOM      7  C   UNL     1       7.259   7.379  17.012  0.00  0.00    +0.000 A 
ATOM      8  C   UNL     1       6.509   6.225  17.153  0.00  0.00    +0.000 A 
ATOM      9  S   UNL     1       5.302   5.574  16.045  0.00  0.00    +0.000 S 
ATOM     10  N   UNL     1       4.818   4.379  17.203  0.00  0.00    +0.000 N 
ENDROOT
BRANCH  10  11
ATOM     11  C   UNL     1       3.416   3.931  17.275  0.00  0.00    +0.000 C 
ATOM     12  C   UNL     1       3.320   2.398  17.429  0.00  0.00    +0.000 C 
ATOM     13  C   UNL     1       3.258   1.884  18.870  0.00  0.00    +0.000 C 
ATOM     14  C   UNL     1       1.836   1.809  19.415  0.00  0.00    +0.000 C 
ATOM     15  C   UNL     1       1.169   3.154  19.687  0.00  0.00    +0.000 C 
ATOM     16  C   UNL     1       1.185   4.155  18.532  0.00  0.00    +0.000 C 
ATOM     17  C   UNL     1       2.574   4.746  18.269  0.00  0.00    +0.000 C 
ENDBRANCH  10  11
TORSDOF 1
ENDMDL
MODEL 7
REMARK VINA RESULT:      -6.9      2.059      6.019
REMARK  Name = 
REMARK  1 active torsions:
REMARK  status: ('A' for Active; 'I' for Inactive)
REMARK    1  A    between atoms: N_10  and  C_11
REMARK                            x       y       z     vdW  Elec       q    Type
REMARK                         _______ _______ _______ _____ _____    ______ ____
ROOT
ATOM      1  O   UNL     1       2.313   3.299  16.535  0.00  0.00    +0.000 OA
ATOM      2  C   UNL     1       2.936   3.198  17.581  0.00  0.00    +0.000 A 
ATOM      3  C   UNL     1       2.262   2.950  18.869  0.00  0.00    +0.000 A 
ATOM      4  C   UNL     1       0.895   2.779  19.045  0.00  0.00    +0.000 A 
ATOM      5  C   UNL     1       0.402   2.725  20.350  0.00  0.00    +0.000 A 
ATOM      6  C   UNL     1       1.271   2.861  21.443  0.00  0.00    +0.000 A 
ATOM      7  C   UNL     1       2.647   3.015  21.246  0.00  0.00    +0.000 A 
ATOM      8  C   UNL     1       3.134   3.041  19.950  0.00  0.00    +0.000 A 
ATOM      9  S   UNL     1       4.803   3.245  19.422  0.00  0.00    +0.000 S 
ATOM     10  N   UNL     1       4.309   3.402  17.769  0.00  0.00    +0.000 N 
ENDROOT
BRANCH  10  11
ATOM     11  C   UNL     1       5.049   4.279  16.845  0.00  0.00    +0.000 C 
ATOM     12  C   UNL     1       4.413   5.683  16.767  0.00  0.00    +0.000 C 
ATOM     13  C   UNL     1       4.978   6.717  17.746  0.00  0.00    +0.000 C 
ATOM     14  C   UNL     1       6.180   7.470  17.188  0.00  0.00    +0.000 C 
ATOM     15  C   UNL     1       7.460   6.649  17.052  0.00  0.00    +0.000 C 
ATOM     16  C   UNL     1       7.331   5.328  16.294  0.00  0.00    +0.000 C 
ATOM     17  C   UNL     1       6.567   4.257  17.081  0.00  0.00    +0.000 C 
ENDBRANCH  10  11
TORSDOF 1
ENDMDL
MODEL 8
REMARK VINA RESULT:      -6.9      2.278      2.787
REMARK  Name = 
REMARK  1 active torsions:
REMARK  status: ('A' for Active; 'I' for Inactive)
REMARK    1  A    between atoms: N_10  and  C_11
REMARK                            x       y       z     vdW  Elec       q    Type
REMARK                         _______ _______ _______ _____ _____    ______ ____
ROOT
ATOM      1  O   UNL     1       3.322   7.187  17.280  0.00  0.00    +0.000 OA
ATOM      2  C   UNL     1       4.098   6.283  17.548  0.00  0.00    +0.000 A 
ATOM      3  C   UNL     1       5.152   5.856  16.608  0.00  0.00    +0.000 A 
ATOM      4  C   UNL     1       5.401   6.421  15.364  0.00  0.00    +0.000 A 
ATOM      5  C   UNL     1       6.322   5.788  14.527  0.00  0.00    +0.000 A 
ATOM      6  C   UNL     1       6.955   4.604  14.935  0.00  0.00    +0.000 A 
ATOM      7  C   UNL     1       6.703   4.059  16.199  0.00  0.00    +0.000 A 
ATOM      8  C   UNL     1       5.810   4.707  17.035  0.00  0.00    +0.000 A 
ATOM      9  S   UNL     1       5.297   4.229  18.653  0.00  0.00    +0.000 S 
ATOM     10  N   UNL     1       4.070   5.451  18.674  0.00  0.00    +0.000 N 
ENDROOT
BRANCH  10  11
ATOM     11  C   UNL     1       2.797   5.222  19.380  0.00  0.00    +0.000 C 
ATOM     12  C   UNL     1       1.705   4.700  18.422  0.00  0.00    +0.000 C 
ATOM     13  C   UNL     1       1.593   3.176  18.321  0.00  0.00    +0.000 C 
ATOM     14  C   UNL     1       0.655   2.578  19.365  0.00  0.00    +0.000 C 
ATOM     15  C   UNL     1       1.168   2.615  20.802  0.00  0.00    +0.000 C 
ATOM     16  C   UNL     1       1.640   3.978  21.309  0.00  0.00    +0.000 C 
ATOM     17  C   UNL     1       2.965   4.425  20.682  0.00  0.00    +0.000 C 
ENDBRANCH  10  11
TORSDOF 1
ENDMDL
MODEL 9
REMARK VINA RESULT:      -6.8      2.465      3.188
REMARK  Name = 
REMARK  1 active torsions:
REMARK  status: ('A' for Active; 'I' for Inactive)
REMARK    1  A    between atoms: N_10  and  C_11
REMARK                            x       y       z     vdW  Elec       q    Type
REMARK                         _______ _______ _______ _____ _____    ______ ____
ROOT
ATOM      1  O   UNL     1       3.095   3.681  16.921  0.00  0.00    +0.000 OA
ATOM      2  C   UNL     1       4.081   4.390  17.050  0.00  0.00    +0.000 A 
ATOM      3  C   UNL     1       5.088   4.529  15.981  0.00  0.00    +0.000 A 
ATOM      4  C   UNL     1       5.030   3.918  14.734  0.00  0.00    +0.000 A 
ATOM      5  C   UNL     1       6.148   4.016  13.903  0.00  0.00    +0.000 A 
ATOM      6  C   UNL     1       7.296   4.696  14.335  0.00  0.00    +0.000 A 
ATOM      7  C   UNL     1       7.329   5.318  15.588  0.00  0.00    +0.000 A 
ATOM      8  C   UNL     1       6.208   5.242  16.396  0.00  0.00    +0.000 A 
ATOM      9  S   UNL     1       5.990   5.908  18.014  0.00  0.00    +0.000 S 
ATOM     10  N   UNL     1       4.485   5.072  18.205  0.00  0.00    +0.000 N 
ENDROOT
BRANCH  10  11
ATOM     11  C   UNL     1       4.064   4.579  19.528  0.00  0.00    +0.000 C 
ATOM     12  C   UNL     1       2.803   5.313  20.031  0.00  0.00    +0.000 C 
ATOM     13  C   UNL     1       1.470   4.648  19.677  0.00  0.00    +0.000 C 
ATOM     14  C   UNL     1       1.022   3.625  20.715  0.00  0.00    +0.000 C 
ATOM     15  C   UNL     1       1.844   2.340  20.764  0.00  0.00    +0.000 C 
ATOM     16  C   UNL     1       3.357   2.518  20.892  0.00  0.00    +0.000 C 
ATOM     17  C   UNL     1       4.009   3.046  19.609  0.00  0.00    +0.000 C 
ENDBRANCH  10  11
TORSDOF 1
ENDMDL
