MODEL 1
REMARK VINA RESULT:     -10.6      0.000      0.000
REMARK  Name = 
REMARK  2 active torsions:
REMARK  status: ('A' for Active; 'I' for Inactive)
REMARK    1  A    between atoms: C_2  and  C_17
REMARK    2  A    between atoms: C_19  and  C_20
REMARK                            x       y       z     vdW  Elec       q    Type
REMARK                         _______ _______ _______ _____ _____    ______ ____
ROOT
ATOM      1  O   UNL     1       1.994   7.940  18.075  0.00  0.00    +0.000 OA
ATOM      2  C   UNL     1       2.196   7.273  19.087  0.00  0.00    +0.000 C 
ATOM      3  N   UNL     1       1.871   7.625  20.371  0.00  0.00    +0.000 N 
ATOM      4  C   UNL     1       1.268   8.819  20.664  0.00  0.00    +0.000 A 
ATOM      5  N   UNL     1       1.153   9.905  19.945  0.00  0.00    +0.000 NA
ATOM      6  C   UNL     1       0.435  10.872  20.656  0.00  0.00    +0.000 A 
ATOM      7  C   UNL     1      -0.016  10.444  21.908  0.00  0.00    +0.000 A 
ATOM      8  C   UNL     1      -0.808  11.250  22.738  0.00  0.00    +0.000 A 
ATOM      9  C   UNL     1      -1.129  12.537  22.305  0.00  0.00    +0.000 A 
ATOM     10  C   UNL     1      -0.669  13.030  21.082  0.00  0.00    +0.000 A 
ATOM     11  C   UNL     1      -0.978  14.335  20.671  0.00  0.00    +0.000 A 
ATOM     12  C   UNL     1      -0.512  14.829  19.451  0.00  0.00    +0.000 A 
ATOM     13  C   UNL     1       0.272  14.022  18.625  0.00  0.00    +0.000 A 
ATOM     14  C   UNL     1       0.585  12.717  19.010  0.00  0.00    +0.000 A 
ATOM     15  C   UNL     1       0.121  12.205  20.240  0.00  0.00    +0.000 A 
ATOM     16  S   UNL     1       0.573   8.853  22.217  0.00  0.00    +0.000 S 
ATOM     17  H   UNL     1       2.020   6.997  21.144  0.00  0.00    +0.000 HD
ENDROOT
BRANCH   2  18
ATOM     18  C   UNL     1       2.900   5.968  18.902  0.00  0.00    +0.000 A 
ATOM     19  C   UNL     1       3.753   5.934  17.796  0.00  0.00    +0.000 A 
ATOM     20  C   UNL     1       4.490   4.794  17.521  0.00  0.00    +0.000 A 
ATOM     21  N   UNL     1       4.431   3.722  18.346  0.00  0.00    +0.000 NA
ATOM     22  C   UNL     1       3.606   3.737  19.411  0.00  0.00    +0.000 A 
ATOM     23  C   UNL     1       3.585   2.615  20.229  0.00  0.00    +0.000 A 
ATOM     24  C   UNL     1       2.760   2.528  21.354  0.00  0.00    +0.000 A 
ATOM     25  C   UNL     1       1.892   3.568  21.644  0.00  0.00    +0.000 A 
ATOM     26  C   UNL     1       1.878   4.698  20.830  0.00  0.00    +0.000 A 
ATOM     27  C   UNL     1       2.773   4.831  19.733  0.00  0.00    +0.000 A 
BRANCH  20  28
ATOM     28  C   UNL     1       5.423   4.723  16.372  0.00  0.00    +0.000 A 
ATOM     29  C   UNL     1       6.667   5.378  16.399  0.00  0.00    +0.000 A 
ATOM     30  C   UNL     1       7.494   5.417  15.270  0.00  0.00    +0.000 A 
ATOM     31  C   UNL     1       7.103   4.788  14.091  0.00  0.00    +0.000 A 
ATOM     32  C   UNL     1       5.905   4.085  14.053  0.00  0.00    +0.000 A 
ATOM     33  C   UNL     1       5.085   4.042  15.184  0.00  0.00    +0.000 A 
ENDBRANCH  20  28
ENDBRANCH   2  18
TORSDOF 2
ENDMDL
MODEL 2
REMARK VINA RESULT:     -10.0      1.349      2.339
REMARK  Name = 
REMARK  2 active torsions:
REMARK  status: ('A' for Active; 'I' for Inactive)
REMARK    1  A    between atoms: C_2  and  C_17
REMARK    2  A    between atoms: C_19  and  C_20
REMARK                            x       y       z     vdW  Elec       q    Type
REMARK                         _______ _______ _______ _____ _____    ______ ____
ROOT
ATOM      1  O   UNL     1       1.870   7.260  20.742  0.00  0.00    +0.000 OA
ATOM      2  C   UNL     1       2.153   7.221  19.548  0.00  0.00    +0.000 C 
ATOM      3  N   UNL     1       2.047   8.255  18.653  0.00  0.00    +0.000 N 
ATOM      4  C   UNL     1       1.585   9.489  19.024  0.00  0.00    +0.000 A 
ATOM      5  N   UNL     1       0.923   9.858  20.090  0.00  0.00    +0.000 NA
ATOM      6  C   UNL     1       0.679  11.233  20.047  0.00  0.00    +0.000 A 
ATOM      7  C   UNL     1       1.226  11.876  18.932  0.00  0.00    +0.000 A 
ATOM      8  C   UNL     1       1.142  13.264  18.748  0.00  0.00    +0.000 A 
ATOM      9  C   UNL     1       0.460  14.021  19.701  0.00  0.00    +0.000 A 
ATOM     10  C   UNL     1      -0.141  13.424  20.812  0.00  0.00    +0.000 A 
ATOM     11  C   UNL     1      -0.846  14.195  21.749  0.00  0.00    +0.000 A 
ATOM     12  C   UNL     1      -1.452  13.596  22.854  0.00  0.00    +0.000 A 
ATOM     13  C   UNL     1      -1.362  12.215  23.037  0.00  0.00    +0.000 A 
ATOM     14  C   UNL     1      -0.659  11.430  22.122  0.00  0.00    +0.000 A 
ATOM     15  C   UNL     1      -0.042  12.021  21.000  0.00  0.00    +0.000 A 
ATOM     16  S   UNL     1       1.949  10.707  17.892  0.00  0.00    +0.000 S 
ATOM     17  H   UNL     1       2.352   8.160  17.698  0.00  0.00    +0.000 HD
ENDROOT
BRANCH   2  18
ATOM     18  C   UNL     1       2.619   5.908  19.010  0.00  0.00    +0.000 A 
ATOM     19  C   UNL     1       3.565   6.016  17.987  0.00  0.00    +0.000 A 
ATOM     20  C   UNL     1       4.103   4.876  17.414  0.00  0.00    +0.000 A 
ATOM     21  N   UNL     1       3.758   3.649  17.870  0.00  0.00    +0.000 NA
ATOM     22  C   UNL     1       2.840   3.529  18.849  0.00  0.00    +0.000 A 
ATOM     23  C   UNL     1       2.524   2.249  19.286  0.00  0.00    +0.000 A 
ATOM     24  C   UNL     1       1.580   2.016  20.291  0.00  0.00    +0.000 A 
ATOM     25  C   UNL     1       0.894   3.086  20.842  0.00  0.00    +0.000 A 
ATOM     26  C   UNL     1       1.178   4.380  20.410  0.00  0.00    +0.000 A 
ATOM     27  C   UNL     1       2.194   4.632  19.449  0.00  0.00    +0.000 A 
BRANCH  20  28
ATOM     28  C   UNL     1       5.125   4.945  16.344  0.00  0.00    +0.000 A 
ATOM     29  C   UNL     1       4.913   4.346  15.089  0.00  0.00    +0.000 A 
ATOM     30  C   UNL     1       5.924   4.301  14.122  0.00  0.00    +0.000 A 
ATOM     31  C   UNL     1       7.169   4.868  14.382  0.00  0.00    +0.000 A 
ATOM     32  C   UNL     1       7.390   5.517  15.591  0.00  0.00    +0.000 A 
ATOM     33  C   UNL     1       6.374   5.566  16.551  0.00  0.00    +0.000 A 
ENDBRANCH  20  28
ENDBRANCH   2  18
TORSDOF 2
ENDMDL
MODEL 3
REMARK VINA RESULT:      -9.8      2.528      9.766
REMARK  Name = 
REMARK  2 active torsions:
REMARK  status: ('A' for Active; 'I' for Inactive)
REMARK    1  A    between atoms: C_2  and  C_17
REMARK    2  A    between atoms: C_19  and  C_20
REMARK                            x       y       z     vdW  Elec       q    Type
REMARK                         _______ _______ _______ _____ _____    ______ ____
ROOT
ATOM      1  O   UNL     1       1.833   9.966  17.464  0.00  0.00    +0.000 OA
ATOM      2  C   UNL     1       1.091   9.591  18.368  0.00  0.00    +0.000 C 
ATOM      3  N   UNL     1       1.205   8.428  19.085  0.00  0.00    +0.000 N 
ATOM      4  C   UNL     1       2.203   7.523  18.842  0.00  0.00    +0.000 A 
ATOM      5  N   UNL     1       2.996   7.397  17.810  0.00  0.00    +0.000 NA
ATOM      6  C   UNL     1       3.878   6.333  18.014  0.00  0.00    +0.000 A 
ATOM      7  C   UNL     1       3.738   5.704  19.256  0.00  0.00    +0.000 A 
ATOM      8  C   UNL     1       4.577   4.659  19.668  0.00  0.00    +0.000 A 
ATOM      9  C   UNL     1       5.566   4.214  18.790  0.00  0.00    +0.000 A 
ATOM     10  C   UNL     1       5.721   4.777  17.522  0.00  0.00    +0.000 A 
ATOM     11  C   UNL     1       6.703   4.302  16.640  0.00  0.00    +0.000 A 
ATOM     12  C   UNL     1       6.852   4.861  15.370  0.00  0.00    +0.000 A 
ATOM     13  C   UNL     1       6.020   5.905  14.964  0.00  0.00    +0.000 A 
ATOM     14  C   UNL     1       5.042   6.400  15.828  0.00  0.00    +0.000 A 
ATOM     15  C   UNL     1       4.879   5.844  17.115  0.00  0.00    +0.000 A 
ATOM     16  S   UNL     1       2.411   6.403  20.107  0.00  0.00    +0.000 S 
ATOM     17  H   UNL     1       0.586   8.218  19.851  0.00  0.00    +0.000 HD
ENDROOT
BRANCH   2  18
ATOM     18  C   UNL     1      -0.074  10.471  18.690  0.00  0.00    +0.000 A 
ATOM     19  C   UNL     1       0.134  11.308  19.790  0.00  0.00    +0.000 A 
ATOM     20  C   UNL     1      -0.853  12.195  20.183  0.00  0.00    +0.000 A 
ATOM     21  N   UNL     1      -2.006  12.298  19.481  0.00  0.00    +0.000 NA
ATOM     22  C   UNL     1      -2.224  11.491  18.424  0.00  0.00    +0.000 A 
ATOM     23  C   UNL     1      -3.419  11.638  17.733  0.00  0.00    +0.000 A 
ATOM     24  C   UNL     1      -3.744  10.846  16.628  0.00  0.00    +0.000 A 
ATOM     25  C   UNL     1      -2.875   9.844  16.230  0.00  0.00    +0.000 A 
ATOM     26  C   UNL     1      -1.677   9.661  16.917  0.00  0.00    +0.000 A 
ATOM     27  C   UNL     1      -1.301  10.515  17.988  0.00  0.00    +0.000 A 
BRANCH  20  28
ATOM     28  C   UNL     1      -0.666  13.117  21.329  0.00  0.00    +0.000 A 
ATOM     29  C   UNL     1      -1.416  12.977  22.510  0.00  0.00    +0.000 A 
ATOM     30  C   UNL     1      -1.333  13.919  23.543  0.00  0.00    +0.000 A 
ATOM     31  C   UNL     1      -0.484  15.016  23.424  0.00  0.00    +0.000 A 
ATOM     32  C   UNL     1       0.311  15.151  22.292  0.00  0.00    +0.000 A 
ATOM     33  C   UNL     1       0.229  14.204  21.267  0.00  0.00    +0.000 A 
ENDBRANCH  20  28
ENDBRANCH   2  18
TORSDOF 2
ENDMDL
MODEL 4
REMARK VINA RESULT:      -9.5      2.822      9.729
REMARK  Name = 
REMARK  2 active torsions:
REMARK  status: ('A' for Active; 'I' for Inactive)
REMARK    1  A    between atoms: C_2  and  C_17
REMARK    2  A    between atoms: C_19  and  C_20
REMARK                            x       y       z     vdW  Elec       q    Type
REMARK                         _______ _______ _______ _____ _____    ______ ____
ROOT
ATOM      1  O   UNL     1       2.396  10.477  17.733  0.00  0.00    +0.000 OA
ATOM      2  C   UNL     1       1.570  10.210  18.602  0.00  0.00    +0.000 C 
ATOM      3  N   UNL     1       1.416   9.003  19.234  0.00  0.00    +0.000 N 
ATOM      4  C   UNL     1       2.203   7.923  18.935  0.00  0.00    +0.000 A 
ATOM      5  N   UNL     1       2.974   7.701  17.903  0.00  0.00    +0.000 NA
ATOM      6  C   UNL     1       3.603   6.460  18.037  0.00  0.00    +0.000 A 
ATOM      7  C   UNL     1       3.304   5.793  19.229  0.00  0.00    +0.000 A 
ATOM      8  C   UNL     1       3.889   4.566  19.571  0.00  0.00    +0.000 A 
ATOM      9  C   UNL     1       4.780   3.980  18.671  0.00  0.00    +0.000 A 
ATOM     10  C   UNL     1       5.081   4.582  17.448  0.00  0.00    +0.000 A 
ATOM     11  C   UNL     1       5.959   3.969  16.541  0.00  0.00    +0.000 A 
ATOM     12  C   UNL     1       6.254   4.569  15.316  0.00  0.00    +0.000 A 
ATOM     13  C   UNL     1       5.673   5.793  14.980  0.00  0.00    +0.000 A 
ATOM     14  C   UNL     1       4.804   6.425  15.870  0.00  0.00    +0.000 A 
ATOM     15  C   UNL     1       4.496   5.831  17.112  0.00  0.00    +0.000 A 
ATOM     16  S   UNL     1       2.138   6.701  20.117  0.00  0.00    +0.000 S 
ATOM     17  H   UNL     1       0.750   8.878  19.978  0.00  0.00    +0.000 HD
ENDROOT
BRANCH   2  18
ATOM     18  C   UNL     1       0.614  11.295  18.978  0.00  0.00    +0.000 A 
ATOM     19  C   UNL     1      -0.696  11.075  18.542  0.00  0.00    +0.000 A 
ATOM     20  C   UNL     1      -1.691  11.988  18.844  0.00  0.00    +0.000 A 
ATOM     21  N   UNL     1      -1.419  13.076  19.604  0.00  0.00    +0.000 NA
ATOM     22  C   UNL     1      -0.160  13.306  20.023  0.00  0.00    +0.000 A 
ATOM     23  C   UNL     1       0.067  14.432  20.803  0.00  0.00    +0.000 A 
ATOM     24  C   UNL     1       1.338  14.764  21.281  0.00  0.00    +0.000 A 
ATOM     25  C   UNL     1       2.424  13.980  20.930  0.00  0.00    +0.000 A 
ATOM     26  C   UNL     1       2.229  12.854  20.132  0.00  0.00    +0.000 A 
ATOM     27  C   UNL     1       0.929  12.463  19.711  0.00  0.00    +0.000 A 
BRANCH  20  28
ATOM     28  C   UNL     1      -3.097  11.783  18.423  0.00  0.00    +0.000 A 
ATOM     29  C   UNL     1      -3.412  11.275  17.150  0.00  0.00    +0.000 A 
ATOM     30  C   UNL     1      -4.737  11.199  16.703  0.00  0.00    +0.000 A 
ATOM     31  C   UNL     1      -5.780  11.615  17.527  0.00  0.00    +0.000 A 
ATOM     32  C   UNL     1      -5.503  12.068  18.811  0.00  0.00    +0.000 A 
ATOM     33  C   UNL     1      -4.179  12.136  19.255  0.00  0.00    +0.000 A 
ENDBRANCH  20  28
ENDBRANCH   2  18
TORSDOF 2
ENDMDL
MODEL 5
REMARK VINA RESULT:      -9.5      2.483      9.657
REMARK  Name = 
REMARK  2 active torsions:
REMARK  status: ('A' for Active; 'I' for Inactive)
REMARK    1  A    between atoms: C_2  and  C_17
REMARK    2  A    between atoms: C_19  and  C_20
REMARK                            x       y       z     vdW  Elec       q    Type
REMARK                         _______ _______ _______ _____ _____    ______ ____
ROOT
ATOM      1  O   UNL     1       2.226  10.253  17.468  0.00  0.00    +0.000 OA
ATOM      2  C   UNL     1       1.423   9.951  18.347  0.00  0.00    +0.000 C 
ATOM      3  N   UNL     1       1.382   8.768  19.038  0.00  0.00    +0.000 N 
ATOM      4  C   UNL     1       2.271   7.755  18.795  0.00  0.00    +0.000 A 
ATOM      5  N   UNL     1       3.068   7.558  17.777  0.00  0.00    +0.000 NA
ATOM      6  C   UNL     1       3.812   6.391  17.975  0.00  0.00    +0.000 A 
ATOM      7  C   UNL     1       3.569   5.758  19.198  0.00  0.00    +0.000 A 
ATOM      8  C   UNL     1       4.268   4.611  19.603  0.00  0.00    +0.000 A 
ATOM      9  C   UNL     1       5.217   4.071  18.735  0.00  0.00    +0.000 A 
ATOM     10  C   UNL     1       5.468   4.638  17.484  0.00  0.00    +0.000 A 
ATOM     11  C   UNL     1       6.407   4.068  16.611  0.00  0.00    +0.000 A 
ATOM     12  C   UNL     1       6.652   4.632  15.359  0.00  0.00    +0.000 A 
ATOM     13  C   UNL     1       5.959   5.776  14.961  0.00  0.00    +0.000 A 
ATOM     14  C   UNL     1       5.027   6.365  15.816  0.00  0.00    +0.000 A 
ATOM     15  C   UNL     1       4.768   5.806  17.085  0.00  0.00    +0.000 A 
ATOM     16  S   UNL     1       2.315   6.592  20.037  0.00  0.00    +0.000 S 
ATOM     17  H   UNL     1       0.725   8.616  19.786  0.00  0.00    +0.000 HD
ENDROOT
BRANCH   2  18
ATOM     18  C   UNL     1       0.364  10.956  18.666  0.00  0.00    +0.000 A 
ATOM     19  C   UNL     1       0.842  12.098  19.315  0.00  0.00    +0.000 A 
ATOM     20  C   UNL     1      -0.027  13.123  19.646  0.00  0.00    +0.000 A 
ATOM     21  N   UNL     1      -1.335  13.055  19.302  0.00  0.00    +0.000 NA
ATOM     22  C   UNL     1      -1.811  11.957  18.684  0.00  0.00    +0.000 A 
ATOM     23  C   UNL     1      -3.158  11.936  18.346  0.00  0.00    +0.000 A 
ATOM     24  C   UNL     1      -3.751  10.842  17.710  0.00  0.00    +0.000 A 
ATOM     25  C   UNL     1      -2.992   9.714  17.447  0.00  0.00    +0.000 A 
ATOM     26  C   UNL     1      -1.642   9.699  17.792  0.00  0.00    +0.000 A 
ATOM     27  C   UNL     1      -1.012  10.837  18.363  0.00  0.00    +0.000 A 
BRANCH  20  28
ATOM     28  C   UNL     1       0.440  14.361  20.314  0.00  0.00    +0.000 A 
ATOM     29  C   UNL     1       0.236  15.626  19.736  0.00  0.00    +0.000 A 
ATOM     30  C   UNL     1       0.786  16.783  20.300  0.00  0.00    +0.000 A 
ATOM     31  C   UNL     1       1.540  16.703  21.468  0.00  0.00    +0.000 A 
ATOM     32  C   UNL     1       1.712  15.474  22.093  0.00  0.00    +0.000 A 
ATOM     33  C   UNL     1       1.155  14.322  21.529  0.00  0.00    +0.000 A 
ENDBRANCH  20  28
ENDBRANCH   2  18
TORSDOF 2
ENDMDL
MODEL 6
REMARK VINA RESULT:      -9.3      0.732      1.122
REMARK  Name = 
REMARK  2 active torsions:
REMARK  status: ('A' for Active; 'I' for Inactive)
REMARK    1  A    between atoms: C_2  and  C_17
REMARK    2  A    between atoms: C_19  and  C_20
REMARK                            x       y       z     vdW  Elec       q    Type
REMARK                         _______ _______ _______ _____ _____    ______ ____
ROOT
ATOM      1  O   UNL     1       2.170   8.644  17.808  0.00  0.00    +0.000 OA
ATOM      2  C   UNL     1       2.194   7.891  18.778  0.00  0.00    +0.000 C 
ATOM      3  N   UNL     1       1.766   8.187  20.047  0.00  0.00    +0.000 N 
ATOM      4  C   UNL     1       1.255   9.415  20.371  0.00  0.00    +0.000 A 
ATOM      5  N   UNL     1       1.326  10.554  19.733  0.00  0.00    +0.000 NA
ATOM      6  C   UNL     1       0.633  11.540  20.441  0.00  0.00    +0.000 A 
ATOM      7  C   UNL     1       0.008  11.077  21.603  0.00  0.00    +0.000 A 
ATOM      8  C   UNL     1      -0.787  11.904  22.410  0.00  0.00    +0.000 A 
ATOM      9  C   UNL     1      -0.932  13.244  22.050  0.00  0.00    +0.000 A 
ATOM     10  C   UNL     1      -0.294  13.768  20.923  0.00  0.00    +0.000 A 
ATOM     11  C   UNL     1      -0.428  15.124  20.588  0.00  0.00    +0.000 A 
ATOM     12  C   UNL     1       0.215  15.648  19.466  0.00  0.00    +0.000 A 
ATOM     13  C   UNL     1       1.002  14.822  18.662  0.00  0.00    +0.000 A 
ATOM     14  C   UNL     1       1.141  13.468  18.971  0.00  0.00    +0.000 A 
ATOM     15  C   UNL     1       0.498  12.924  20.103  0.00  0.00    +0.000 A 
ATOM     16  S   UNL     1       0.401   9.415  21.843  0.00  0.00    +0.000 S 
ATOM     17  H   UNL     1       1.768   7.495  20.779  0.00  0.00    +0.000 HD
ENDROOT
BRANCH   2  18
ATOM     18  C   UNL     1       2.783   6.535  18.563  0.00  0.00    +0.000 A 
ATOM     19  C   UNL     1       3.693   6.472  17.505  0.00  0.00    +0.000 A 
ATOM     20  C   UNL     1       4.335   5.282  17.211  0.00  0.00    +0.000 A 
ATOM     21  N   UNL     1       4.127   4.181  17.972  0.00  0.00    +0.000 NA
ATOM     22  C   UNL     1       3.246   4.225  18.990  0.00  0.00    +0.000 A 
ATOM     23  C   UNL     1       3.071   3.072  19.744  0.00  0.00    +0.000 A 
ATOM     24  C   UNL     1       2.175   3.011  20.816  0.00  0.00    +0.000 A 
ATOM     25  C   UNL     1       1.393   4.114  21.113  0.00  0.00    +0.000 A 
ATOM     26  C   UNL     1       1.533   5.278  20.361  0.00  0.00    +0.000 A 
ATOM     27  C   UNL     1       2.500   5.377  19.324  0.00  0.00    +0.000 A 
BRANCH  20  28
ATOM     28  C   UNL     1       5.325   5.176  16.113  0.00  0.00    +0.000 A 
ATOM     29  C   UNL     1       5.003   4.550  14.895  0.00  0.00    +0.000 A 
ATOM     30  C   UNL     1       5.971   4.337  13.907  0.00  0.00    +0.000 A 
ATOM     31  C   UNL     1       7.283   4.760  14.107  0.00  0.00    +0.000 A 
ATOM     32  C   UNL     1       7.618   5.432  15.276  0.00  0.00    +0.000 A 
ATOM     33  C   UNL     1       6.646   5.648  16.258  0.00  0.00    +0.000 A 
ENDBRANCH  20  28
ENDBRANCH   2  18
TORSDOF 2
ENDMDL
MODEL 7
REMARK VINA RESULT:      -9.3      2.278     10.498
REMARK  Name = 
REMARK  2 active torsions:
REMARK  status: ('A' for Active; 'I' for Inactive)
REMARK    1  A    between atoms: C_2  and  C_17
REMARK    2  A    between atoms: C_19  and  C_20
REMARK                            x       y       z     vdW  Elec       q    Type
REMARK                         _______ _______ _______ _____ _____    ______ ____
ROOT
ATOM      1  O   UNL     1      -0.336   8.987  21.002  0.00  0.00    +0.000 OA
ATOM      2  C   UNL     1       0.204   9.834  20.295  0.00  0.00    +0.000 C 
ATOM      3  N   UNL     1       1.244   9.624  19.426  0.00  0.00    +0.000 N 
ATOM      4  C   UNL     1       1.813   8.389  19.262  0.00  0.00    +0.000 A 
ATOM      5  N   UNL     1       1.738   7.319  20.010  0.00  0.00    +0.000 NA
ATOM      6  C   UNL     1       2.474   6.282  19.431  0.00  0.00    +0.000 A 
ATOM      7  C   UNL     1       3.058   6.610  18.204  0.00  0.00    +0.000 A 
ATOM      8  C   UNL     1       3.779   5.680  17.441  0.00  0.00    +0.000 A 
ATOM      9  C   UNL     1       3.942   4.390  17.946  0.00  0.00    +0.000 A 
ATOM     10  C   UNL     1       3.416   4.021  19.186  0.00  0.00    +0.000 A 
ATOM     11  C   UNL     1       3.610   2.727  19.693  0.00  0.00    +0.000 A 
ATOM     12  C   UNL     1       3.089   2.362  20.936  0.00  0.00    +0.000 A 
ATOM     13  C   UNL     1       2.368   3.288  21.690  0.00  0.00    +0.000 A 
ATOM     14  C   UNL     1       2.155   4.578  21.202  0.00  0.00    +0.000 A 
ATOM     15  C   UNL     1       2.675   4.962  19.948  0.00  0.00    +0.000 A 
ATOM     16  S   UNL     1       2.758   8.271  17.852  0.00  0.00    +0.000 S 
ATOM     17  H   UNL     1       1.598  10.361  18.839  0.00  0.00    +0.000 HD
ENDROOT
BRANCH   2  18
ATOM     18  C   UNL     1      -0.293  11.237  20.426  0.00  0.00    +0.000 A 
ATOM     19  C   UNL     1      -1.423  11.365  21.239  0.00  0.00    +0.000 A 
ATOM     20  C   UNL     1      -1.975  12.614  21.468  0.00  0.00    +0.000 A 
ATOM     21  N   UNL     1      -1.400  13.726  20.951  0.00  0.00    +0.000 NA
ATOM     22  C   UNL     1      -0.316  13.616  20.159  0.00  0.00    +0.000 A 
ATOM     23  C   UNL     1       0.240  14.786  19.657  0.00  0.00    +0.000 A 
ATOM     24  C   UNL     1       1.360  14.780  18.820  0.00  0.00    +0.000 A 
ATOM     25  C   UNL     1       1.912  13.571  18.430  0.00  0.00    +0.000 A 
ATOM     26  C   UNL     1       1.363  12.381  18.903  0.00  0.00    +0.000 A 
ATOM     27  C   UNL     1       0.277  12.380  19.820  0.00  0.00    +0.000 A 
BRANCH  20  28
ATOM     28  C   UNL     1      -3.157  12.799  22.341  0.00  0.00    +0.000 A 
ATOM     29  C   UNL     1      -3.117  12.469  23.708  0.00  0.00    +0.000 A 
ATOM     30  C   UNL     1      -4.266  12.524  24.505  0.00  0.00    +0.000 A 
ATOM     31  C   UNL     1      -5.482  12.925  23.957  0.00  0.00    +0.000 A 
ATOM     32  C   UNL     1      -5.541  13.311  22.624  0.00  0.00    +0.000 A 
ATOM     33  C   UNL     1      -4.389  13.262  21.833  0.00  0.00    +0.000 A 
ENDBRANCH  20  28
ENDBRANCH   2  18
TORSDOF 2
ENDMDL
MODEL 8
REMARK VINA RESULT:      -9.2      2.347      9.437
REMARK  Name = 
REMARK  2 active torsions:
REMARK  status: ('A' for Active; 'I' for Inactive)
REMARK    1  A    between atoms: C_2  and  C_17
REMARK    2  A    between atoms: C_19  and  C_20
REMARK                            x       y       z     vdW  Elec       q    Type
REMARK                         _______ _______ _______ _____ _____    ______ ____
ROOT
ATOM      1  O   UNL     1       0.059   9.283  21.287  0.00  0.00    +0.000 OA
ATOM      2  C   UNL     1       0.621  10.067  20.526  0.00  0.00    +0.000 C 
ATOM      3  N   UNL     1       1.544   9.746  19.565  0.00  0.00    +0.000 N 
ATOM      4  C   UNL     1       1.955   8.457  19.356  0.00  0.00    +0.000 A 
ATOM      5  N   UNL     1       1.833   7.399  20.116  0.00  0.00    +0.000 NA
ATOM      6  C   UNL     1       2.392   6.289  19.477  0.00  0.00    +0.000 A 
ATOM      7  C   UNL     1       2.890   6.555  18.198  0.00  0.00    +0.000 A 
ATOM      8  C   UNL     1       3.430   5.553  17.377  0.00  0.00    +0.000 A 
ATOM      9  C   UNL     1       3.496   4.251  17.874  0.00  0.00    +0.000 A 
ATOM     10  C   UNL     1       3.052   3.939  19.161  0.00  0.00    +0.000 A 
ATOM     11  C   UNL     1       3.148   2.629  19.656  0.00  0.00    +0.000 A 
ATOM     12  C   UNL     1       2.711   2.320  20.945  0.00  0.00    +0.000 A 
ATOM     13  C   UNL     1       2.170   3.317  21.757  0.00  0.00    +0.000 A 
ATOM     14  C   UNL     1       2.056   4.625  21.282  0.00  0.00    +0.000 A 
ATOM     15  C   UNL     1       2.495   4.953  19.982  0.00  0.00    +0.000 A 
ATOM     16  S   UNL     1       2.744   8.240  17.864  0.00  0.00    +0.000 S 
ATOM     17  H   UNL     1       1.920  10.442  18.941  0.00  0.00    +0.000 HD
ENDROOT
BRANCH   2  18
ATOM     18  C   UNL     1       0.295  11.516  20.693  0.00  0.00    +0.000 A 
ATOM     19  C   UNL     1       1.029  12.363  19.858  0.00  0.00    +0.000 A 
ATOM     20  C   UNL     1       0.810  13.729  19.889  0.00  0.00    +0.000 A 
ATOM     21  N   UNL     1      -0.149  14.254  20.689  0.00  0.00    +0.000 NA
ATOM     22  C   UNL     1      -0.857  13.451  21.506  0.00  0.00    +0.000 A 
ATOM     23  C   UNL     1      -1.832  14.036  22.303  0.00  0.00    +0.000 A 
ATOM     24  C   UNL     1      -2.616  13.292  23.190  0.00  0.00    +0.000 A 
ATOM     25  C   UNL     1      -2.388  11.933  23.323  0.00  0.00    +0.000 A 
ATOM     26  C   UNL     1      -1.404  11.322  22.550  0.00  0.00    +0.000 A 
ATOM     27  C   UNL     1      -0.659  12.055  21.586  0.00  0.00    +0.000 A 
BRANCH  20  28
ATOM     28  C   UNL     1       1.548  14.661  19.005  0.00  0.00    +0.000 A 
ATOM     29  C   UNL     1       2.730  14.269  18.352  0.00  0.00    +0.000 A 
ATOM     30  C   UNL     1       3.496  15.183  17.619  0.00  0.00    +0.000 A 
ATOM     31  C   UNL     1       3.088  16.510  17.508  0.00  0.00    +0.000 A 
ATOM     32  C   UNL     1       1.895  16.914  18.095  0.00  0.00    +0.000 A 
ATOM     33  C   UNL     1       1.130  15.996  18.820  0.00  0.00    +0.000 A 
ENDBRANCH  20  28
ENDBRANCH   2  18
TORSDOF 2
ENDMDL
MODEL 9
REMARK VINA RESULT:      -9.1      2.268     10.471
REMARK  Name = 
REMARK  2 active torsions:
REMARK  status: ('A' for Active; 'I' for Inactive)
REMARK    1  A    between atoms: C_2  and  C_17
REMARK    2  A    between atoms: C_19  and  C_20
REMARK                            x       y       z     vdW  Elec       q    Type
REMARK                         _______ _______ _______ _____ _____    ______ ____
ROOT
ATOM      1  O   UNL     1       0.041   8.979  21.146  0.00  0.00    +0.000 OA
ATOM      2  C   UNL     1       0.644   9.773  20.429  0.00  0.00    +0.000 C 
ATOM      3  N   UNL     1       1.615   9.464  19.511  0.00  0.00    +0.000 N 
ATOM      4  C   UNL     1       2.033   8.176  19.304  0.00  0.00    +0.000 A 
ATOM      5  N   UNL     1       1.868   7.107  20.038  0.00  0.00    +0.000 NA
ATOM      6  C   UNL     1       2.456   6.004  19.411  0.00  0.00    +0.000 A 
ATOM      7  C   UNL     1       3.021   6.289  18.164  0.00  0.00    +0.000 A 
ATOM      8  C   UNL     1       3.599   5.299  17.357  0.00  0.00    +0.000 A 
ATOM      9  C   UNL     1       3.635   3.989  17.834  0.00  0.00    +0.000 A 
ATOM     10  C   UNL     1       3.123   3.657  19.091  0.00  0.00    +0.000 A 
ATOM     11  C   UNL     1       3.190   2.340  19.569  0.00  0.00    +0.000 A 
ATOM     12  C   UNL     1       2.684   2.011  20.828  0.00  0.00    +0.000 A 
ATOM     13  C   UNL     1       2.105   2.998  21.627  0.00  0.00    +0.000 A 
ATOM     14  C   UNL     1       2.021   4.313  21.168  0.00  0.00    +0.000 A 
ATOM     15  C   UNL     1       2.528   4.660  19.899  0.00  0.00    +0.000 A 
ATOM     16  S   UNL     1       2.898   7.980  17.851  0.00  0.00    +0.000 S 
ATOM     17  H   UNL     1       2.026  10.168  18.920  0.00  0.00    +0.000 HD
ENDROOT
BRANCH   2  18
ATOM     18  C   UNL     1       0.316  11.220  20.602  0.00  0.00    +0.000 A 
ATOM     19  C   UNL     1      -0.592  11.476  21.634  0.00  0.00    +0.000 A 
ATOM     20  C   UNL     1      -0.965  12.778  21.922  0.00  0.00    +0.000 A 
ATOM     21  N   UNL     1      -0.420  13.816  21.245  0.00  0.00    +0.000 NA
ATOM     22  C   UNL     1       0.449  13.584  20.243  0.00  0.00    +0.000 A 
ATOM     23  C   UNL     1       0.984  14.682  19.582  0.00  0.00    +0.000 A 
ATOM     24  C   UNL     1       1.888  14.547  18.524  0.00  0.00    +0.000 A 
ATOM     25  C   UNL     1       2.230  13.282  18.077  0.00  0.00    +0.000 A 
ATOM     26  C   UNL     1       1.694  12.162  18.709  0.00  0.00    +0.000 A 
ATOM     27  C   UNL     1       0.840  12.288  19.838  0.00  0.00    +0.000 A 
BRANCH  20  28
ATOM     28  C   UNL     1      -1.907  13.097  23.021  0.00  0.00    +0.000 A 
ATOM     29  C   UNL     1      -2.978  12.243  23.339  0.00  0.00    +0.000 A 
ATOM     30  C   UNL     1      -3.940  12.603  24.290  0.00  0.00    +0.000 A 
ATOM     31  C   UNL     1      -3.844  13.820  24.959  0.00  0.00    +0.000 A 
ATOM     32  C   UNL     1      -2.765  14.660  24.707  0.00  0.00    +0.000 A 
ATOM     33  C   UNL     1      -1.803  14.294  23.761  0.00  0.00    +0.000 A 
ENDBRANCH  20  28
ENDBRANCH   2  18
TORSDOF 2
ENDMDL
