MODEL 1
REMARK VINA RESULT:      -7.0      0.000      0.000
REMARK  Name = 
REMARK  5 active torsions:
REMARK  status: ('A' for Active; 'I' for Inactive)
REMARK    1  A    between atoms: C_1  and  C_2
REMARK    2  A    between atoms: C_2  and  C_3
REMARK    3  A    between atoms: C_9  and  C_10
REMARK    4  A    between atoms: C_15  and  C_16
REMARK    5  A    between atoms: C_16  and  C_17
REMARK                            x       y       z     vdW  Elec       q    Type
REMARK                         _______ _______ _______ _____ _____    ______ ____
ROOT
ATOM      1  C   UNL     1       0.875  10.363  20.296  0.00  0.00    +0.000 C 
ATOM      2  O   UNL     1       1.062  10.426  21.514  0.00  0.00    +0.000 OA
ATOM      3  N   UNL     1       1.074   9.180  19.582  0.00  0.00    +0.000 N 
ATOM      4  C   UNL     1       1.239   7.925  20.314  0.00  0.00    +0.000 C 
ATOM      5  C   UNL     1       2.593   7.300  19.992  0.00  0.00    +0.000 C 
ATOM      6  C   UNL     1       2.797   7.115  18.475  0.00  0.00    +0.000 C 
ATOM      7  C   UNL     1       2.582   8.475  17.782  0.00  0.00    +0.000 C 
ATOM      8  C   UNL     1       1.222   9.087  18.131  0.00  0.00    +0.000 C 
ENDROOT
BRANCH   1  15
ATOM      9  C   UNL     1      -1.950  11.423  19.176  0.00  0.00    +0.000 C 
ATOM     10  O   UNL     1      -1.817  10.330  18.621  0.00  0.00    +0.000 OA
ATOM     11  N   UNL     1      -0.883  12.070  19.761  0.00  0.00    +0.000 N 
ATOM     12  C   UNL     1      -0.868  13.353  20.435  0.00  0.00    +0.000 C 
ATOM     13  C   UNL     1       0.399  13.990  19.902  0.00  0.00    +0.000 C 
ATOM     14  C   UNL     1       1.367  12.813  19.819  0.00  0.00    +0.000 C 
ATOM     15  C   UNL     1       0.477  11.609  19.477  0.00  0.00    +0.000 C 
BRANCH   9  17
ATOM     16  C   UNL     1      -4.160  11.768  18.006  0.00  0.00    +0.000 C 
ATOM     17  C   UNL     1      -3.266  12.177  19.165  0.00  0.00    +0.000 C 
ENDBRANCH   9  17
ENDBRANCH   1  15
BRANCH   6  18
ATOM     18  C   UNL     1       1.875   6.051  17.835  0.00  0.00    +0.000 C 
BRANCH  18  19
ATOM     19  C   UNL     1       2.349   4.625  17.938  0.00  0.00    +0.000 A 
ATOM     20  C   UNL     1       3.692   4.307  17.684  0.00  0.00    +0.000 A 
ATOM     21  C   UNL     1       4.149   2.997  17.805  0.00  0.00    +0.000 A 
ATOM     22  C   UNL     1       3.261   2.000  18.193  0.00  0.00    +0.000 A 
ATOM     23  F   UNL     1       3.699   0.741  18.327  0.00  0.00    +0.000 F 
ATOM     24  C   UNL     1       1.929   2.292  18.460  0.00  0.00    +0.000 A 
ATOM     25  C   UNL     1       1.471   3.602  18.335  0.00  0.00    +0.000 A 
ENDBRANCH  18  19
ENDBRANCH   6  18
TORSDOF 4
ENDMDL
MODEL 2
REMARK VINA RESULT:      -6.8      4.084      9.089
REMARK  Name = 
REMARK  5 active torsions:
REMARK  status: ('A' for Active; 'I' for Inactive)
REMARK    1  A    between atoms: C_1  and  C_2
REMARK    2  A    between atoms: C_2  and  C_3
REMARK    3  A    between atoms: C_9  and  C_10
REMARK    4  A    between atoms: C_15  and  C_16
REMARK    5  A    between atoms: C_16  and  C_17
REMARK                            x       y       z     vdW  Elec       q    Type
REMARK                         _______ _______ _______ _____ _____    ______ ____
ROOT
ATOM      1  C   UNL     1       2.242   6.213  19.272  0.00  0.00    +0.000 C 
ATOM      2  O   UNL     1       1.888   5.652  20.313  0.00  0.00    +0.000 OA
ATOM      3  N   UNL     1       2.192   7.601  19.131  0.00  0.00    +0.000 N 
ATOM      4  C   UNL     1       1.980   8.431  20.317  0.00  0.00    +0.000 C 
ATOM      5  C   UNL     1       0.710   9.261  20.161  0.00  0.00    +0.000 C 
ATOM      6  C   UNL     1       0.723  10.098  18.865  0.00  0.00    +0.000 C 
ATOM      7  C   UNL     1       0.974   9.151  17.674  0.00  0.00    +0.000 C 
ATOM      8  C   UNL     1       2.247   8.321  17.861  0.00  0.00    +0.000 C 
ENDROOT
BRANCH   1  15
ATOM      9  C   UNL     1       5.145   5.375  18.164  0.00  0.00    +0.000 C 
ATOM     10  O   UNL     1       5.182   6.607  18.150  0.00  0.00    +0.000 OA
ATOM     11  N   UNL     1       3.954   4.689  18.253  0.00  0.00    +0.000 N 
ATOM     12  C   UNL     1       3.739   3.255  18.268  0.00  0.00    +0.000 C 
ATOM     13  C   UNL     1       2.546   3.092  17.348  0.00  0.00    +0.000 C 
ATOM     14  C   UNL     1       1.684   4.306  17.683  0.00  0.00    +0.000 C 
ATOM     15  C   UNL     1       2.697   5.407  18.037  0.00  0.00    +0.000 C 
BRANCH   9  17
ATOM     16  C   UNL     1       6.909   4.560  16.553  0.00  0.00    +0.000 C 
ATOM     17  C   UNL     1       6.392   4.531  17.982  0.00  0.00    +0.000 C 
ENDBRANCH   9  17
ENDBRANCH   1  15
BRANCH   6  18
ATOM     18  C   UNL     1       1.767  11.238  18.856  0.00  0.00    +0.000 C 
BRANCH  18  19
ATOM     19  C   UNL     1       1.210  12.637  18.855  0.00  0.00    +0.000 A 
ATOM     20  C   UNL     1      -0.147  12.858  19.140  0.00  0.00    +0.000 A 
ATOM     21  C   UNL     1      -0.668  14.149  19.172  0.00  0.00    +0.000 A 
ATOM     22  C   UNL     1       0.175  15.228  18.927  0.00  0.00    +0.000 A 
ATOM     23  F   UNL     1      -0.318  16.473  18.972  0.00  0.00    +0.000 F 
ATOM     24  C   UNL     1       1.523  15.035  18.652  0.00  0.00    +0.000 A 
ATOM     25  C   UNL     1       2.043  13.743  18.616  0.00  0.00    +0.000 A 
ENDBRANCH  18  19
ENDBRANCH   6  18
TORSDOF 4
ENDMDL
MODEL 3
REMARK VINA RESULT:      -6.7      1.117      1.426
REMARK  Name = 
REMARK  5 active torsions:
REMARK  status: ('A' for Active; 'I' for Inactive)
REMARK    1  A    between atoms: C_1  and  C_2
REMARK    2  A    between atoms: C_2  and  C_3
REMARK    3  A    between atoms: C_9  and  C_10
REMARK    4  A    between atoms: C_15  and  C_16
REMARK    5  A    between atoms: C_16  and  C_17
REMARK                            x       y       z     vdW  Elec       q    Type
REMARK                         _______ _______ _______ _____ _____    ______ ____
ROOT
ATOM      1  C   UNL     1       0.858  10.716  20.253  0.00  0.00    +0.000 C 
ATOM      2  O   UNL     1       1.022  10.819  21.472  0.00  0.00    +0.000 OA
ATOM      3  N   UNL     1       1.013   9.498  19.590  0.00  0.00    +0.000 N 
ATOM      4  C   UNL     1       1.099   8.266  20.373  0.00  0.00    +0.000 C 
ATOM      5  C   UNL     1       2.427   7.563  20.109  0.00  0.00    +0.000 C 
ATOM      6  C   UNL     1       2.655   7.308  18.605  0.00  0.00    +0.000 C 
ATOM      7  C   UNL     1       2.523   8.649  17.856  0.00  0.00    +0.000 C 
ATOM      8  C   UNL     1       1.188   9.340  18.148  0.00  0.00    +0.000 C 
ENDROOT
BRANCH   1  15
ATOM      9  C   UNL     1      -1.537  12.865  20.299  0.00  0.00    +0.000 C 
ATOM     10  O   UNL     1      -2.120  11.796  20.104  0.00  0.00    +0.000 OA
ATOM     11  N   UNL     1      -0.180  12.994  20.102  0.00  0.00    +0.000 N 
ATOM     12  C   UNL     1       0.646  14.174  20.271  0.00  0.00    +0.000 C 
ATOM     13  C   UNL     1       1.542  14.126  19.050  0.00  0.00    +0.000 C 
ATOM     14  C   UNL     1       1.826  12.635  18.890  0.00  0.00    +0.000 C 
ATOM     15  C   UNL     1       0.541  11.947  19.377  0.00  0.00    +0.000 C 
BRANCH   9  17
ATOM     16  C   UNL     1      -2.461  14.286  22.171  0.00  0.00    +0.000 C 
ATOM     17  C   UNL     1      -2.284  14.132  20.669  0.00  0.00    +0.000 C 
ENDBRANCH   9  17
ENDBRANCH   1  15
BRANCH   6  18
ATOM     18  C   UNL     1       1.694   6.266  17.985  0.00  0.00    +0.000 C 
BRANCH  18  19
ATOM     19  C   UNL     1       2.172   4.838  18.010  0.00  0.00    +0.000 A 
ATOM     20  C   UNL     1       3.489   4.526  17.637  0.00  0.00    +0.000 A 
ATOM     21  C   UNL     1       3.951   3.214  17.684  0.00  0.00    +0.000 A 
ATOM     22  C   UNL     1       3.095   2.207  18.117  0.00  0.00    +0.000 A 
ATOM     23  F   UNL     1       3.541   0.945  18.180  0.00  0.00    +0.000 F 
ATOM     24  C   UNL     1       1.791   2.492  18.501  0.00  0.00    +0.000 A 
ATOM     25  C   UNL     1       1.327   3.805  18.450  0.00  0.00    +0.000 A 
ENDBRANCH  18  19
ENDBRANCH   6  18
TORSDOF 4
ENDMDL
MODEL 4
REMARK VINA RESULT:      -6.6      4.125      9.045
REMARK  Name = 
REMARK  5 active torsions:
REMARK  status: ('A' for Active; 'I' for Inactive)
REMARK    1  A    between atoms: C_1  and  C_2
REMARK    2  A    between atoms: C_2  and  C_3
REMARK    3  A    between atoms: C_9  and  C_10
REMARK    4  A    between atoms: C_15  and  C_16
REMARK    5  A    between atoms: C_16  and  C_17
REMARK                            x       y       z     vdW  Elec       q    Type
REMARK                         _______ _______ _______ _____ _____    ______ ____
ROOT
ATOM      1  C   UNL     1       2.279   6.312  19.238  0.00  0.00    +0.000 C 
ATOM      2  O   UNL     1       2.032   5.741  20.304  0.00  0.00    +0.000 OA
ATOM      3  N   UNL     1       2.161   7.696  19.101  0.00  0.00    +0.000 N 
ATOM      4  C   UNL     1       2.012   8.521  20.299  0.00  0.00    +0.000 C 
ATOM      5  C   UNL     1       0.702   9.299  20.246  0.00  0.00    +0.000 C 
ATOM      6  C   UNL     1       0.576  10.130  18.953  0.00  0.00    +0.000 C 
ATOM      7  C   UNL     1       0.769   9.190  17.746  0.00  0.00    +0.000 C 
ATOM      8  C   UNL     1       2.085   8.412  17.830  0.00  0.00    +0.000 C 
ENDROOT
BRANCH   1  15
ATOM      9  C   UNL     1       5.112   5.624  17.876  0.00  0.00    +0.000 C 
ATOM     10  O   UNL     1       5.079   6.855  17.853  0.00  0.00    +0.000 OA
ATOM     11  N   UNL     1       3.974   4.874  18.076  0.00  0.00    +0.000 N 
ATOM     12  C   UNL     1       3.841   3.430  18.117  0.00  0.00    +0.000 C 
ATOM     13  C   UNL     1       2.581   3.192  17.310  0.00  0.00    +0.000 C 
ATOM     14  C   UNL     1       1.687   4.361  17.715  0.00  0.00    +0.000 C 
ATOM     15  C   UNL     1       2.664   5.519  17.971  0.00  0.00    +0.000 C 
BRANCH   9  17
ATOM     16  C   UNL     1       7.569   5.355  18.388  0.00  0.00    +0.000 C 
ATOM     17  C   UNL     1       6.383   4.848  17.586  0.00  0.00    +0.000 C 
ENDBRANCH   9  17
ENDBRANCH   1  15
BRANCH   6  18
ATOM     18  C   UNL     1       1.570  11.311  18.859  0.00  0.00    +0.000 C 
BRANCH  18  19
ATOM     19  C   UNL     1       1.060  12.639  19.357  0.00  0.00    +0.000 A 
ATOM     20  C   UNL     1       1.487  13.140  20.597  0.00  0.00    +0.000 A 
ATOM     21  C   UNL     1       1.046  14.379  21.054  0.00  0.00    +0.000 A 
ATOM     22  C   UNL     1       0.181  15.127  20.263  0.00  0.00    +0.000 A 
ATOM     23  F   UNL     1      -0.233  16.327  20.692  0.00  0.00    +0.000 F 
ATOM     24  C   UNL     1      -0.248  14.656  19.028  0.00  0.00    +0.000 A 
ATOM     25  C   UNL     1       0.190  13.415  18.573  0.00  0.00    +0.000 A 
ENDBRANCH  18  19
ENDBRANCH   6  18
TORSDOF 4
ENDMDL
MODEL 5
REMARK VINA RESULT:      -6.4      4.014      8.934
REMARK  Name = 
REMARK  5 active torsions:
REMARK  status: ('A' for Active; 'I' for Inactive)
REMARK    1  A    between atoms: C_1  and  C_2
REMARK    2  A    between atoms: C_2  and  C_3
REMARK    3  A    between atoms: C_9  and  C_10
REMARK    4  A    between atoms: C_15  and  C_16
REMARK    5  A    between atoms: C_16  and  C_17
REMARK                            x       y       z     vdW  Elec       q    Type
REMARK                         _______ _______ _______ _____ _____    ______ ____
ROOT
ATOM      1  C   UNL     1       2.287   6.330  19.258  0.00  0.00    +0.000 C 
ATOM      2  O   UNL     1       2.072   5.731  20.315  0.00  0.00    +0.000 OA
ATOM      3  N   UNL     1       2.128   7.712  19.150  0.00  0.00    +0.000 N 
ATOM      4  C   UNL     1       1.973   8.509  20.366  0.00  0.00    +0.000 C 
ATOM      5  C   UNL     1       0.640   9.250  20.346  0.00  0.00    +0.000 C 
ATOM      6  C   UNL     1       0.472  10.103  19.072  0.00  0.00    +0.000 C 
ATOM      7  C   UNL     1       0.674   9.192  17.844  0.00  0.00    +0.000 C 
ATOM      8  C   UNL     1       2.013   8.451  17.894  0.00  0.00    +0.000 C 
ENDROOT
BRANCH   1  15
ATOM      9  C   UNL     1       5.122   5.721  17.862  0.00  0.00    +0.000 C 
ATOM     10  O   UNL     1       5.068   6.952  17.868  0.00  0.00    +0.000 OA
ATOM     11  N   UNL     1       3.997   4.948  18.051  0.00  0.00    +0.000 N 
ATOM     12  C   UNL     1       3.888   3.501  18.059  0.00  0.00    +0.000 C 
ATOM     13  C   UNL     1       2.627   3.262  17.254  0.00  0.00    +0.000 C 
ATOM     14  C   UNL     1       1.717   4.406  17.693  0.00  0.00    +0.000 C 
ATOM     15  C   UNL     1       2.677   5.574  17.970  0.00  0.00    +0.000 C 
BRANCH   9  17
ATOM     16  C   UNL     1       7.555   5.385  18.445  0.00  0.00    +0.000 C 
ATOM     17  C   UNL     1       6.403   4.972  17.545  0.00  0.00    +0.000 C 
ENDBRANCH   9  17
ENDBRANCH   1  15
BRANCH   6  18
ATOM     18  C   UNL     1       1.430  11.314  18.988  0.00  0.00    +0.000 C 
BRANCH  18  19
ATOM     19  C   UNL     1       1.176  12.420  19.978  0.00  0.00    +0.000 A 
ATOM     20  C   UNL     1      -0.095  12.576  20.553  0.00  0.00    +0.000 A 
ATOM     21  C   UNL     1      -0.335  13.576  21.492  0.00  0.00    +0.000 A 
ATOM     22  C   UNL     1       0.705  14.419  21.867  0.00  0.00    +0.000 A 
ATOM     23  F   UNL     1       0.484  15.373  22.782  0.00  0.00    +0.000 F 
ATOM     24  C   UNL     1       1.974  14.279  21.319  0.00  0.00    +0.000 A 
ATOM     25  C   UNL     1       2.213  13.280  20.377  0.00  0.00    +0.000 A 
ENDBRANCH  18  19
ENDBRANCH   6  18
TORSDOF 4
ENDMDL
MODEL 6
REMARK VINA RESULT:      -6.4      0.683      1.249
REMARK  Name = 
REMARK  5 active torsions:
REMARK  status: ('A' for Active; 'I' for Inactive)
REMARK    1  A    between atoms: C_1  and  C_2
REMARK    2  A    between atoms: C_2  and  C_3
REMARK    3  A    between atoms: C_9  and  C_10
REMARK    4  A    between atoms: C_15  and  C_16
REMARK    5  A    between atoms: C_16  and  C_17
REMARK                            x       y       z     vdW  Elec       q    Type
REMARK                         _______ _______ _______ _____ _____    ______ ____
ROOT
ATOM      1  C   UNL     1       0.520  10.661  20.172  0.00  0.00    +0.000 C 
ATOM      2  O   UNL     1       0.626  10.754  21.398  0.00  0.00    +0.000 OA
ATOM      3  N   UNL     1       0.773   9.465  19.500  0.00  0.00    +0.000 N 
ATOM      4  C   UNL     1       0.898   8.228  20.270  0.00  0.00    +0.000 C 
ATOM      5  C   UNL     1       2.274   7.606  20.053  0.00  0.00    +0.000 C 
ATOM      6  C   UNL     1       2.579   7.389  18.556  0.00  0.00    +0.000 C 
ATOM      7  C   UNL     1       2.402   8.732  17.820  0.00  0.00    +0.000 C 
ATOM      8  C   UNL     1       1.018   9.340  18.065  0.00  0.00    +0.000 C 
ENDROOT
BRANCH   1  15
ATOM      9  C   UNL     1      -2.265  12.118  19.482  0.00  0.00    +0.000 C 
ATOM     10  O   UNL     1      -2.427  10.978  19.045  0.00  0.00    +0.000 OA
ATOM     11  N   UNL     1      -1.012  12.608  19.777  0.00  0.00    +0.000 N 
ATOM     12  C   UNL     1      -0.652  13.920  20.280  0.00  0.00    +0.000 C 
ATOM     13  C   UNL     1       0.565  14.269  19.447  0.00  0.00    +0.000 C 
ATOM     14  C   UNL     1       1.293  12.933  19.326  0.00  0.00    +0.000 C 
ATOM     15  C   UNL     1       0.169  11.886  19.300  0.00  0.00    +0.000 C 
BRANCH   9  17
ATOM     16  C   UNL     1      -4.286  12.793  20.837  0.00  0.00    +0.000 C 
ATOM     17  C   UNL     1      -3.417  13.095  19.628  0.00  0.00    +0.000 C 
ENDBRANCH   9  17
ENDBRANCH   1  15
BRANCH   6  18
ATOM     18  C   UNL     1       1.708   6.304  17.882  0.00  0.00    +0.000 C 
BRANCH  18  19
ATOM     19  C   UNL     1       2.252   4.900  17.933  0.00  0.00    +0.000 A 
ATOM     20  C   UNL     1       1.456   3.851  18.417  0.00  0.00    +0.000 A 
ATOM     21  C   UNL     1       1.937   2.544  18.441  0.00  0.00    +0.000 A 
ATOM     22  C   UNL     1       3.218   2.283  17.969  0.00  0.00    +0.000 A 
ATOM     23  F   UNL     1       3.680   1.025  17.975  0.00  0.00    +0.000 F 
ATOM     24  C   UNL     1       4.022   3.304  17.476  0.00  0.00    +0.000 A 
ATOM     25  C   UNL     1       3.541   4.611  17.456  0.00  0.00    +0.000 A 
ENDBRANCH  18  19
ENDBRANCH   6  18
TORSDOF 4
ENDMDL
MODEL 7
REMARK VINA RESULT:      -6.2      1.486      2.120
REMARK  Name = 
REMARK  5 active torsions:
REMARK  status: ('A' for Active; 'I' for Inactive)
REMARK    1  A    between atoms: C_1  and  C_2
REMARK    2  A    between atoms: C_2  and  C_3
REMARK    3  A    between atoms: C_9  and  C_10
REMARK    4  A    between atoms: C_15  and  C_16
REMARK    5  A    between atoms: C_16  and  C_17
REMARK                            x       y       z     vdW  Elec       q    Type
REMARK                         _______ _______ _______ _____ _____    ______ ____
ROOT
ATOM      1  C   UNL     1       1.009  11.040  19.726  0.00  0.00    +0.000 C 
ATOM      2  O   UNL     1       0.937  11.261  20.938  0.00  0.00    +0.000 OA
ATOM      3  N   UNL     1       1.147   9.746  19.222  0.00  0.00    +0.000 N 
ATOM      4  C   UNL     1       0.928   8.607  20.111  0.00  0.00    +0.000 C 
ATOM      5  C   UNL     1       2.188   7.752  20.196  0.00  0.00    +0.000 C 
ATOM      6  C   UNL     1       2.680   7.310  18.803  0.00  0.00    +0.000 C 
ATOM      7  C   UNL     1       2.862   8.566  17.927  0.00  0.00    +0.000 C 
ATOM      8  C   UNL     1       1.587   9.412  17.869  0.00  0.00    +0.000 C 
ENDROOT
BRANCH   1  15
ATOM      9  C   UNL     1      -0.731  13.733  19.447  0.00  0.00    +0.000 C 
ATOM     10  O   UNL     1      -1.577  12.841  19.370  0.00  0.00    +0.000 OA
ATOM     11  N   UNL     1       0.610  13.474  19.269  0.00  0.00    +0.000 N 
ATOM     12  C   UNL     1       1.722  14.405  19.312  0.00  0.00    +0.000 C 
ATOM     13  C   UNL     1       2.563  13.969  18.129  0.00  0.00    +0.000 C 
ATOM     14  C   UNL     1       2.439  12.448  18.162  0.00  0.00    +0.000 C 
ATOM     15  C   UNL     1       1.022  12.191  18.698  0.00  0.00    +0.000 C 
BRANCH   9  17
ATOM     16  C   UNL     1      -1.625  15.476  21.040  0.00  0.00    +0.000 C 
ATOM     17  C   UNL     1      -1.112  15.189  19.638  0.00  0.00    +0.000 C 
ENDBRANCH   9  17
ENDBRANCH   1  15
BRANCH   6  18
ATOM     18  C   UNL     1       1.746   6.305  18.089  0.00  0.00    +0.000 C 
BRANCH  18  19
ATOM     19  C   UNL     1       2.241   4.884  18.022  0.00  0.00    +0.000 A 
ATOM     20  C   UNL     1       1.378   3.820  18.327  0.00  0.00    +0.000 A 
ATOM     21  C   UNL     1       1.815   2.500  18.239  0.00  0.00    +0.000 A 
ATOM     22  C   UNL     1       3.120   2.242  17.834  0.00  0.00    +0.000 A 
ATOM     23  F   UNL     1       3.540   0.974  17.732  0.00  0.00    +0.000 F 
ATOM     24  C   UNL     1       3.990   3.278  17.517  0.00  0.00    +0.000 A 
ATOM     25  C   UNL     1       3.553   4.598  17.609  0.00  0.00    +0.000 A 
ENDBRANCH  18  19
ENDBRANCH   6  18
TORSDOF 4
ENDMDL
MODEL 8
REMARK VINA RESULT:      -6.2      3.294      5.334
REMARK  Name = 
REMARK  5 active torsions:
REMARK  status: ('A' for Active; 'I' for Inactive)
REMARK    1  A    between atoms: C_1  and  C_2
REMARK    2  A    between atoms: C_2  and  C_3
REMARK    3  A    between atoms: C_9  and  C_10
REMARK    4  A    between atoms: C_15  and  C_16
REMARK    5  A    between atoms: C_16  and  C_17
REMARK                            x       y       z     vdW  Elec       q    Type
REMARK                         _______ _______ _______ _____ _____    ______ ____
ROOT
ATOM      1  C   UNL     1      -1.975  13.172  21.538  0.00  0.00    +0.000 C 
ATOM      2  O   UNL     1      -2.715  13.918  20.891  0.00  0.00    +0.000 OA
ATOM      3  N   UNL     1      -1.032  12.351  20.916  0.00  0.00    +0.000 N 
ATOM      4  C   UNL     1      -0.716  12.570  19.506  0.00  0.00    +0.000 C 
ATOM      5  C   UNL     1      -1.028  11.318  18.693  0.00  0.00    +0.000 C 
ATOM      6  C   UNL     1      -0.316  10.071  19.257  0.00  0.00    +0.000 C 
ATOM      7  C   UNL     1      -0.685   9.931  20.748  0.00  0.00    +0.000 C 
ATOM      8  C   UNL     1      -0.373  11.205  21.538  0.00  0.00    +0.000 C 
ENDROOT
BRANCH   1  15
ATOM      9  C   UNL     1      -1.244  15.174  23.949  0.00  0.00    +0.000 C 
ATOM     10  O   UNL     1      -0.158  14.990  23.396  0.00  0.00    +0.000 OA
ATOM     11  N   UNL     1      -2.316  14.337  23.733  0.00  0.00    +0.000 N 
ATOM     12  C   UNL     1      -3.644  14.406  24.311  0.00  0.00    +0.000 C 
ATOM     13  C   UNL     1      -3.934  12.957  24.646  0.00  0.00    +0.000 C 
ATOM     14  C   UNL     1      -3.316  12.203  23.471  0.00  0.00    +0.000 C 
ATOM     15  C   UNL     1      -2.097  13.049  23.071  0.00  0.00    +0.000 C 
BRANCH   9  17
ATOM     16  C   UNL     1      -0.890  15.890  26.344  0.00  0.00    +0.000 C 
ATOM     17  C   UNL     1      -1.446  16.267  24.981  0.00  0.00    +0.000 C 
ENDBRANCH   9  17
ENDBRANCH   1  15
BRANCH   6  18
ATOM     18  C   UNL     1       1.222  10.093  19.099  0.00  0.00    +0.000 C 
BRANCH  18  19
ATOM     19  C   UNL     1       1.881   8.751  18.915  0.00  0.00    +0.000 A 
ATOM     20  C   UNL     1       2.574   8.461  17.729  0.00  0.00    +0.000 A 
ATOM     21  C   UNL     1       3.213   7.235  17.559  0.00  0.00    +0.000 A 
ATOM     22  C   UNL     1       3.167   6.297  18.585  0.00  0.00    +0.000 A 
ATOM     23  F   UNL     1       3.793   5.122  18.432  0.00  0.00    +0.000 F 
ATOM     24  C   UNL     1       2.495   6.565  19.771  0.00  0.00    +0.000 A 
ATOM     25  C   UNL     1       1.853   7.790  19.939  0.00  0.00    +0.000 A 
ENDBRANCH  18  19
ENDBRANCH   6  18
TORSDOF 4
ENDMDL
MODEL 9
REMARK VINA RESULT:      -6.2      2.558      3.224
REMARK  Name = 
REMARK  5 active torsions:
REMARK  status: ('A' for Active; 'I' for Inactive)
REMARK    1  A    between atoms: C_1  and  C_2
REMARK    2  A    between atoms: C_2  and  C_3
REMARK    3  A    between atoms: C_9  and  C_10
REMARK    4  A    between atoms: C_15  and  C_16
REMARK    5  A    between atoms: C_16  and  C_17
REMARK                            x       y       z     vdW  Elec       q    Type
REMARK                         _______ _______ _______ _____ _____    ______ ____
ROOT
ATOM      1  C   UNL     1      -0.890  11.740  22.110  0.00  0.00    +0.000 C 
ATOM      2  O   UNL     1      -0.617  12.204  23.220  0.00  0.00    +0.000 OA
ATOM      3  N   UNL     1      -0.501  10.453  21.735  0.00  0.00    +0.000 N 
ATOM      4  C   UNL     1      -0.005   9.532  22.756  0.00  0.00    +0.000 C 
ATOM      5  C   UNL     1       1.420   9.095  22.429  0.00  0.00    +0.000 C 
ATOM      6  C   UNL     1       1.529   8.498  21.011  0.00  0.00    +0.000 C 
ATOM      7  C   UNL     1       0.965   9.521  20.004  0.00  0.00    +0.000 C 
ATOM      8  C   UNL     1      -0.460   9.951  20.363  0.00  0.00    +0.000 C 
ENDROOT
BRANCH   1  15
ATOM      9  C   UNL     1      -3.650  13.393  22.148  0.00  0.00    +0.000 C 
ATOM     10  O   UNL     1      -4.010  12.238  22.378  0.00  0.00    +0.000 OA
ATOM     11  N   UNL     1      -2.411  13.672  21.615  0.00  0.00    +0.000 N 
ATOM     12  C   UNL     1      -1.845  14.963  21.275  0.00  0.00    +0.000 C 
ATOM     13  C   UNL     1      -1.190  14.693  19.936  0.00  0.00    +0.000 C 
ATOM     14  C   UNL     1      -0.620  13.288  20.109  0.00  0.00    +0.000 C 
ATOM     15  C   UNL     1      -1.617  12.583  21.042  0.00  0.00    +0.000 C 
BRANCH   9  17
ATOM     16  C   UNL     1      -4.769  14.939  23.801  0.00  0.00    +0.000 C 
ATOM     17  C   UNL     1      -4.579  14.578  22.337  0.00  0.00    +0.000 C 
ENDBRANCH   9  17
ENDBRANCH   1  15
BRANCH   6  18
ATOM     18  C   UNL     1       0.807   7.141  20.837  0.00  0.00    +0.000 C 
BRANCH  18  19
ATOM     19  C   UNL     1       1.675   5.989  20.402  0.00  0.00    +0.000 A 
ATOM     20  C   UNL     1       2.891   6.230  19.744  0.00  0.00    +0.000 A 
ATOM     21  C   UNL     1       3.716   5.174  19.363  0.00  0.00    +0.000 A 
ATOM     22  C   UNL     1       3.328   3.871  19.651  0.00  0.00    +0.000 A 
ATOM     23  F   UNL     1       4.126   2.852  19.301  0.00  0.00    +0.000 F 
ATOM     24  C   UNL     1       2.133   3.608  20.310  0.00  0.00    +0.000 A 
ATOM     25  C   UNL     1       1.306   4.664  20.686  0.00  0.00    +0.000 A 
ENDBRANCH  18  19
ENDBRANCH   6  18
TORSDOF 4
ENDMDL
