MODEL 1
REMARK VINA RESULT:      -6.9      0.000      0.000
REMARK  Name = 
REMARK  1 active torsions:
REMARK  status: ('A' for Active; 'I' for Inactive)
REMARK    1  A    between atoms: O_1  and  C_2
REMARK                            x       y       z     vdW  Elec       q    Type
REMARK                         _______ _______ _______ _____ _____    ______ ____
ROOT
ATOM      1  C   UNL     1       7.499   7.379  17.625  0.00  0.00    +0.000 A 
ATOM      2  C   UNL     1       8.150   6.697  18.643  0.00  0.00    +0.000 A 
ATOM      3  C   UNL     1       7.482   5.679  19.334  0.00  0.00    +0.000 A 
ATOM      4  C   UNL     1       6.153   5.348  18.990  0.00  0.00    +0.000 A 
ATOM      5  N   UNL     1       5.373   4.369  19.584  0.00  0.00    +0.000 NA
ATOM      6  C   UNL     1       4.185   4.296  19.023  0.00  0.00    +0.000 A 
ATOM      7  N   UNL     1       3.222   3.418  19.422  0.00  0.00    +0.000 N 
ATOM      8  C   UNL     1       1.924   3.245  18.772  0.00  0.00    +0.000 C 
ATOM      9  C   UNL     1       0.812   3.384  19.822  0.00  0.00    +0.000 C 
ATOM     10  O   UNL     1       0.996   2.455  20.904  0.00  0.00    +0.000 OA
ATOM     11  C   UNL     1       2.260   2.685  21.553  0.00  0.00    +0.000 C 
ATOM     12  C   UNL     1       3.438   2.538  20.573  0.00  0.00    +0.000 C 
ATOM     13  S   UNL     1       3.953   5.441  17.745  0.00  0.00    +0.000 S 
ATOM     14  C   UNL     1       5.537   6.051  17.959  0.00  0.00    +0.000 A 
ATOM     15  C   UNL     1       6.188   7.080  17.263  0.00  0.00    +0.000 A 
ENDROOT
BRANCH   1  16
ATOM     16  O   UNL     1       8.118   8.379  16.931  0.00  0.00    +0.000 OA
ATOM     17  H   UNL     1       9.063   8.169  16.853  0.00  0.00    +0.000 HD
ENDBRANCH   1  16
TORSDOF 1
ENDMDL
MODEL 2
REMARK VINA RESULT:      -6.7      1.919      1.997
REMARK  Name = 
REMARK  1 active torsions:
REMARK  status: ('A' for Active; 'I' for Inactive)
REMARK    1  A    between atoms: O_1  and  C_2
REMARK                            x       y       z     vdW  Elec       q    Type
REMARK                         _______ _______ _______ _____ _____    ______ ____
ROOT
ATOM      1  C   UNL     1       6.965   5.063  15.497  0.00  0.00    +0.000 A 
ATOM      2  C   UNL     1       7.700   5.119  16.673  0.00  0.00    +0.000 A 
ATOM      3  C   UNL     1       7.128   4.676  17.872  0.00  0.00    +0.000 A 
ATOM      4  C   UNL     1       5.810   4.170  17.878  0.00  0.00    +0.000 A 
ATOM      5  N   UNL     1       5.119   3.699  18.983  0.00  0.00    +0.000 NA
ATOM      6  C   UNL     1       3.916   3.280  18.654  0.00  0.00    +0.000 A 
ATOM      7  N   UNL     1       3.028   2.772  19.554  0.00  0.00    +0.000 N 
ATOM      8  C   UNL     1       1.718   2.217  19.219  0.00  0.00    +0.000 C 
ATOM      9  C   UNL     1       0.644   2.910  20.070  0.00  0.00    +0.000 C 
ATOM     10  O   UNL     1       0.932   2.791  21.474  0.00  0.00    +0.000 OA
ATOM     11  C   UNL     1       2.205   3.391  21.777  0.00  0.00    +0.000 C 
ATOM     12  C   UNL     1       3.348   2.733  20.984  0.00  0.00    +0.000 C 
ATOM     13  S   UNL     1       3.558   3.460  16.970  0.00  0.00    +0.000 S 
ATOM     14  C   UNL     1       5.108   4.124  16.677  0.00  0.00    +0.000 A 
ATOM     15  C   UNL     1       5.662   4.572  15.470  0.00  0.00    +0.000 A 
ENDROOT
BRANCH   1  16
ATOM     16  O   UNL     1       7.490   5.489  14.310  0.00  0.00    +0.000 OA
ATOM     17  H   UNL     1       8.339   5.928  14.482  0.00  0.00    +0.000 HD
ENDBRANCH   1  16
TORSDOF 1
ENDMDL
MODEL 3
REMARK VINA RESULT:      -6.6      2.133      6.525
REMARK  Name = 
REMARK  1 active torsions:
REMARK  status: ('A' for Active; 'I' for Inactive)
REMARK    1  A    between atoms: O_1  and  C_2
REMARK                            x       y       z     vdW  Elec       q    Type
REMARK                         _______ _______ _______ _____ _____    ______ ____
ROOT
ATOM      1  C   UNL     1       1.447   2.796  20.606  0.00  0.00    +0.000 A 
ATOM      2  C   UNL     1       1.034   2.196  19.424  0.00  0.00    +0.000 A 
ATOM      3  C   UNL     1       1.835   2.292  18.280  0.00  0.00    +0.000 A 
ATOM      4  C   UNL     1       3.060   2.992  18.334  0.00  0.00    +0.000 A 
ATOM      5  N   UNL     1       3.950   3.167  17.286  0.00  0.00    +0.000 NA
ATOM      6  C   UNL     1       5.008   3.852  17.665  0.00  0.00    +0.000 A 
ATOM      7  N   UNL     1       6.034   4.168  16.826  0.00  0.00    +0.000 N 
ATOM      8  C   UNL     1       7.263   4.851  17.224  0.00  0.00    +0.000 C 
ATOM      9  C   UNL     1       7.480   6.071  16.317  0.00  0.00    +0.000 C 
ATOM     10  O   UNL     1       7.504   5.693  14.930  0.00  0.00    +0.000 OA
ATOM     11  C   UNL     1       6.261   5.069  14.559  0.00  0.00    +0.000 C 
ATOM     12  C   UNL     1       5.978   3.815  15.404  0.00  0.00    +0.000 C 
ATOM     13  S   UNL     1       4.958   4.338  19.326  0.00  0.00    +0.000 S 
ATOM     14  C   UNL     1       3.442   3.574  19.539  0.00  0.00    +0.000 A 
ATOM     15  C   UNL     1       2.647   3.496  20.691  0.00  0.00    +0.000 A 
ENDROOT
BRANCH   1  16
ATOM     16  O   UNL     1       0.690   2.726  21.740  0.00  0.00    +0.000 OA
ATOM     17  H   UNL     1       0.472   1.795  21.914  0.00  0.00    +0.000 HD
ENDBRANCH   1  16
TORSDOF 1
ENDMDL
MODEL 4
REMARK VINA RESULT:      -6.5      2.399      2.943
REMARK  Name = 
REMARK  1 active torsions:
REMARK  status: ('A' for Active; 'I' for Inactive)
REMARK    1  A    between atoms: O_1  and  C_2
REMARK                            x       y       z     vdW  Elec       q    Type
REMARK                         _______ _______ _______ _____ _____    ______ ____
ROOT
ATOM      1  C   UNL     1       7.012   5.144  14.854  0.00  0.00    +0.000 A 
ATOM      2  C   UNL     1       6.303   4.095  14.286  0.00  0.00    +0.000 A 
ATOM      3  C   UNL     1       5.172   3.588  14.936  0.00  0.00    +0.000 A 
ATOM      4  C   UNL     1       4.754   4.148  16.163  0.00  0.00    +0.000 A 
ATOM      5  N   UNL     1       3.660   3.751  16.914  0.00  0.00    +0.000 NA
ATOM      6  C   UNL     1       3.530   4.485  17.999  0.00  0.00    +0.000 A 
ATOM      7  N   UNL     1       2.538   4.300  18.913  0.00  0.00    +0.000 N 
ATOM      8  C   UNL     1       2.307   5.145  20.083  0.00  0.00    +0.000 C 
ATOM      9  C   UNL     1       2.250   4.263  21.339  0.00  0.00    +0.000 C 
ATOM     10  O   UNL     1       1.249   3.239  21.214  0.00  0.00    +0.000 OA
ATOM     11  C   UNL     1       1.534   2.395  20.082  0.00  0.00    +0.000 C 
ATOM     12  C   UNL     1       1.581   3.198  18.771  0.00  0.00    +0.000 C 
ATOM     13  S   UNL     1       4.759   5.693  18.166  0.00  0.00    +0.000 S 
ATOM     14  C   UNL     1       5.488   5.203  16.698  0.00  0.00    +0.000 A 
ATOM     15  C   UNL     1       6.629   5.716  16.065  0.00  0.00    +0.000 A 
ENDROOT
BRANCH   1  16
ATOM     16  O   UNL     1       8.122   5.661  14.250  0.00  0.00    +0.000 OA
ATOM     17  H   UNL     1       8.836   5.004  14.289  0.00  0.00    +0.000 HD
ENDBRANCH   1  16
TORSDOF 1
ENDMDL
MODEL 5
REMARK VINA RESULT:      -6.0      2.237      6.299
REMARK  Name = 
REMARK  1 active torsions:
REMARK  status: ('A' for Active; 'I' for Inactive)
REMARK    1  A    between atoms: O_1  and  C_2
REMARK                            x       y       z     vdW  Elec       q    Type
REMARK                         _______ _______ _______ _____ _____    ______ ____
ROOT
ATOM      1  C   UNL     1       1.503   3.255  20.949  0.00  0.00    +0.000 A 
ATOM      2  C   UNL     1       1.631   4.611  21.216  0.00  0.00    +0.000 A 
ATOM      3  C   UNL     1       2.407   5.415  20.371  0.00  0.00    +0.000 A 
ATOM      4  C   UNL     1       3.050   4.844  19.251  0.00  0.00    +0.000 A 
ATOM      5  N   UNL     1       3.844   5.514  18.335  0.00  0.00    +0.000 NA
ATOM      6  C   UNL     1       4.282   4.702  17.396  0.00  0.00    +0.000 A 
ATOM      7  N   UNL     1       5.087   5.106  16.374  0.00  0.00    +0.000 N 
ATOM      8  C   UNL     1       5.525   4.259  15.266  0.00  0.00    +0.000 C 
ATOM      9  C   UNL     1       7.056   4.320  15.158  0.00  0.00    +0.000 C 
ATOM     10  O   UNL     1       7.515   5.674  15.009  0.00  0.00    +0.000 OA
ATOM     11  C   UNL     1       7.110   6.468  16.139  0.00  0.00    +0.000 C 
ATOM     12  C   UNL     1       5.580   6.485  16.306  0.00  0.00    +0.000 C 
ATOM     13  S   UNL     1       3.758   3.065  17.599  0.00  0.00    +0.000 S 
ATOM     14  C   UNL     1       2.892   3.482  19.014  0.00  0.00    +0.000 A 
ATOM     15  C   UNL     1       2.127   2.661  19.855  0.00  0.00    +0.000 A 
ENDROOT
BRANCH   1  16
ATOM     16  O   UNL     1       0.757   2.441  21.752  0.00  0.00    +0.000 OA
ATOM     17  H   UNL     1       1.304   2.154  22.502  0.00  0.00    +0.000 HD
ENDBRANCH   1  16
TORSDOF 1
ENDMDL
MODEL 6
REMARK VINA RESULT:      -6.0      1.917      6.101
REMARK  Name = 
REMARK  1 active torsions:
REMARK  status: ('A' for Active; 'I' for Inactive)
REMARK    1  A    between atoms: O_1  and  C_2
REMARK                            x       y       z     vdW  Elec       q    Type
REMARK                         _______ _______ _______ _____ _____    ______ ____
ROOT
ATOM      1  C   UNL     1       1.955   2.825  21.514  0.00  0.00    +0.000 A 
ATOM      2  C   UNL     1       3.070   2.001  21.583  0.00  0.00    +0.000 A 
ATOM      3  C   UNL     1       4.161   2.237  20.738  0.00  0.00    +0.000 A 
ATOM      4  C   UNL     1       4.125   3.313  19.825  0.00  0.00    +0.000 A 
ATOM      5  N   UNL     1       5.125   3.664  18.933  0.00  0.00    +0.000 NA
ATOM      6  C   UNL     1       4.792   4.727  18.232  0.00  0.00    +0.000 A 
ATOM      7  N   UNL     1       5.597   5.278  17.281  0.00  0.00    +0.000 N 
ATOM      8  C   UNL     1       5.304   6.505  16.542  0.00  0.00    +0.000 C 
ATOM      9  C   UNL     1       5.415   6.225  15.036  0.00  0.00    +0.000 C 
ATOM     10  O   UNL     1       6.707   5.693  14.696  0.00  0.00    +0.000 OA
ATOM     11  C   UNL     1       6.942   4.461  15.403  0.00  0.00    +0.000 C 
ATOM     12  C   UNL     1       6.877   4.657  16.928  0.00  0.00    +0.000 C 
ATOM     13  S   UNL     1       3.221   5.343  18.616  0.00  0.00    +0.000 S 
ATOM     14  C   UNL     1       2.992   4.121  19.791  0.00  0.00    +0.000 A 
ATOM     15  C   UNL     1       1.886   3.893  20.623  0.00  0.00    +0.000 A 
ENDROOT
BRANCH   1  16
ATOM     16  O   UNL     1       0.872   2.623  22.321  0.00  0.00    +0.000 OA
ATOM     17  H   UNL     1       0.688   3.441  22.811  0.00  0.00    +0.000 HD
ENDBRANCH   1  16
TORSDOF 1
ENDMDL
MODEL 7
REMARK VINA RESULT:      -5.9      4.093      5.645
REMARK  Name = 
REMARK  1 active torsions:
REMARK  status: ('A' for Active; 'I' for Inactive)
REMARK    1  A    between atoms: O_1  and  C_2
REMARK                            x       y       z     vdW  Elec       q    Type
REMARK                         _______ _______ _______ _____ _____    ______ ____
ROOT
ATOM      1  C   UNL     1       3.678   2.260  18.445  0.00  0.00    +0.000 A 
ATOM      2  C   UNL     1       4.002   2.988  17.308  0.00  0.00    +0.000 A 
ATOM      3  C   UNL     1       3.722   4.359  17.258  0.00  0.00    +0.000 A 
ATOM      4  C   UNL     1       3.117   4.995  18.364  0.00  0.00    +0.000 A 
ATOM      5  N   UNL     1       2.784   6.337  18.455  0.00  0.00    +0.000 NA
ATOM      6  C   UNL     1       2.250   6.621  19.624  0.00  0.00    +0.000 A 
ATOM      7  N   UNL     1       1.830   7.870  19.971  0.00  0.00    +0.000 N 
ATOM      8  C   UNL     1       1.312   8.245  21.285  0.00  0.00    +0.000 C 
ATOM      9  C   UNL     1      -0.053   8.929  21.113  0.00  0.00    +0.000 C 
ATOM     10  O   UNL     1       0.037  10.061  20.231  0.00  0.00    +0.000 OA
ATOM     11  C   UNL     1       0.502   9.648  18.932  0.00  0.00    +0.000 C 
ATOM     12  C   UNL     1       1.884   8.975  19.009  0.00  0.00    +0.000 C 
ATOM     13  S   UNL     1       2.109   5.249  20.670  0.00  0.00    +0.000 S 
ATOM     14  C   UNL     1       2.813   4.233  19.487  0.00  0.00    +0.000 A 
ATOM     15  C   UNL     1       3.078   2.857  19.551  0.00  0.00    +0.000 A 
ENDROOT
BRANCH   1  16
ATOM     16  O   UNL     1       3.933   0.921  18.527  0.00  0.00    +0.000 OA
ATOM     17  H   UNL     1       4.717   0.718  17.991  0.00  0.00    +0.000 HD
ENDBRANCH   1  16
TORSDOF 1
ENDMDL
MODEL 8
REMARK VINA RESULT:      -5.9      4.100      4.712
REMARK  Name = 
REMARK  1 active torsions:
REMARK  status: ('A' for Active; 'I' for Inactive)
REMARK    1  A    between atoms: O_1  and  C_2
REMARK                            x       y       z     vdW  Elec       q    Type
REMARK                         _______ _______ _______ _____ _____    ______ ____
ROOT
ATOM      1  C   UNL     1       1.239  10.379  18.760  0.00  0.00    +0.000 A 
ATOM      2  C   UNL     1       0.774   9.995  20.010  0.00  0.00    +0.000 A 
ATOM      3  C   UNL     1       1.064   8.714  20.496  0.00  0.00    +0.000 A 
ATOM      4  C   UNL     1       1.832   7.822  19.715  0.00  0.00    +0.000 A 
ATOM      5  N   UNL     1       2.195   6.532  20.066  0.00  0.00    +0.000 NA
ATOM      6  C   UNL     1       2.927   5.968  19.129  0.00  0.00    +0.000 A 
ATOM      7  N   UNL     1       3.411   4.698  19.221  0.00  0.00    +0.000 N 
ATOM      8  C   UNL     1       4.296   4.064  18.245  0.00  0.00    +0.000 C 
ATOM      9  C   UNL     1       3.688   2.724  17.807  0.00  0.00    +0.000 C 
ATOM     10  O   UNL     1       3.440   1.869  18.936  0.00  0.00    +0.000 OA
ATOM     11  C   UNL     1       2.526   2.502  19.852  0.00  0.00    +0.000 C 
ATOM     12  C   UNL     1       3.073   3.846  20.365  0.00  0.00    +0.000 C 
ATOM     13  S   UNL     1       3.192   6.985  17.754  0.00  0.00    +0.000 S 
ATOM     14  C   UNL     1       2.285   8.247  18.470  0.00  0.00    +0.000 A 
ATOM     15  C   UNL     1       1.995   9.522  17.964  0.00  0.00    +0.000 A 
ENDROOT
BRANCH   1  16
ATOM     16  O   UNL     1       0.972  11.619  18.253  0.00  0.00    +0.000 OA
ATOM     17  H   UNL     1       1.766  12.171  18.341  0.00  0.00    +0.000 HD
ENDBRANCH   1  16
TORSDOF 1
ENDMDL
MODEL 9
REMARK VINA RESULT:      -5.7      8.582      9.831
REMARK  Name = 
REMARK  1 active torsions:
REMARK  status: ('A' for Active; 'I' for Inactive)
REMARK    1  A    between atoms: O_1  and  C_2
REMARK                            x       y       z     vdW  Elec       q    Type
REMARK                         _______ _______ _______ _____ _____    ______ ____
ROOT
ATOM      1  C   UNL     1      -3.533  10.498  15.500  0.00  0.00    +0.000 A 
ATOM      2  C   UNL     1      -4.390  11.262  16.280  0.00  0.00    +0.000 A 
ATOM      3  C   UNL     1      -4.040  11.570  17.600  0.00  0.00    +0.000 A 
ATOM      4  C   UNL     1      -2.816  11.107  18.130  0.00  0.00    +0.000 A 
ATOM      5  N   UNL     1      -2.341  11.333  19.412  0.00  0.00    +0.000 NA
ATOM      6  C   UNL     1      -1.160  10.781  19.590  0.00  0.00    +0.000 A 
ATOM      7  N   UNL     1      -0.472  10.850  20.764  0.00  0.00    +0.000 N 
ATOM      8  C   UNL     1       0.877  10.327  20.978  0.00  0.00    +0.000 C 
ATOM      9  C   UNL     1       0.870   9.399  22.202  0.00  0.00    +0.000 C 
ATOM     10  O   UNL     1       0.368  10.076  23.367  0.00  0.00    +0.000 OA
ATOM     11  C   UNL     1      -0.978  10.534  23.140  0.00  0.00    +0.000 C 
ATOM     12  C   UNL     1      -1.058  11.496  21.942  0.00  0.00    +0.000 C 
ATOM     13  S   UNL     1      -0.575   9.936  18.197  0.00  0.00    +0.000 S 
ATOM     14  C   UNL     1      -1.981  10.348  17.315  0.00  0.00    +0.000 A 
ATOM     15  C   UNL     1      -2.321  10.023  15.994  0.00  0.00    +0.000 A 
ENDROOT
BRANCH   1  16
ATOM     16  O   UNL     1      -3.844  10.176  14.210  0.00  0.00    +0.000 OA
ATOM     17  H   UNL     1      -3.392   9.349  13.975  0.00  0.00    +0.000 HD
ENDBRANCH   1  16
TORSDOF 1
ENDMDL
