MODEL 1
REMARK VINA RESULT:      -8.1      0.000      0.000
REMARK  Name = 
REMARK  5 active torsions:
REMARK  status: ('A' for Active; 'I' for Inactive)
REMARK    1  A    between atoms: C_1  and  O_2
REMARK    2  A    between atoms: O_2  and  C_3
REMARK    3  A    between atoms: C_6  and  C_7
REMARK    4  A    between atoms: C_20  and  O_21
REMARK    5  A    between atoms: O_21  and  C_22
REMARK                            x       y       z     vdW  Elec       q    Type
REMARK                         _______ _______ _______ _____ _____    ______ ____
ROOT
ATOM      1  C   UNL     1       4.060   3.781  17.145  0.00  0.00    +0.000 A 
ATOM      2  C   UNL     1       3.775   2.478  17.344  0.00  0.00    +0.000 A 
ATOM      3  O   UNL     1       2.765   1.964  18.124  0.00  0.00    +0.000 OA
ATOM      4  C   UNL     1       2.316   2.772  19.131  0.00  0.00    +0.000 A 
ATOM      5  C   UNL     1       1.635   2.172  20.183  0.00  0.00    +0.000 A 
ATOM      6  C   UNL     1       1.373   2.926  21.318  0.00  0.00    +0.000 A 
ATOM      7  F   UNL     1       0.783   2.344  22.369  0.00  0.00    +0.000 F 
ATOM      8  C   UNL     1       1.755   4.265  21.401  0.00  0.00    +0.000 A 
ATOM      9  C   UNL     1       2.339   4.890  20.298  0.00  0.00    +0.000 A 
ATOM     10  C   UNL     1       2.605   4.134  19.157  0.00  0.00    +0.000 A 
ATOM     11  C   UNL     1       3.251   4.726  17.972  0.00  0.00    +0.000 A 
ATOM     12  O   UNL     1       3.133   5.922  17.737  0.00  0.00    +0.000 OA
ENDROOT
BRANCH   1  16
ATOM     13  C   UNL     1       7.170   5.140  14.452  0.00  0.00    +0.000 A 
ATOM     14  C   UNL     1       6.268   4.144  14.052  0.00  0.00    +0.000 A 
ATOM     15  C   UNL     1       5.252   3.700  14.911  0.00  0.00    +0.000 A 
ATOM     16  C   UNL     1       5.125   4.212  16.207  0.00  0.00    +0.000 A 
ATOM     17  C   UNL     1       6.075   5.164  16.603  0.00  0.00    +0.000 A 
ATOM     18  C   UNL     1       7.081   5.643  15.757  0.00  0.00    +0.000 A 
BRANCH  13  20
ATOM     19  C   UNL     1       7.886   5.499  12.225  0.00  0.00    +0.000 C 
ATOM     20  O   UNL     1       8.141   5.623  13.621  0.00  0.00    +0.000 OA
ENDBRANCH  13  20
BRANCH  18  21
ATOM     21  O   UNL     1       7.829   6.610  16.367  0.00  0.00    +0.000 OA
ATOM     22  C   UNL     1       7.305   7.279  17.500  0.00  0.00    +0.000 C 
ENDBRANCH  18  21
ENDBRANCH   1  16
TORSDOF 3
ENDMDL
MODEL 2
REMARK VINA RESULT:      -7.7      1.169      1.367
REMARK  Name = 
REMARK  5 active torsions:
REMARK  status: ('A' for Active; 'I' for Inactive)
REMARK    1  A    between atoms: C_1  and  O_2
REMARK    2  A    between atoms: O_2  and  C_3
REMARK    3  A    between atoms: C_6  and  C_7
REMARK    4  A    between atoms: C_20  and  O_21
REMARK    5  A    between atoms: O_21  and  C_22
REMARK                            x       y       z     vdW  Elec       q    Type
REMARK                         _______ _______ _______ _____ _____    ______ ____
ROOT
ATOM      1  C   UNL     1       4.692   3.376  17.863  0.00  0.00    +0.000 A 
ATOM      2  C   UNL     1       5.232   3.033  19.049  0.00  0.00    +0.000 A 
ATOM      3  O   UNL     1       4.589   2.432  20.107  0.00  0.00    +0.000 OA
ATOM      4  C   UNL     1       3.235   2.615  20.166  0.00  0.00    +0.000 A 
ATOM      5  C   UNL     1       2.612   2.415  21.391  0.00  0.00    +0.000 A 
ATOM      6  C   UNL     1       1.290   2.814  21.534  0.00  0.00    +0.000 A 
ATOM      7  F   UNL     1       0.696   2.696  22.727  0.00  0.00    +0.000 F 
ATOM      8  C   UNL     1       0.585   3.376  20.470  0.00  0.00    +0.000 A 
ATOM      9  C   UNL     1       1.184   3.471  19.213  0.00  0.00    +0.000 A 
ATOM     10  C   UNL     1       2.513   3.074  19.067  0.00  0.00    +0.000 A 
ATOM     11  C   UNL     1       3.213   3.180  17.775  0.00  0.00    +0.000 A 
ATOM     12  O   UNL     1       2.583   3.138  16.726  0.00  0.00    +0.000 OA
ENDROOT
BRANCH   1  16
ATOM     13  C   UNL     1       7.076   5.127  14.696  0.00  0.00    +0.000 A 
ATOM     14  C   UNL     1       6.358   3.943  14.475  0.00  0.00    +0.000 A 
ATOM     15  C   UNL     1       5.576   3.370  15.489  0.00  0.00    +0.000 A 
ATOM     16  C   UNL     1       5.513   3.941  16.765  0.00  0.00    +0.000 A 
ATOM     17  C   UNL     1       6.285   5.092  16.978  0.00  0.00    +0.000 A 
ATOM     18  C   UNL     1       7.052   5.698  15.976  0.00  0.00    +0.000 A 
BRANCH  13  20
ATOM     19  C   UNL     1       7.719   5.147  12.419  0.00  0.00    +0.000 C 
ATOM     20  O   UNL     1       7.809   5.732  13.714  0.00  0.00    +0.000 OA
ENDBRANCH  13  20
BRANCH  18  21
ATOM     21  O   UNL     1       7.653   6.838  16.429  0.00  0.00    +0.000 OA
ATOM     22  C   UNL     1       7.651   7.118  17.817  0.00  0.00    +0.000 C 
ENDBRANCH  18  21
ENDBRANCH   1  16
TORSDOF 3
ENDMDL
MODEL 3
REMARK VINA RESULT:      -7.5      3.666      4.619
REMARK  Name = 
REMARK  5 active torsions:
REMARK  status: ('A' for Active; 'I' for Inactive)
REMARK    1  A    between atoms: C_1  and  O_2
REMARK    2  A    between atoms: O_2  and  C_3
REMARK    3  A    between atoms: C_6  and  C_7
REMARK    4  A    between atoms: C_20  and  O_21
REMARK    5  A    between atoms: O_21  and  C_22
REMARK                            x       y       z     vdW  Elec       q    Type
REMARK                         _______ _______ _______ _____ _____    ______ ____
ROOT
ATOM      1  C   UNL     1       2.761   6.936  18.763  0.00  0.00    +0.000 A 
ATOM      2  C   UNL     1       2.402   6.444  19.966  0.00  0.00    +0.000 A 
ATOM      3  O   UNL     1       1.418   6.929  20.797  0.00  0.00    +0.000 OA
ATOM      4  C   UNL     1       1.099   8.249  20.639  0.00  0.00    +0.000 A 
ATOM      5  C   UNL     1       0.456   8.886  21.693  0.00  0.00    +0.000 A 
ATOM      6  C   UNL     1       0.330  10.268  21.653  0.00  0.00    +0.000 A 
ATOM      7  F   UNL     1      -0.222  10.905  22.694  0.00  0.00    +0.000 F 
ATOM      8  C   UNL     1       0.807  11.008  20.572  0.00  0.00    +0.000 A 
ATOM      9  C   UNL     1       1.353  10.350  19.468  0.00  0.00    +0.000 A 
ATOM     10  C   UNL     1       1.483   8.962  19.506  0.00  0.00    +0.000 A 
ATOM     11  C   UNL     1       2.081   8.212  18.387  0.00  0.00    +0.000 A 
ATOM     12  O   UNL     1       2.029   8.656  17.248  0.00  0.00    +0.000 OA
ENDROOT
BRANCH   1  16
ATOM     13  C   UNL     1       5.776   5.084  16.262  0.00  0.00    +0.000 A 
ATOM     14  C   UNL     1       4.611   4.385  16.610  0.00  0.00    +0.000 A 
ATOM     15  C   UNL     1       3.624   4.975  17.413  0.00  0.00    +0.000 A 
ATOM     16  C   UNL     1       3.783   6.269  17.921  0.00  0.00    +0.000 A 
ATOM     17  C   UNL     1       4.981   6.925  17.607  0.00  0.00    +0.000 A 
ATOM     18  C   UNL     1       5.969   6.370  16.787  0.00  0.00    +0.000 A 
BRANCH  13  20
ATOM     19  C   UNL     1       6.266   3.980  14.227  0.00  0.00    +0.000 C 
ATOM     20  O   UNL     1       6.733   4.551  15.445  0.00  0.00    +0.000 OA
ENDBRANCH  13  20
BRANCH  18  21
ATOM     21  O   UNL     1       7.002   7.241  16.589  0.00  0.00    +0.000 OA
ATOM     22  C   UNL     1       7.711   7.742  17.707  0.00  0.00    +0.000 C 
ENDBRANCH  18  21
ENDBRANCH   1  16
TORSDOF 3
ENDMDL
MODEL 4
REMARK VINA RESULT:      -7.3      4.578      6.373
REMARK  Name = 
REMARK  5 active torsions:
REMARK  status: ('A' for Active; 'I' for Inactive)
REMARK    1  A    between atoms: C_1  and  O_2
REMARK    2  A    between atoms: O_2  and  C_3
REMARK    3  A    between atoms: C_6  and  C_7
REMARK    4  A    between atoms: C_20  and  O_21
REMARK    5  A    between atoms: O_21  and  C_22
REMARK                            x       y       z     vdW  Elec       q    Type
REMARK                         _______ _______ _______ _____ _____    ______ ____
ROOT
ATOM      1  C   UNL     1       2.296   7.650  18.617  0.00  0.00    +0.000 A 
ATOM      2  C   UNL     1       2.420   8.580  17.649  0.00  0.00    +0.000 A 
ATOM      3  O   UNL     1       2.158   9.927  17.760  0.00  0.00    +0.000 OA
ATOM      4  C   UNL     1       1.276  10.286  18.741  0.00  0.00    +0.000 A 
ATOM      5  C   UNL     1       0.657  11.524  18.627  0.00  0.00    +0.000 A 
ATOM      6  C   UNL     1      -0.403  11.814  19.474  0.00  0.00    +0.000 A 
ATOM      7  F   UNL     1      -1.058  12.973  19.330  0.00  0.00    +0.000 F 
ATOM      8  C   UNL     1      -0.827  10.903  20.441  0.00  0.00    +0.000 A 
ATOM      9  C   UNL     1      -0.129   9.707  20.621  0.00  0.00    +0.000 A 
ATOM     10  C   UNL     1       0.935   9.412  19.770  0.00  0.00    +0.000 A 
ATOM     11  C   UNL     1       1.691   8.153  19.887  0.00  0.00    +0.000 A 
ATOM     12  O   UNL     1       1.764   7.574  20.963  0.00  0.00    +0.000 OA
ENDROOT
BRANCH   1  16
ATOM     13  C   UNL     1       3.563   3.558  17.958  0.00  0.00    +0.000 A 
ATOM     14  C   UNL     1       2.252   3.955  17.658  0.00  0.00    +0.000 A 
ATOM     15  C   UNL     1       1.831   5.278  17.859  0.00  0.00    +0.000 A 
ATOM     16  C   UNL     1       2.695   6.238  18.398  0.00  0.00    +0.000 A 
ATOM     17  C   UNL     1       3.981   5.803  18.744  0.00  0.00    +0.000 A 
ATOM     18  C   UNL     1       4.434   4.497  18.529  0.00  0.00    +0.000 A 
BRANCH  13  20
ATOM     19  C   UNL     1       3.598   1.302  18.670  0.00  0.00    +0.000 C 
ATOM     20  O   UNL     1       4.013   2.288  17.731  0.00  0.00    +0.000 OA
ENDBRANCH  13  20
BRANCH  18  21
ATOM     21  O   UNL     1       5.742   4.355  18.895  0.00  0.00    +0.000 OA
ATOM     22  C   UNL     1       6.761   4.686  17.969  0.00  0.00    +0.000 C 
ENDBRANCH  18  21
ENDBRANCH   1  16
TORSDOF 3
ENDMDL
MODEL 5
REMARK VINA RESULT:      -7.3      0.888      2.122
REMARK  Name = 
REMARK  5 active torsions:
REMARK  status: ('A' for Active; 'I' for Inactive)
REMARK    1  A    between atoms: C_1  and  O_2
REMARK    2  A    between atoms: O_2  and  C_3
REMARK    3  A    between atoms: C_6  and  C_7
REMARK    4  A    between atoms: C_20  and  O_21
REMARK    5  A    between atoms: O_21  and  C_22
REMARK                            x       y       z     vdW  Elec       q    Type
REMARK                         _______ _______ _______ _____ _____    ______ ____
ROOT
ATOM      1  C   UNL     1       4.177   3.946  17.042  0.00  0.00    +0.000 A 
ATOM      2  C   UNL     1       3.865   2.644  17.205  0.00  0.00    +0.000 A 
ATOM      3  O   UNL     1       2.841   2.129  17.967  0.00  0.00    +0.000 OA
ATOM      4  C   UNL     1       2.405   2.918  18.995  0.00  0.00    +0.000 A 
ATOM      5  C   UNL     1       1.708   2.303  20.027  0.00  0.00    +0.000 A 
ATOM      6  C   UNL     1       1.458   3.031  21.182  0.00  0.00    +0.000 A 
ATOM      7  F   UNL     1       0.852   2.432  22.214  0.00  0.00    +0.000 F 
ATOM      8  C   UNL     1       1.866   4.360  21.303  0.00  0.00    +0.000 A 
ATOM      9  C   UNL     1       2.467   5.002  20.220  0.00  0.00    +0.000 A 
ATOM     10  C   UNL     1       2.722   4.273  19.059  0.00  0.00    +0.000 A 
ATOM     11  C   UNL     1       3.384   4.884  17.893  0.00  0.00    +0.000 A 
ATOM     12  O   UNL     1       3.292   6.088  17.691  0.00  0.00    +0.000 OA
ENDROOT
BRANCH   1  16
ATOM     13  C   UNL     1       7.328   5.117  14.309  0.00  0.00    +0.000 A 
ATOM     14  C   UNL     1       7.196   5.745  15.555  0.00  0.00    +0.000 A 
ATOM     15  C   UNL     1       6.185   5.371  16.452  0.00  0.00    +0.000 A 
ATOM     16  C   UNL     1       5.254   4.381  16.121  0.00  0.00    +0.000 A 
ATOM     17  C   UNL     1       5.371   3.808  14.847  0.00  0.00    +0.000 A 
ATOM     18  C   UNL     1       6.386   4.144  13.944  0.00  0.00    +0.000 A 
BRANCH  13  20
ATOM     19  C   UNL     1       7.916   5.906  12.157  0.00  0.00    +0.000 C 
ATOM     20  O   UNL     1       8.330   5.430  13.433  0.00  0.00    +0.000 OA
ENDBRANCH  13  20
BRANCH  18  21
ATOM     21  O   UNL     1       6.309   3.395  12.805  0.00  0.00    +0.000 OA
ATOM     22  C   UNL     1       5.098   3.370  12.072  0.00  0.00    +0.000 C 
ENDBRANCH  18  21
ENDBRANCH   1  16
TORSDOF 3
ENDMDL
MODEL 6
REMARK VINA RESULT:      -7.2      4.053      5.431
REMARK  Name = 
REMARK  5 active torsions:
REMARK  status: ('A' for Active; 'I' for Inactive)
REMARK    1  A    between atoms: C_1  and  O_2
REMARK    2  A    between atoms: O_2  and  C_3
REMARK    3  A    between atoms: C_6  and  C_7
REMARK    4  A    between atoms: C_20  and  O_21
REMARK    5  A    between atoms: O_21  and  C_22
REMARK                            x       y       z     vdW  Elec       q    Type
REMARK                         _______ _______ _______ _____ _____    ______ ____
ROOT
ATOM      1  C   UNL     1       2.479   7.247  18.825  0.00  0.00    +0.000 A 
ATOM      2  C   UNL     1       2.159   6.880  20.082  0.00  0.00    +0.000 A 
ATOM      3  O   UNL     1       1.229   7.474  20.904  0.00  0.00    +0.000 OA
ATOM      4  C   UNL     1       0.946   8.785  20.639  0.00  0.00    +0.000 A 
ATOM      5  C   UNL     1       0.371   9.538  21.655  0.00  0.00    +0.000 A 
ATOM      6  C   UNL     1       0.287  10.914  21.493  0.00  0.00    +0.000 A 
ATOM      7  F   UNL     1      -0.197  11.662  22.491  0.00  0.00    +0.000 F 
ATOM      8  C   UNL     1       0.739  11.534  20.328  0.00  0.00    +0.000 A 
ATOM      9  C   UNL     1       1.213  10.759  19.268  0.00  0.00    +0.000 A 
ATOM     10  C   UNL     1       1.301   9.377  19.429  0.00  0.00    +0.000 A 
ATOM     11  C   UNL     1       1.823   8.507  18.361  0.00  0.00    +0.000 A 
ATOM     12  O   UNL     1       1.735   8.847  17.188  0.00  0.00    +0.000 OA
ENDROOT
BRANCH   1  16
ATOM     13  C   UNL     1       5.278   4.892  16.501  0.00  0.00    +0.000 A 
ATOM     14  C   UNL     1       5.384   6.290  16.541  0.00  0.00    +0.000 A 
ATOM     15  C   UNL     1       4.489   7.064  17.295  0.00  0.00    +0.000 A 
ATOM     16  C   UNL     1       3.440   6.470  18.006  0.00  0.00    +0.000 A 
ATOM     17  C   UNL     1       3.320   5.077  17.904  0.00  0.00    +0.000 A 
ATOM     18  C   UNL     1       4.215   4.280  17.181  0.00  0.00    +0.000 A 
BRANCH  13  20
ATOM     19  C   UNL     1       6.809   4.730  14.705  0.00  0.00    +0.000 C 
ATOM     20  O   UNL     1       6.161   4.111  15.812  0.00  0.00    +0.000 OA
ENDBRANCH  13  20
BRANCH  18  21
ATOM     21  O   UNL     1       3.910   2.954  17.298  0.00  0.00    +0.000 OA
ATOM     22  C   UNL     1       2.617   2.576  17.736  0.00  0.00    +0.000 C 
ENDBRANCH  18  21
ENDBRANCH   1  16
TORSDOF 3
ENDMDL
MODEL 7
REMARK VINA RESULT:      -7.2      4.542      6.764
REMARK  Name = 
REMARK  5 active torsions:
REMARK  status: ('A' for Active; 'I' for Inactive)
REMARK    1  A    between atoms: C_1  and  O_2
REMARK    2  A    between atoms: O_2  and  C_3
REMARK    3  A    between atoms: C_6  and  C_7
REMARK    4  A    between atoms: C_20  and  O_21
REMARK    5  A    between atoms: O_21  and  C_22
REMARK                            x       y       z     vdW  Elec       q    Type
REMARK                         _______ _______ _______ _____ _____    ______ ____
ROOT
ATOM      1  C   UNL     1       2.342   7.712  18.511  0.00  0.00    +0.000 A 
ATOM      2  C   UNL     1       2.449   8.677  17.576  0.00  0.00    +0.000 A 
ATOM      3  O   UNL     1       2.165  10.014  17.732  0.00  0.00    +0.000 OA
ATOM      4  C   UNL     1       1.278  10.325  18.725  0.00  0.00    +0.000 A 
ATOM      5  C   UNL     1       0.639  11.557  18.654  0.00  0.00    +0.000 A 
ATOM      6  C   UNL     1      -0.426  11.800  19.511  0.00  0.00    +0.000 A 
ATOM      7  F   UNL     1      -1.100  12.951  19.406  0.00  0.00    +0.000 F 
ATOM      8  C   UNL     1      -0.833  10.849  20.446  0.00  0.00    +0.000 A 
ATOM      9  C   UNL     1      -0.115   9.660  20.585  0.00  0.00    +0.000 A 
ATOM     10  C   UNL     1       0.953   9.412  19.725  0.00  0.00    +0.000 A 
ATOM     11  C   UNL     1       1.730   8.162  19.798  0.00  0.00    +0.000 A 
ATOM     12  O   UNL     1       1.814   7.548  20.854  0.00  0.00    +0.000 OA
ENDROOT
BRANCH   1  16
ATOM     13  C   UNL     1       3.489   3.597  17.789  0.00  0.00    +0.000 A 
ATOM     14  C   UNL     1       4.460   4.605  17.857  0.00  0.00    +0.000 A 
ATOM     15  C   UNL     1       4.104   5.940  18.097  0.00  0.00    +0.000 A 
ATOM     16  C   UNL     1       2.764   6.316  18.244  0.00  0.00    +0.000 A 
ATOM     17  C   UNL     1       1.807   5.299  18.114  0.00  0.00    +0.000 A 
ATOM     18  C   UNL     1       2.138   3.956  17.901  0.00  0.00    +0.000 A 
BRANCH  13  20
ATOM     19  C   UNL     1       3.951   1.499  18.781  0.00  0.00    +0.000 C 
ATOM     20  O   UNL     1       3.810   2.282  17.600  0.00  0.00    +0.000 OA
ENDBRANCH  13  20
BRANCH  18  21
ATOM     21  O   UNL     1       1.025   3.165  17.878  0.00  0.00    +0.000 OA
ATOM     22  C   UNL     1       0.572   2.570  19.081  0.00  0.00    +0.000 C 
ENDBRANCH  18  21
ENDBRANCH   1  16
TORSDOF 3
ENDMDL
MODEL 8
REMARK VINA RESULT:      -7.2      4.312      7.102
REMARK  Name = 
REMARK  5 active torsions:
REMARK  status: ('A' for Active; 'I' for Inactive)
REMARK    1  A    between atoms: C_1  and  O_2
REMARK    2  A    between atoms: O_2  and  C_3
REMARK    3  A    between atoms: C_6  and  C_7
REMARK    4  A    between atoms: C_20  and  O_21
REMARK    5  A    between atoms: O_21  and  C_22
REMARK                            x       y       z     vdW  Elec       q    Type
REMARK                         _______ _______ _______ _____ _____    ______ ____
ROOT
ATOM      1  C   UNL     1       2.267   6.898  19.711  0.00  0.00    +0.000 A 
ATOM      2  C   UNL     1       1.953   5.992  20.659  0.00  0.00    +0.000 A 
ATOM      3  O   UNL     1       2.497   4.738  20.816  0.00  0.00    +0.000 OA
ATOM      4  C   UNL     1       3.035   4.175  19.692  0.00  0.00    +0.000 A 
ATOM      5  C   UNL     1       3.199   2.795  19.678  0.00  0.00    +0.000 A 
ATOM      6  C   UNL     1       3.523   2.179  18.478  0.00  0.00    +0.000 A 
ATOM      7  F   UNL     1       3.613   0.845  18.430  0.00  0.00    +0.000 F 
ATOM      8  C   UNL     1       3.713   2.921  17.311  0.00  0.00    +0.000 A 
ATOM      9  C   UNL     1       3.655   4.315  17.359  0.00  0.00    +0.000 A 
ATOM     10  C   UNL     1       3.327   4.937  18.563  0.00  0.00    +0.000 A 
ATOM     11  C   UNL     1       3.217   6.402  18.670  0.00  0.00    +0.000 A 
ATOM     12  O   UNL     1       3.854   7.126  17.916  0.00  0.00    +0.000 OA
ENDROOT
BRANCH   1  16
ATOM     13  C   UNL     1       0.464  10.838  19.769  0.00  0.00    +0.000 A 
ATOM     14  C   UNL     1       0.857  10.252  18.557  0.00  0.00    +0.000 A 
ATOM     15  C   UNL     1       1.435   8.974  18.524  0.00  0.00    +0.000 A 
ATOM     16  C   UNL     1       1.669   8.255  19.701  0.00  0.00    +0.000 A 
ATOM     17  C   UNL     1       1.322   8.886  20.903  0.00  0.00    +0.000 A 
ATOM     18  C   UNL     1       0.720  10.148  20.963  0.00  0.00    +0.000 A 
BRANCH  13  20
ATOM     19  C   UNL     1      -1.556  12.066  19.661  0.00  0.00    +0.000 C 
ATOM     20  O   UNL     1      -0.141  12.061  19.828  0.00  0.00    +0.000 OA
ENDBRANCH  13  20
BRANCH  18  21
ATOM     21  O   UNL     1       0.426  10.501  22.249  0.00  0.00    +0.000 OA
ATOM     22  C   UNL     1      -0.112   9.531  23.129  0.00  0.00    +0.000 C 
ENDBRANCH  18  21
ENDBRANCH   1  16
TORSDOF 3
ENDMDL
MODEL 9
REMARK VINA RESULT:      -7.1      4.644      6.715
REMARK  Name = 
REMARK  5 active torsions:
REMARK  status: ('A' for Active; 'I' for Inactive)
REMARK    1  A    between atoms: C_1  and  O_2
REMARK    2  A    between atoms: O_2  and  C_3
REMARK    3  A    between atoms: C_6  and  C_7
REMARK    4  A    between atoms: C_20  and  O_21
REMARK    5  A    between atoms: O_21  and  C_22
REMARK                            x       y       z     vdW  Elec       q    Type
REMARK                         _______ _______ _______ _____ _____    ______ ____
ROOT
ATOM      1  C   UNL     1       2.217   7.532  19.359  0.00  0.00    +0.000 A 
ATOM      2  C   UNL     1       2.400   8.217  18.213  0.00  0.00    +0.000 A 
ATOM      3  O   UNL     1       2.122   9.547  17.992  0.00  0.00    +0.000 OA
ATOM      4  C   UNL     1       1.173  10.103  18.804  0.00  0.00    +0.000 A 
ATOM      5  C   UNL     1       0.556  11.268  18.368  0.00  0.00    +0.000 A 
ATOM      6  C   UNL     1      -0.562  11.721  19.054  0.00  0.00    +0.000 A 
ATOM      7  F   UNL     1      -1.213  12.801  18.605  0.00  0.00    +0.000 F 
ATOM      8  C   UNL     1      -1.045  11.048  20.177  0.00  0.00    +0.000 A 
ATOM      9  C   UNL     1      -0.353   9.942  20.673  0.00  0.00    +0.000 A 
ATOM     10  C   UNL     1       0.769   9.482  19.984  0.00  0.00    +0.000 A 
ATOM     11  C   UNL     1       1.523   8.300  20.437  0.00  0.00    +0.000 A 
ATOM     12  O   UNL     1       1.527   7.987  21.620  0.00  0.00    +0.000 OA
ENDROOT
BRANCH   1  16
ATOM     13  C   UNL     1       3.521   3.413  19.687  0.00  0.00    +0.000 A 
ATOM     14  C   UNL     1       2.204   3.771  20.010  0.00  0.00    +0.000 A 
ATOM     15  C   UNL     1       1.767   5.099  19.902  0.00  0.00    +0.000 A 
ATOM     16  C   UNL     1       2.639   6.117  19.499  0.00  0.00    +0.000 A 
ATOM     17  C   UNL     1       3.964   5.744  19.237  0.00  0.00    +0.000 A 
ATOM     18  C   UNL     1       4.419   4.422  19.312  0.00  0.00    +0.000 A 
BRANCH  13  20
ATOM     19  C   UNL     1       3.652   1.309  18.611  0.00  0.00    +0.000 C 
ATOM     20  O   UNL     1       3.962   2.120  19.740  0.00  0.00    +0.000 OA
ENDBRANCH  13  20
BRANCH  18  21
ATOM     21  O   UNL     1       5.731   4.324  18.946  0.00  0.00    +0.000 OA
ATOM     22  C   UNL     1       6.615   5.390  19.242  0.00  0.00    +0.000 C 
ENDBRANCH  18  21
ENDBRANCH   1  16
TORSDOF 3
ENDMDL
