MODEL 1
REMARK VINA RESULT:      -8.3      0.000      0.000
REMARK  Name = 
REMARK  6 active torsions:
REMARK  status: ('A' for Active; 'I' for Inactive)
REMARK    1  A    between atoms: C_2  and  C_4
REMARK    2  A    between atoms: C_7  and  N_8
REMARK    3  A    between atoms: C_11  and  C_12
REMARK    4  A    between atoms: C_12  and  N_13
REMARK    5  A    between atoms: C_14  and  C_16
REMARK    6  A    between atoms: C_19  and  C_20
REMARK                            x       y       z     vdW  Elec       q    Type
REMARK                         _______ _______ _______ _____ _____    ______ ____
ROOT
ATOM      1  N   UNL     1       3.978   3.390  17.710  0.00  0.00    +0.000 N 
ATOM      2  C   UNL     1       4.424   2.489  18.786  0.00  0.00    +0.000 C 
ATOM      3  C   UNL     1       3.305   1.460  18.927  0.00  0.00    +0.000 C 
ATOM      4  C   UNL     1       2.046   2.221  18.524  0.00  0.00    +0.000 C 
ATOM      5  C   UNL     1       2.560   3.119  17.388  0.00  0.00    +0.000 C 
ENDROOT
BRANCH   1   9
ATOM      6  C   UNL     1       6.621   4.781  14.703  0.00  0.00    +0.000 A 
ATOM      7  C   UNL     1       5.717   3.749  14.439  0.00  0.00    +0.000 A 
ATOM      8  C   UNL     1       4.828   3.316  15.423  0.00  0.00    +0.000 A 
ATOM      9  C   UNL     1       4.842   3.863  16.717  0.00  0.00    +0.000 A 
ATOM     10  C   UNL     1       5.802   4.900  16.961  0.00  0.00    +0.000 A 
ATOM     11  C   UNL     1       6.036   5.471  18.213  0.00  0.00    +0.000 A 
ATOM     12  N   UNL     1       6.894   6.472  18.487  0.00  0.00    +0.000 NA
ATOM     13  C   UNL     1       7.598   6.903  17.449  0.00  0.00    +0.000 A 
ATOM     14  N   UNL     1       7.532   6.411  16.205  0.00  0.00    +0.000 NA
ATOM     15  C   UNL     1       6.665   5.399  15.960  0.00  0.00    +0.000 A 
BRANCH   6  17
ATOM     16  N   UNL     1       8.650   5.896  13.906  0.00  0.00    +0.000 N 
ATOM     17  C   UNL     1       7.560   5.134  13.600  0.00  0.00    +0.000 C 
ATOM     18  O   UNL     1       7.361   4.761  12.449  0.00  0.00    +0.000 OA
ATOM     19  H   UNL     1       9.362   5.995  13.197  0.00  0.00    +0.000 HD
ATOM     20  H   UNL     1       8.923   5.997  14.880  0.00  0.00    +0.000 HD
ENDBRANCH   6  17
ENDBRANCH   1   9
BRANCH   4  21
ATOM     21  C   UNL     1       1.462   3.012  19.704  0.00  0.00    +0.000 C 
BRANCH  21  22
ATOM     22  N   UNL     1       1.377   4.437  19.443  0.00  0.00    +0.000 N 
ATOM     23  C   UNL     1       1.992   5.382  20.237  0.00  0.00    +0.000 C 
ATOM     24  O   UNL     1       2.636   5.088  21.239  0.00  0.00    +0.000 OA
ATOM     25  H   UNL     1       0.865   4.740  18.621  0.00  0.00    +0.000 HD
BRANCH  23  26
ATOM     26  C   UNL     1       1.855   6.813  19.834  0.00  0.00    +0.000 A 
ATOM     27  C   UNL     1       1.275   7.711  20.743  0.00  0.00    +0.000 A 
ATOM     28  C   UNL     1       1.129   9.065  20.417  0.00  0.00    +0.000 A 
ATOM     29  C   UNL     1       1.562   9.551  19.174  0.00  0.00    +0.000 A 
ATOM     30  C   UNL     1       2.136   8.651  18.265  0.00  0.00    +0.000 A 
ATOM     31  C   UNL     1       2.276   7.302  18.597  0.00  0.00    +0.000 A 
ATOM     32  F   UNL     1       2.837   6.491  17.685  0.00  0.00    +0.000 F 
BRANCH  29  33
ATOM     33  C   UNL     1       1.424  11.009  18.806  0.00  0.00    +0.000 C 
ATOM     34  F   UNL     1       0.214  11.325  18.270  0.00  0.00    +0.000 F 
ATOM     35  F   UNL     1       1.582  11.829  19.882  0.00  0.00    +0.000 F 
ATOM     36  F   UNL     1       2.354  11.404  17.894  0.00  0.00    +0.000 F 
ENDBRANCH  29  33
ENDBRANCH  23  26
ENDBRANCH  21  22
ENDBRANCH   4  21
TORSDOF 6
ENDMDL
MODEL 2
REMARK VINA RESULT:      -8.2      0.978      1.286
REMARK  Name = 
REMARK  6 active torsions:
REMARK  status: ('A' for Active; 'I' for Inactive)
REMARK    1  A    between atoms: C_2  and  C_4
REMARK    2  A    between atoms: C_7  and  N_8
REMARK    3  A    between atoms: C_11  and  C_12
REMARK    4  A    between atoms: C_12  and  N_13
REMARK    5  A    between atoms: C_14  and  C_16
REMARK    6  A    between atoms: C_19  and  C_20
REMARK                            x       y       z     vdW  Elec       q    Type
REMARK                         _______ _______ _______ _____ _____    ______ ____
ROOT
ATOM      1  N   UNL     1       3.852   3.604  17.632  0.00  0.00    +0.000 N 
ATOM      2  C   UNL     1       4.118   2.460  18.519  0.00  0.00    +0.000 C 
ATOM      3  C   UNL     1       2.776   1.744  18.653  0.00  0.00    +0.000 C 
ATOM      4  C   UNL     1       1.744   2.857  18.506  0.00  0.00    +0.000 C 
ATOM      5  C   UNL     1       2.392   3.762  17.446  0.00  0.00    +0.000 C 
ENDROOT
BRANCH   1   9
ATOM      6  C   UNL     1       6.538   4.732  14.555  0.00  0.00    +0.000 A 
ATOM      7  C   UNL     1       5.569   3.752  14.333  0.00  0.00    +0.000 A 
ATOM      8  C   UNL     1       4.667   3.406  15.339  0.00  0.00    +0.000 A 
ATOM      9  C   UNL     1       4.731   3.990  16.615  0.00  0.00    +0.000 A 
ATOM     10  C   UNL     1       5.757   4.972  16.816  0.00  0.00    +0.000 A 
ATOM     11  C   UNL     1       6.041   5.566  18.047  0.00  0.00    +0.000 A 
ATOM     12  N   UNL     1       6.963   6.519  18.281  0.00  0.00    +0.000 NA
ATOM     13  C   UNL     1       7.680   6.873  17.222  0.00  0.00    +0.000 A 
ATOM     14  N   UNL     1       7.568   6.348  15.995  0.00  0.00    +0.000 NA
ATOM     15  C   UNL     1       6.637   5.385  15.791  0.00  0.00    +0.000 A 
BRANCH   6  17
ATOM     16  N   UNL     1       8.567   5.785  13.676  0.00  0.00    +0.000 N 
ATOM     17  C   UNL     1       7.484   4.992  13.431  0.00  0.00    +0.000 C 
ATOM     18  O   UNL     1       7.296   4.516  12.317  0.00  0.00    +0.000 OA
ATOM     19  H   UNL     1       9.284   5.824  12.967  0.00  0.00    +0.000 HD
ATOM     20  H   UNL     1       8.832   5.974  14.639  0.00  0.00    +0.000 HD
ENDBRANCH   6  17
ENDBRANCH   1   9
BRANCH   4  21
ATOM     21  C   UNL     1       1.491   3.573  19.841  0.00  0.00    +0.000 C 
BRANCH  21  22
ATOM     22  N   UNL     1       1.283   5.001  19.686  0.00  0.00    +0.000 N 
ATOM     23  C   UNL     1       2.284   5.929  19.884  0.00  0.00    +0.000 C 
ATOM     24  O   UNL     1       3.417   5.617  20.232  0.00  0.00    +0.000 OA
ATOM     25  H   UNL     1       0.367   5.319  19.389  0.00  0.00    +0.000 HD
BRANCH  23  26
ATOM     26  C   UNL     1       1.944   7.365  19.655  0.00  0.00    +0.000 A 
ATOM     27  C   UNL     1       2.176   7.913  18.384  0.00  0.00    +0.000 A 
ATOM     28  C   UNL     1       1.868   9.252  18.115  0.00  0.00    +0.000 A 
ATOM     29  C   UNL     1       1.320  10.073  19.112  0.00  0.00    +0.000 A 
ATOM     30  C   UNL     1       1.094   9.526  20.383  0.00  0.00    +0.000 A 
ATOM     31  C   UNL     1       1.404   8.190  20.643  0.00  0.00    +0.000 A 
ATOM     32  F   UNL     1       1.161   7.723  21.879  0.00  0.00    +0.000 F 
BRANCH  29  33
ATOM     33  C   UNL     1       0.971  11.517  18.840  0.00  0.00    +0.000 C 
ATOM     34  F   UNL     1      -0.216  11.679  18.194  0.00  0.00    +0.000 F 
ATOM     35  F   UNL     1       0.876  12.249  19.986  0.00  0.00    +0.000 F 
ATOM     36  F   UNL     1       1.905  12.142  18.073  0.00  0.00    +0.000 F 
ENDBRANCH  29  33
ENDBRANCH  23  26
ENDBRANCH  21  22
ENDBRANCH   4  21
TORSDOF 6
ENDMDL
MODEL 3
REMARK VINA RESULT:      -8.1      3.523      7.124
REMARK  Name = 
REMARK  6 active torsions:
REMARK  status: ('A' for Active; 'I' for Inactive)
REMARK    1  A    between atoms: C_2  and  C_4
REMARK    2  A    between atoms: C_7  and  N_8
REMARK    3  A    between atoms: C_11  and  C_12
REMARK    4  A    between atoms: C_12  and  N_13
REMARK    5  A    between atoms: C_14  and  C_16
REMARK    6  A    between atoms: C_19  and  C_20
REMARK                            x       y       z     vdW  Elec       q    Type
REMARK                         _______ _______ _______ _____ _____    ______ ____
ROOT
ATOM      1  N   UNL     1       2.509   5.719  19.383  0.00  0.00    +0.000 N 
ATOM      2  C   UNL     1       2.046   5.113  18.124  0.00  0.00    +0.000 C 
ATOM      3  C   UNL     1       2.042   3.610  18.389  0.00  0.00    +0.000 C 
ATOM      4  C   UNL     1       3.156   3.408  19.410  0.00  0.00    +0.000 C 
ATOM      5  C   UNL     1       3.027   4.665  20.284  0.00  0.00    +0.000 C 
ENDROOT
BRANCH   1   9
ATOM      6  C   UNL     1       0.717   9.201  21.003  0.00  0.00    +0.000 A 
ATOM      7  C   UNL     1       0.682   7.990  21.698  0.00  0.00    +0.000 A 
ATOM      8  C   UNL     1       1.299   6.854  21.174  0.00  0.00    +0.000 A 
ATOM      9  C   UNL     1       1.932   6.875  19.921  0.00  0.00    +0.000 A 
ATOM     10  C   UNL     1       1.925   8.128  19.222  0.00  0.00    +0.000 A 
ATOM     11  C   UNL     1       2.400   8.301  17.921  0.00  0.00    +0.000 A 
ATOM     12  N   UNL     1       2.453   9.460  17.238  0.00  0.00    +0.000 NA
ATOM     13  C   UNL     1       1.958  10.510  17.881  0.00  0.00    +0.000 A 
ATOM     14  N   UNL     1       1.411  10.487  19.103  0.00  0.00    +0.000 NA
ATOM     15  C   UNL     1       1.363   9.305  19.764  0.00  0.00    +0.000 A 
BRANCH   6  17
ATOM     16  N   UNL     1      -0.870  11.059  20.840  0.00  0.00    +0.000 N 
ATOM     17  C   UNL     1      -0.016  10.341  21.626  0.00  0.00    +0.000 C 
ATOM     18  O   UNL     1       0.145  10.634  22.805  0.00  0.00    +0.000 OA
ATOM     19  H   UNL     1      -1.481  11.719  21.299  0.00  0.00    +0.000 HD
ATOM     20  H   UNL     1      -1.165  10.669  19.949  0.00  0.00    +0.000 HD
ENDBRANCH   6  17
ENDBRANCH   1   9
BRANCH   4  21
ATOM     21  C   UNL     1       4.528   3.280  18.731  0.00  0.00    +0.000 C 
BRANCH  21  22
ATOM     22  N   UNL     1       5.296   4.512  18.771  0.00  0.00    +0.000 N 
ATOM     23  C   UNL     1       6.140   4.902  17.753  0.00  0.00    +0.000 C 
ATOM     24  O   UNL     1       6.324   4.222  16.749  0.00  0.00    +0.000 OA
ATOM     25  H   UNL     1       5.176   5.120  19.574  0.00  0.00    +0.000 HD
BRANCH  23  26
ATOM     26  C   UNL     1       6.842   6.210  17.906  0.00  0.00    +0.000 A 
ATOM     27  C   UNL     1       6.406   7.297  17.133  0.00  0.00    +0.000 A 
ATOM     28  C   UNL     1       7.026   8.549  17.243  0.00  0.00    +0.000 A 
ATOM     29  C   UNL     1       8.095   8.740  18.131  0.00  0.00    +0.000 A 
ATOM     30  C   UNL     1       8.533   7.651  18.899  0.00  0.00    +0.000 A 
ATOM     31  C   UNL     1       7.910   6.407  18.782  0.00  0.00    +0.000 A 
ATOM     32  F   UNL     1       8.373   5.404  19.546  0.00  0.00    +0.000 F 
BRANCH  29  33
ATOM     33  C   UNL     1       8.771  10.083  18.274  0.00  0.00    +0.000 C 
ATOM     34  F   UNL     1       9.946  10.177  17.595  0.00  0.00    +0.000 F 
ATOM     35  F   UNL     1       7.991  11.103  17.818  0.00  0.00    +0.000 F 
ATOM     36  F   UNL     1       9.060  10.383  19.569  0.00  0.00    +0.000 F 
ENDBRANCH  29  33
ENDBRANCH  23  26
ENDBRANCH  21  22
ENDBRANCH   4  21
TORSDOF 6
ENDMDL
MODEL 4
REMARK VINA RESULT:      -8.0      4.531      6.565
REMARK  Name = 
REMARK  6 active torsions:
REMARK  status: ('A' for Active; 'I' for Inactive)
REMARK    1  A    between atoms: C_2  and  C_4
REMARK    2  A    between atoms: C_7  and  N_8
REMARK    3  A    between atoms: C_11  and  C_12
REMARK    4  A    between atoms: C_12  and  N_13
REMARK    5  A    between atoms: C_14  and  C_16
REMARK    6  A    between atoms: C_19  and  C_20
REMARK                            x       y       z     vdW  Elec       q    Type
REMARK                         _______ _______ _______ _____ _____    ______ ____
ROOT
ATOM      1  N   UNL     1       1.909   7.887  18.713  0.00  0.00    +0.000 N 
ATOM      2  C   UNL     1       1.276   9.014  18.009  0.00  0.00    +0.000 C 
ATOM      3  C   UNL     1       1.318  10.172  19.002  0.00  0.00    +0.000 C 
ATOM      4  C   UNL     1       1.248   9.495  20.367  0.00  0.00    +0.000 C 
ATOM      5  C   UNL     1       2.083   8.225  20.143  0.00  0.00    +0.000 C 
ENDROOT
BRANCH   1   9
ATOM      6  C   UNL     1       4.613   5.262  16.774  0.00  0.00    +0.000 A 
ATOM      7  C   UNL     1       4.807   6.645  16.735  0.00  0.00    +0.000 A 
ATOM      8  C   UNL     1       3.932   7.502  17.401  0.00  0.00    +0.000 A 
ATOM      9  C   UNL     1       2.807   7.015  18.087  0.00  0.00    +0.000 A 
ATOM     10  C   UNL     1       2.623   5.593  18.082  0.00  0.00    +0.000 A 
ATOM     11  C   UNL     1       1.503   4.947  18.609  0.00  0.00    +0.000 A 
ATOM     12  N   UNL     1       1.301   3.617  18.666  0.00  0.00    +0.000 NA
ATOM     13  C   UNL     1       2.262   2.883  18.120  0.00  0.00    +0.000 A 
ATOM     14  N   UNL     1       3.360   3.360  17.520  0.00  0.00    +0.000 NA
ATOM     15  C   UNL     1       3.534   4.703  17.471  0.00  0.00    +0.000 A 
BRANCH   6  17
ATOM     16  N   UNL     1       6.637   3.890  16.650  0.00  0.00    +0.000 N 
ATOM     17  C   UNL     1       5.577   4.438  15.989  0.00  0.00    +0.000 C 
ATOM     18  O   UNL     1       5.430   4.261  14.785  0.00  0.00    +0.000 OA
ATOM     19  H   UNL     1       7.190   3.205  16.154  0.00  0.00    +0.000 HD
ATOM     20  H   UNL     1       6.617   3.849  17.665  0.00  0.00    +0.000 HD
ENDBRANCH   6  17
ENDBRANCH   1   9
BRANCH   4  21
ATOM     21  C   UNL     1      -0.203   9.201  20.777  0.00  0.00    +0.000 C 
BRANCH  21  22
ATOM     22  N   UNL     1      -0.894  10.372  21.289  0.00  0.00    +0.000 N 
ATOM     23  C   UNL     1      -0.795  10.785  22.600  0.00  0.00    +0.000 C 
ATOM     24  O   UNL     1      -0.136  10.179  23.438  0.00  0.00    +0.000 OA
ATOM     25  H   UNL     1      -1.447  10.919  20.638  0.00  0.00    +0.000 HD
BRANCH  23  26
ATOM     26  C   UNL     1      -1.528  12.027  22.986  0.00  0.00    +0.000 A 
ATOM     27  C   UNL     1      -2.804  11.900  23.557  0.00  0.00    +0.000 A 
ATOM     28  C   UNL     1      -3.531  13.033  23.943  0.00  0.00    +0.000 A 
ATOM     29  C   UNL     1      -2.998  14.319  23.767  0.00  0.00    +0.000 A 
ATOM     30  C   UNL     1      -1.725  14.444  23.191  0.00  0.00    +0.000 A 
ATOM     31  C   UNL     1      -1.007  13.309  22.808  0.00  0.00    +0.000 A 
ATOM     32  F   UNL     1       0.208  13.494  22.266  0.00  0.00    +0.000 F 
BRANCH  29  33
ATOM     33  C   UNL     1      -3.760  15.553  24.186  0.00  0.00    +0.000 C 
ATOM     34  F   UNL     1      -3.533  16.631  23.386  0.00  0.00    +0.000 F 
ATOM     35  F   UNL     1      -5.107  15.355  24.175  0.00  0.00    +0.000 F 
ATOM     36  F   UNL     1      -3.450  15.951  25.450  0.00  0.00    +0.000 F 
ENDBRANCH  29  33
ENDBRANCH  23  26
ENDBRANCH  21  22
ENDBRANCH   4  21
TORSDOF 6
ENDMDL
MODEL 5
REMARK VINA RESULT:      -7.9      5.727     10.705
REMARK  Name = 
REMARK  6 active torsions:
REMARK  status: ('A' for Active; 'I' for Inactive)
REMARK    1  A    between atoms: C_2  and  C_4
REMARK    2  A    between atoms: C_7  and  N_8
REMARK    3  A    between atoms: C_11  and  C_12
REMARK    4  A    between atoms: C_12  and  N_13
REMARK    5  A    between atoms: C_14  and  C_16
REMARK    6  A    between atoms: C_19  and  C_20
REMARK                            x       y       z     vdW  Elec       q    Type
REMARK                         _______ _______ _______ _____ _____    ______ ____
ROOT
ATOM      1  N   UNL     1      -1.106  11.275  19.565  0.00  0.00    +0.000 N 
ATOM      2  C   UNL     1      -0.533  10.253  20.457  0.00  0.00    +0.000 C 
ATOM      3  C   UNL     1       0.958  10.577  20.520  0.00  0.00    +0.000 C 
ATOM      4  C   UNL     1       1.260  11.206  19.165  0.00  0.00    +0.000 C 
ATOM      5  C   UNL     1      -0.017  12.016  18.891  0.00  0.00    +0.000 C 
ENDROOT
BRANCH   1   9
ATOM      6  C   UNL     1      -4.805  13.165  20.399  0.00  0.00    +0.000 A 
ATOM      7  C   UNL     1      -3.767  13.183  21.333  0.00  0.00    +0.000 A 
ATOM      8  C   UNL     1      -2.541  12.586  21.041  0.00  0.00    +0.000 A 
ATOM      9  C   UNL     1      -2.323  11.910  19.829  0.00  0.00    +0.000 A 
ATOM     10  C   UNL     1      -3.421  11.887  18.906  0.00  0.00    +0.000 A 
ATOM     11  C   UNL     1      -3.422  11.165  17.711  0.00  0.00    +0.000 A 
ATOM     12  N   UNL     1      -4.407  11.142  16.793  0.00  0.00    +0.000 NA
ATOM     13  C   UNL     1      -5.482  11.854  17.109  0.00  0.00    +0.000 A 
ATOM     14  N   UNL     1      -5.651  12.543  18.244  0.00  0.00    +0.000 NA
ATOM     15  C   UNL     1      -4.647  12.542  19.154  0.00  0.00    +0.000 A 
BRANCH   6  17
ATOM     16  N   UNL     1      -6.553  14.857  20.118  0.00  0.00    +0.000 N 
ATOM     17  C   UNL     1      -6.091  13.788  20.829  0.00  0.00    +0.000 C 
ATOM     18  O   UNL     1      -6.714  13.361  21.794  0.00  0.00    +0.000 OA
ATOM     19  H   UNL     1      -7.494  15.170  20.308  0.00  0.00    +0.000 HD
ATOM     20  H   UNL     1      -6.158  15.047  19.201  0.00  0.00    +0.000 HD
ENDBRANCH   6  17
ENDBRANCH   1   9
BRANCH   4  21
ATOM     21  C   UNL     1       1.541  10.139  18.097  0.00  0.00    +0.000 C 
BRANCH  21  22
ATOM     22  N   UNL     1       1.541   8.789  18.632  0.00  0.00    +0.000 N 
ATOM     23  C   UNL     1       2.528   7.870  18.347  0.00  0.00    +0.000 C 
ATOM     24  O   UNL     1       3.467   8.118  17.598  0.00  0.00    +0.000 OA
ATOM     25  H   UNL     1       0.792   8.530  19.266  0.00  0.00    +0.000 HD
BRANCH  23  26
ATOM     26  C   UNL     1       2.425   6.528  18.993  0.00  0.00    +0.000 A 
ATOM     27  C   UNL     1       1.862   6.446  20.276  0.00  0.00    +0.000 A 
ATOM     28  C   UNL     1       1.735   5.210  20.924  0.00  0.00    +0.000 A 
ATOM     29  C   UNL     1       2.168   4.030  20.301  0.00  0.00    +0.000 A 
ATOM     30  C   UNL     1       2.736   4.115  19.021  0.00  0.00    +0.000 A 
ATOM     31  C   UNL     1       2.859   5.351  18.383  0.00  0.00    +0.000 A 
ATOM     32  F   UNL     1       3.408   5.367  17.157  0.00  0.00    +0.000 F 
BRANCH  29  33
ATOM     33  C   UNL     1       2.032   2.686  20.976  0.00  0.00    +0.000 C 
ATOM     34  F   UNL     1       1.034   2.639  21.901  0.00  0.00    +0.000 F 
ATOM     35  F   UNL     1       1.766   1.688  20.088  0.00  0.00    +0.000 F 
ATOM     36  F   UNL     1       3.167   2.315  21.628  0.00  0.00    +0.000 F 
ENDBRANCH  29  33
ENDBRANCH  23  26
ENDBRANCH  21  22
ENDBRANCH   4  21
TORSDOF 6
ENDMDL
MODEL 6
REMARK VINA RESULT:      -7.9      5.093      7.322
REMARK  Name = 
REMARK  6 active torsions:
REMARK  status: ('A' for Active; 'I' for Inactive)
REMARK    1  A    between atoms: C_2  and  C_4
REMARK    2  A    between atoms: C_7  and  N_8
REMARK    3  A    between atoms: C_11  and  C_12
REMARK    4  A    between atoms: C_12  and  N_13
REMARK    5  A    between atoms: C_14  and  C_16
REMARK    6  A    between atoms: C_19  and  C_20
REMARK                            x       y       z     vdW  Elec       q    Type
REMARK                         _______ _______ _______ _____ _____    ______ ____
ROOT
ATOM      1  N   UNL     1       1.612   8.459  19.068  0.00  0.00    +0.000 N 
ATOM      2  C   UNL     1       1.026   9.382  18.082  0.00  0.00    +0.000 C 
ATOM      3  C   UNL     1       1.038  10.747  18.765  0.00  0.00    +0.000 C 
ATOM      4  C   UNL     1       0.895  10.423  20.248  0.00  0.00    +0.000 C 
ATOM      5  C   UNL     1       1.724   9.135  20.379  0.00  0.00    +0.000 C 
ENDROOT
BRANCH   1   9
ATOM      6  C   UNL     1       4.357   5.425  17.964  0.00  0.00    +0.000 A 
ATOM      7  C   UNL     1       4.324   6.643  17.280  0.00  0.00    +0.000 A 
ATOM      8  C   UNL     1       3.440   7.650  17.668  0.00  0.00    +0.000 A 
ATOM      9  C   UNL     1       2.526   7.460  18.717  0.00  0.00    +0.000 A 
ATOM     10  C   UNL     1       2.568   6.188  19.377  0.00  0.00    +0.000 A 
ATOM     11  C   UNL     1       1.659   5.784  20.357  0.00  0.00    +0.000 A 
ATOM     12  N   UNL     1       1.678   4.621  21.034  0.00  0.00    +0.000 NA
ATOM     13  C   UNL     1       2.645   3.784  20.680  0.00  0.00    +0.000 A 
ATOM     14  N   UNL     1       3.548   4.004  19.715  0.00  0.00    +0.000 NA
ATOM     15  C   UNL     1       3.500   5.180  19.045  0.00  0.00    +0.000 A 
BRANCH   6  17
ATOM     16  N   UNL     1       6.388   4.078  18.202  0.00  0.00    +0.000 N 
ATOM     17  C   UNL     1       5.303   4.399  17.439  0.00  0.00    +0.000 C 
ATOM     18  O   UNL     1       5.122   3.862  16.351  0.00  0.00    +0.000 OA
ATOM     19  H   UNL     1       6.931   3.274  17.923  0.00  0.00    +0.000 HD
ATOM     20  H   UNL     1       6.399   4.350  19.182  0.00  0.00    +0.000 HD
ENDBRANCH   6  17
ENDBRANCH   1   9
BRANCH   4  21
ATOM     21  C   UNL     1      -0.576  10.240  20.647  0.00  0.00    +0.000 C 
BRANCH  21  22
ATOM     22  N   UNL     1      -1.130  11.404  21.313  0.00  0.00    +0.000 N 
ATOM     23  C   UNL     1      -1.174  11.532  22.686  0.00  0.00    +0.000 C 
ATOM     24  O   UNL     1      -0.770  10.657  23.445  0.00  0.00    +0.000 OA
ATOM     25  H   UNL     1      -1.471  12.165  20.736  0.00  0.00    +0.000 HD
BRANCH  23  26
ATOM     26  C   UNL     1      -1.737  12.798  23.241  0.00  0.00    +0.000 A 
ATOM     27  C   UNL     1      -0.985  13.976  23.113  0.00  0.00    +0.000 A 
ATOM     28  C   UNL     1      -1.471  15.192  23.610  0.00  0.00    +0.000 A 
ATOM     29  C   UNL     1      -2.721  15.256  24.244  0.00  0.00    +0.000 A 
ATOM     30  C   UNL     1      -3.468  14.077  24.375  0.00  0.00    +0.000 A 
ATOM     31  C   UNL     1      -2.976  12.869  23.879  0.00  0.00    +0.000 A 
ATOM     32  F   UNL     1      -3.740  11.774  24.031  0.00  0.00    +0.000 F 
BRANCH  29  33
ATOM     33  C   UNL     1      -3.269  16.558  24.778  0.00  0.00    +0.000 C 
ATOM     34  F   UNL     1      -2.516  17.100  25.774  0.00  0.00    +0.000 F 
ATOM     35  F   UNL     1      -3.356  17.515  23.812  0.00  0.00    +0.000 F 
ATOM     36  F   UNL     1      -4.524  16.424  25.286  0.00  0.00    +0.000 F 
ENDBRANCH  29  33
ENDBRANCH  23  26
ENDBRANCH  21  22
ENDBRANCH   4  21
TORSDOF 6
ENDMDL
MODEL 7
REMARK VINA RESULT:      -7.7      5.866     10.929
REMARK  Name = 
REMARK  6 active torsions:
REMARK  status: ('A' for Active; 'I' for Inactive)
REMARK    1  A    between atoms: C_2  and  C_4
REMARK    2  A    between atoms: C_7  and  N_8
REMARK    3  A    between atoms: C_11  and  C_12
REMARK    4  A    between atoms: C_12  and  N_13
REMARK    5  A    between atoms: C_14  and  C_16
REMARK    6  A    between atoms: C_19  and  C_20
REMARK                            x       y       z     vdW  Elec       q    Type
REMARK                         _______ _______ _______ _____ _____    ______ ____
ROOT
ATOM      1  N   UNL     1      -1.229  11.551  19.861  0.00  0.00    +0.000 N 
ATOM      2  C   UNL     1      -0.640  10.526  20.738  0.00  0.00    +0.000 C 
ATOM      3  C   UNL     1       0.832  10.912  20.860  0.00  0.00    +0.000 C 
ATOM      4  C   UNL     1       1.148  11.599  19.536  0.00  0.00    +0.000 C 
ATOM      5  C   UNL     1      -0.154  12.361  19.247  0.00  0.00    +0.000 C 
ENDROOT
BRANCH   1   9
ATOM      6  C   UNL     1      -5.034  13.249  20.635  0.00  0.00    +0.000 A 
ATOM      7  C   UNL     1      -4.031  13.271  21.606  0.00  0.00    +0.000 A 
ATOM      8  C   UNL     1      -2.771  12.738  21.336  0.00  0.00    +0.000 A 
ATOM      9  C   UNL     1      -2.482  12.123  20.106  0.00  0.00    +0.000 A 
ATOM     10  C   UNL     1      -3.544  12.093  19.143  0.00  0.00    +0.000 A 
ATOM     11  C   UNL     1      -3.473  11.422  17.921  0.00  0.00    +0.000 A 
ATOM     12  N   UNL     1      -4.424  11.397  16.967  0.00  0.00    +0.000 NA
ATOM     13  C   UNL     1      -5.538  12.050  17.272  0.00  0.00    +0.000 A 
ATOM     14  N   UNL     1      -5.777  12.683  18.427  0.00  0.00    +0.000 NA
ATOM     15  C   UNL     1      -4.806  12.686  19.372  0.00  0.00    +0.000 A 
BRANCH   6  17
ATOM     16  N   UNL     1      -6.946  14.724  20.228  0.00  0.00    +0.000 N 
ATOM     17  C   UNL     1      -6.359  13.799  21.042  0.00  0.00    +0.000 C 
ATOM     18  O   UNL     1      -6.907  13.441  22.079  0.00  0.00    +0.000 OA
ATOM     19  H   UNL     1      -7.907  14.969  20.420  0.00  0.00    +0.000 HD
ATOM     20  H   UNL     1      -6.602  14.833  19.278  0.00  0.00    +0.000 HD
ENDBRANCH   6  17
ENDBRANCH   1   9
BRANCH   4  21
ATOM     21  C   UNL     1       1.510  10.581  18.444  0.00  0.00    +0.000 C 
BRANCH  21  22
ATOM     22  N   UNL     1       1.509   9.212  18.925  0.00  0.00    +0.000 N 
ATOM     23  C   UNL     1       2.178   8.192  18.282  0.00  0.00    +0.000 C 
ATOM     24  O   UNL     1       2.803   8.363  17.241  0.00  0.00    +0.000 OA
ATOM     25  H   UNL     1       1.016   9.012  19.789  0.00  0.00    +0.000 HD
BRANCH  23  26
ATOM     26  C   UNL     1       2.125   6.836  18.905  0.00  0.00    +0.000 A 
ATOM     27  C   UNL     1       2.360   5.717  18.091  0.00  0.00    +0.000 A 
ATOM     28  C   UNL     1       2.329   4.423  18.627  0.00  0.00    +0.000 A 
ATOM     29  C   UNL     1       2.064   4.221  19.990  0.00  0.00    +0.000 A 
ATOM     30  C   UNL     1       1.824   5.340  20.800  0.00  0.00    +0.000 A 
ATOM     31  C   UNL     1       1.855   6.626  20.258  0.00  0.00    +0.000 A 
ATOM     32  F   UNL     1       1.621   7.658  21.086  0.00  0.00    +0.000 F 
BRANCH  29  33
ATOM     33  C   UNL     1       2.036   2.836  20.590  0.00  0.00    +0.000 C 
ATOM     34  F   UNL     1       3.104   2.566  21.390  0.00  0.00    +0.000 F 
ATOM     35  F   UNL     1       0.931   2.630  21.360  0.00  0.00    +0.000 F 
ATOM     36  F   UNL     1       2.020   1.859  19.643  0.00  0.00    +0.000 F 
ENDBRANCH  29  33
ENDBRANCH  23  26
ENDBRANCH  21  22
ENDBRANCH   4  21
TORSDOF 6
ENDMDL
MODEL 8
REMARK VINA RESULT:      -7.7      4.806      6.884
REMARK  Name = 
REMARK  6 active torsions:
REMARK  status: ('A' for Active; 'I' for Inactive)
REMARK    1  A    between atoms: C_2  and  C_4
REMARK    2  A    between atoms: C_7  and  N_8
REMARK    3  A    between atoms: C_11  and  C_12
REMARK    4  A    between atoms: C_12  and  N_13
REMARK    5  A    between atoms: C_14  and  C_16
REMARK    6  A    between atoms: C_19  and  C_20
REMARK                            x       y       z     vdW  Elec       q    Type
REMARK                         _______ _______ _______ _____ _____    ______ ____
ROOT
ATOM      1  N   UNL     1       1.833   8.110  18.990  0.00  0.00    +0.000 N 
ATOM      2  C   UNL     1       1.178   9.057  18.071  0.00  0.00    +0.000 C 
ATOM      3  C   UNL     1       1.128  10.377  18.836  0.00  0.00    +0.000 C 
ATOM      4  C   UNL     1       1.033   9.957  20.299  0.00  0.00    +0.000 C 
ATOM      5  C   UNL     1       1.933   8.712  20.338  0.00  0.00    +0.000 C 
ENDROOT
BRANCH   1   9
ATOM      6  C   UNL     1       4.720   5.310  17.656  0.00  0.00    +0.000 A 
ATOM      7  C   UNL     1       4.640   6.581  17.084  0.00  0.00    +0.000 A 
ATOM      8  C   UNL     1       3.709   7.510  17.548  0.00  0.00    +0.000 A 
ATOM      9  C   UNL     1       2.794   7.188  18.564  0.00  0.00    +0.000 A 
ATOM     10  C   UNL     1       2.885   5.864  19.108  0.00  0.00    +0.000 A 
ATOM     11  C   UNL     1       1.985   5.336  20.035  0.00  0.00    +0.000 A 
ATOM     12  N   UNL     1       2.049   4.118  20.606  0.00  0.00    +0.000 NA
ATOM     13  C   UNL     1       3.056   3.359  20.191  0.00  0.00    +0.000 A 
ATOM     14  N   UNL     1       3.958   3.703  19.263  0.00  0.00    +0.000 NA
ATOM     15  C   UNL     1       3.864   4.931  18.699  0.00  0.00    +0.000 A 
BRANCH   6  17
ATOM     16  N   UNL     1       5.248   3.257  16.430  0.00  0.00    +0.000 N 
ATOM     17  C   UNL     1       5.716   4.376  17.055  0.00  0.00    +0.000 C 
ATOM     18  O   UNL     1       6.919   4.599  17.123  0.00  0.00    +0.000 OA
ATOM     19  H   UNL     1       5.907   2.718  15.888  0.00  0.00    +0.000 HD
ATOM     20  H   UNL     1       4.264   3.206  16.181  0.00  0.00    +0.000 HD
ENDBRANCH   6  17
ENDBRANCH   1   9
BRANCH   4  21
ATOM     21  C   UNL     1      -0.419   9.667  20.710  0.00  0.00    +0.000 C 
BRANCH  21  22
ATOM     22  N   UNL     1      -1.085  10.823  21.284  0.00  0.00    +0.000 N 
ATOM     23  C   UNL     1      -1.047  11.117  22.630  0.00  0.00    +0.000 C 
ATOM     24  O   UNL     1      -0.469  10.408  23.447  0.00  0.00    +0.000 OA
ATOM     25  H   UNL     1      -1.571  11.452  20.654  0.00  0.00    +0.000 HD
BRANCH  23  26
ATOM     26  C   UNL     1      -1.745  12.357  23.082  0.00  0.00    +0.000 A 
ATOM     27  C   UNL     1      -3.047  12.243  23.593  0.00  0.00    +0.000 A 
ATOM     28  C   UNL     1      -3.743  13.375  24.037  0.00  0.00    +0.000 A 
ATOM     29  C   UNL     1      -3.150  14.645  23.982  0.00  0.00    +0.000 A 
ATOM     30  C   UNL     1      -1.851  14.757  23.466  0.00  0.00    +0.000 A 
ATOM     31  C   UNL     1      -1.165  13.625  23.024  0.00  0.00    +0.000 A 
ATOM     32  F   UNL     1       0.078  13.796  22.544  0.00  0.00    +0.000 F 
BRANCH  29  33
ATOM     33  C   UNL     1      -3.878  15.877  24.465  0.00  0.00    +0.000 C 
ATOM     34  F   UNL     1      -5.225  15.710  24.567  0.00  0.00    +0.000 F 
ATOM     35  F   UNL     1      -3.456  16.275  25.697  0.00  0.00    +0.000 F 
ATOM     36  F   UNL     1      -3.693  16.945  23.643  0.00  0.00    +0.000 F 
ENDBRANCH  29  33
ENDBRANCH  23  26
ENDBRANCH  21  22
ENDBRANCH   4  21
TORSDOF 6
ENDMDL
MODEL 9
REMARK VINA RESULT:      -7.6      5.834     10.853
REMARK  Name = 
REMARK  6 active torsions:
REMARK  status: ('A' for Active; 'I' for Inactive)
REMARK    1  A    between atoms: C_2  and  C_4
REMARK    2  A    between atoms: C_7  and  N_8
REMARK    3  A    between atoms: C_11  and  C_12
REMARK    4  A    between atoms: C_12  and  N_13
REMARK    5  A    between atoms: C_14  and  C_16
REMARK    6  A    between atoms: C_19  and  C_20
REMARK                            x       y       z     vdW  Elec       q    Type
REMARK                         _______ _______ _______ _____ _____    ______ ____
ROOT
ATOM      1  N   UNL     1      -0.847  11.567  20.094  0.00  0.00    +0.000 N 
ATOM      2  C   UNL     1       0.456  12.213  19.864  0.00  0.00    +0.000 C 
ATOM      3  C   UNL     1       0.980  11.592  18.571  0.00  0.00    +0.000 C 
ATOM      4  C   UNL     1       0.387  10.188  18.564  0.00  0.00    +0.000 C 
ATOM      5  C   UNL     1      -1.006  10.421  19.170  0.00  0.00    +0.000 C 
ENDROOT
BRANCH   1   9
ATOM      6  C   UNL     1      -4.249  13.741  21.381  0.00  0.00    +0.000 A 
ATOM      7  C   UNL     1      -4.268  13.031  20.178  0.00  0.00    +0.000 A 
ATOM      8  C   UNL     1      -3.156  12.292  19.774  0.00  0.00    +0.000 A 
ATOM      9  C   UNL     1      -1.972  12.273  20.530  0.00  0.00    +0.000 A 
ATOM     10  C   UNL     1      -1.979  13.037  21.745  0.00  0.00    +0.000 A 
ATOM     11  C   UNL     1      -0.859  13.227  22.555  0.00  0.00    +0.000 A 
ATOM     12  N   UNL     1      -0.821  13.898  23.722  0.00  0.00    +0.000 NA
ATOM     13  C   UNL     1      -1.971  14.454  24.083  0.00  0.00    +0.000 A 
ATOM     14  N   UNL     1      -3.110  14.413  23.380  0.00  0.00    +0.000 NA
ATOM     15  C   UNL     1      -3.116  13.737  22.205  0.00  0.00    +0.000 A 
BRANCH   6  17
ATOM     16  N   UNL     1      -5.338  15.891  21.813  0.00  0.00    +0.000 N 
ATOM     17  C   UNL     1      -5.470  14.538  21.696  0.00  0.00    +0.000 C 
ATOM     18  O   UNL     1      -6.559  13.999  21.854  0.00  0.00    +0.000 OA
ATOM     19  H   UNL     1      -6.186  16.438  21.863  0.00  0.00    +0.000 HD
ATOM     20  H   UNL     1      -4.498  16.337  21.455  0.00  0.00    +0.000 HD
ENDBRANCH   6  17
ENDBRANCH   1   9
BRANCH   4  21
ATOM     21  C   UNL     1       1.245   9.208  19.378  0.00  0.00    +0.000 C 
BRANCH  21  22
ATOM     22  N   UNL     1       2.101   8.382  18.546  0.00  0.00    +0.000 N 
ATOM     23  C   UNL     1       2.526   7.126  18.924  0.00  0.00    +0.000 C 
ATOM     24  O   UNL     1       2.232   6.624  20.004  0.00  0.00    +0.000 OA
ATOM     25  H   UNL     1       2.370   8.741  17.636  0.00  0.00    +0.000 HD
BRANCH  23  26
ATOM     26  C   UNL     1       3.374   6.367  17.958  0.00  0.00    +0.000 A 
ATOM     27  C   UNL     1       4.360   7.065  17.244  0.00  0.00    +0.000 A 
ATOM     28  C   UNL     1       5.188   6.400  16.330  0.00  0.00    +0.000 A 
ATOM     29  C   UNL     1       5.048   5.021  16.112  0.00  0.00    +0.000 A 
ATOM     30  C   UNL     1       4.058   4.326  16.823  0.00  0.00    +0.000 A 
ATOM     31  C   UNL     1       3.236   4.997  17.731  0.00  0.00    +0.000 A 
ATOM     32  F   UNL     1       2.310   4.277  18.384  0.00  0.00    +0.000 F 
BRANCH  29  33
ATOM     33  C   UNL     1       5.936   4.281  15.141  0.00  0.00    +0.000 C 
ATOM     34  F   UNL     1       6.137   2.976  15.470  0.00  0.00    +0.000 F 
ATOM     35  F   UNL     1       5.425   4.274  13.878  0.00  0.00    +0.000 F 
ATOM     36  F   UNL     1       7.173   4.839  15.041  0.00  0.00    +0.000 F 
ENDBRANCH  29  33
ENDBRANCH  23  26
ENDBRANCH  21  22
ENDBRANCH   4  21
TORSDOF 6
ENDMDL
