MODEL 1
REMARK VINA RESULT:      -8.4      0.000      0.000
REMARK  Name = 
REMARK  3 active torsions:
REMARK  status: ('A' for Active; 'I' for Inactive)
REMARK    1  A    between atoms: C_1  and  N_2
REMARK    2  A    between atoms: C_5  and  C_6
REMARK    3  A    between atoms: C_9  and  N_10
REMARK                            x       y       z     vdW  Elec       q    Type
REMARK                         _______ _______ _______ _____ _____    ______ ____
ROOT
ATOM      1  C   UNL     1       2.319   4.314  21.245  0.00  0.00    +0.000 C 
ATOM      2  N   UNL     1       2.638   5.091  20.067  0.00  0.00    +0.000 N 
ATOM      3  C   UNL     1       2.244   6.402  19.858  0.00  0.00    +0.000 A 
ATOM      4  C   UNL     1       1.462   7.275  20.632  0.00  0.00    +0.000 A 
ATOM      5  C   UNL     1       1.202   8.587  20.180  0.00  0.00    +0.000 A 
ATOM      6  C   UNL     1       1.748   8.979  18.949  0.00  0.00    +0.000 A 
ATOM      7  C   UNL     1       2.519   8.104  18.170  0.00  0.00    +0.000 A 
ATOM      8  C   UNL     1       2.771   6.798  18.629  0.00  0.00    +0.000 A 
ATOM      9  C   UNL     1       3.483   5.686  18.101  0.00  0.00    +0.000 A 
ATOM     10  N   UNL     1       4.153   5.599  16.930  0.00  0.00    +0.000 NA
ATOM     11  C   UNL     1       4.694   4.396  16.723  0.00  0.00    +0.000 A 
ATOM     12  N   UNL     1       4.641   3.317  17.522  0.00  0.00    +0.000 NA
ATOM     13  C   UNL     1       3.971   3.410  18.684  0.00  0.00    +0.000 A 
ATOM     14  N   UNL     1       3.930   2.270  19.467  0.00  0.00    +0.000 N 
ATOM     15  C   UNL     1       3.380   4.630  18.999  0.00  0.00    +0.000 A 
ATOM     16  H   UNL     1       4.608   1.599  19.122  0.00  0.00    +0.000 HD
ATOM     17  H   UNL     1       3.939   2.410  20.464  0.00  0.00    +0.000 HD
ENDROOT
BRANCH   5  18
ATOM     18  C   UNL     1       0.348   9.495  20.983  0.00  0.00    +0.000 A 
ATOM     19  C   UNL     1      -0.179  10.677  20.431  0.00  0.00    +0.000 A 
ATOM     20  C   UNL     1      -0.917  11.585  21.197  0.00  0.00    +0.000 A 
ATOM     21  C   UNL     1      -1.167  11.328  22.543  0.00  0.00    +0.000 A 
ATOM     22  C   UNL     1      -0.674  10.148  23.107  0.00  0.00    +0.000 A 
ATOM     23  C   UNL     1       0.069   9.245  22.335  0.00  0.00    +0.000 A 
BRANCH  21  24
ATOM     24  N   UNL     1      -1.871  12.207  23.378  0.00  0.00    +0.000 N 
ATOM     25  C   UNL     1      -3.223  12.300  23.535  0.00  0.00    +0.000 C 
ATOM     26  O   UNL     1      -3.749  13.132  24.264  0.00  0.00    +0.000 OA
ATOM     27  H   UNL     1      -1.344  12.853  23.955  0.00  0.00    +0.000 HD
ENDBRANCH  21  24
ENDBRANCH   5  18
TORSDOF 2
ENDMDL
MODEL 2
REMARK VINA RESULT:      -8.3      0.224      1.000
REMARK  Name = 
REMARK  3 active torsions:
REMARK  status: ('A' for Active; 'I' for Inactive)
REMARK    1  A    between atoms: C_1  and  N_2
REMARK    2  A    between atoms: C_5  and  C_6
REMARK    3  A    between atoms: C_9  and  N_10
REMARK                            x       y       z     vdW  Elec       q    Type
REMARK                         _______ _______ _______ _____ _____    ______ ____
ROOT
ATOM      1  C   UNL     1       2.259   4.259  21.316  0.00  0.00    +0.000 C 
ATOM      2  N   UNL     1       2.576   5.006  20.119  0.00  0.00    +0.000 N 
ATOM      3  C   UNL     1       2.245   6.334  19.908  0.00  0.00    +0.000 A 
ATOM      4  C   UNL     1       1.540   7.256  20.700  0.00  0.00    +0.000 A 
ATOM      5  C   UNL     1       1.335   8.575  20.242  0.00  0.00    +0.000 A 
ATOM      6  C   UNL     1       1.856   8.926  18.988  0.00  0.00    +0.000 A 
ATOM      7  C   UNL     1       2.550   8.002  18.191  0.00  0.00    +0.000 A 
ATOM      8  C   UNL     1       2.748   6.689  18.656  0.00  0.00    +0.000 A 
ATOM      9  C   UNL     1       3.380   5.536  18.116  0.00  0.00    +0.000 A 
ATOM     10  N   UNL     1       4.002   5.402  16.924  0.00  0.00    +0.000 NA
ATOM     11  C   UNL     1       4.469   4.169  16.711  0.00  0.00    +0.000 A 
ATOM     12  N   UNL     1       4.387   3.103  17.525  0.00  0.00    +0.000 NA
ATOM     13  C   UNL     1       3.766   3.243  18.708  0.00  0.00    +0.000 A 
ATOM     14  N   UNL     1       3.692   2.114  19.505  0.00  0.00    +0.000 N 
ATOM     15  C   UNL     1       3.253   4.495  19.030  0.00  0.00    +0.000 A 
ATOM     16  H   UNL     1       4.321   1.404  19.144  0.00  0.00    +0.000 HD
ATOM     17  H   UNL     1       3.745   2.263  20.500  0.00  0.00    +0.000 HD
ENDROOT
BRANCH   5  18
ATOM     18  C   UNL     1       0.560   9.535  21.063  0.00  0.00    +0.000 A 
ATOM     19  C   UNL     1       0.148   9.212  22.369  0.00  0.00    +0.000 A 
ATOM     20  C   UNL     1      -0.654  10.073  23.127  0.00  0.00    +0.000 A 
ATOM     21  C   UNL     1      -1.054  11.300  22.603  0.00  0.00    +0.000 A 
ATOM     22  C   UNL     1      -0.637  11.654  21.317  0.00  0.00    +0.000 A 
ATOM     23  C   UNL     1       0.161  10.785  20.563  0.00  0.00    +0.000 A 
BRANCH  21  24
ATOM     24  N   UNL     1      -1.883  12.198  23.292  0.00  0.00    +0.000 N 
ATOM     25  C   UNL     1      -3.244  12.274  23.246  0.00  0.00    +0.000 C 
ATOM     26  O   UNL     1      -3.880  13.123  23.859  0.00  0.00    +0.000 OA
ATOM     27  H   UNL     1      -1.453  12.872  23.915  0.00  0.00    +0.000 HD
ENDBRANCH  21  24
ENDBRANCH   5  18
TORSDOF 2
ENDMDL
MODEL 3
REMARK VINA RESULT:      -8.2      4.254      9.053
REMARK  Name = 
REMARK  3 active torsions:
REMARK  status: ('A' for Active; 'I' for Inactive)
REMARK    1  A    between atoms: C_1  and  N_2
REMARK    2  A    between atoms: C_5  and  C_6
REMARK    3  A    between atoms: C_9  and  N_10
REMARK                            x       y       z     vdW  Elec       q    Type
REMARK                         _______ _______ _______ _____ _____    ______ ____
ROOT
ATOM      1  C   UNL     1       1.293  11.108  18.552  0.00  0.00    +0.000 C 
ATOM      2  N   UNL     1       1.094  10.122  19.592  0.00  0.00    +0.000 N 
ATOM      3  C   UNL     1       1.598   8.833  19.562  0.00  0.00    +0.000 A 
ATOM      4  C   UNL     1       2.351   8.149  18.594  0.00  0.00    +0.000 A 
ATOM      5  C   UNL     1       2.744   6.811  18.813  0.00  0.00    +0.000 A 
ATOM      6  C   UNL     1       2.363   6.202  20.018  0.00  0.00    +0.000 A 
ATOM      7  C   UNL     1       1.600   6.881  20.981  0.00  0.00    +0.000 A 
ATOM      8  C   UNL     1       1.213   8.214  20.751  0.00  0.00    +0.000 A 
ATOM      9  C   UNL     1       0.454   9.162  21.490  0.00  0.00    +0.000 A 
ATOM     10  N   UNL     1      -0.131   9.009  22.699  0.00  0.00    +0.000 NA
ATOM     11  C   UNL     1      -0.796  10.094  23.103  0.00  0.00    +0.000 A 
ATOM     12  N   UNL     1      -0.934  11.265  22.459  0.00  0.00    +0.000 NA
ATOM     13  C   UNL     1      -0.351  11.411  21.257  0.00  0.00    +0.000 A 
ATOM     14  N   UNL     1      -0.534  12.628  20.623  0.00  0.00    +0.000 N 
ATOM     15  C   UNL     1       0.377  10.338  20.751  0.00  0.00    +0.000 A 
ATOM     16  H   UNL     1      -0.910  13.299  21.285  0.00  0.00    +0.000 HD
ATOM     17  H   UNL     1       0.237  12.964  20.068  0.00  0.00    +0.000 HD
ENDROOT
BRANCH   5  18
ATOM     18  C   UNL     1       3.508   6.080  17.775  0.00  0.00    +0.000 A 
ATOM     19  C   UNL     1       3.396   4.685  17.633  0.00  0.00    +0.000 A 
ATOM     20  C   UNL     1       4.171   3.970  16.714  0.00  0.00    +0.000 A 
ATOM     21  C   UNL     1       5.076   4.636  15.891  0.00  0.00    +0.000 A 
ATOM     22  C   UNL     1       5.188   6.025  15.997  0.00  0.00    +0.000 A 
ATOM     23  C   UNL     1       4.412   6.734  16.923  0.00  0.00    +0.000 A 
BRANCH  21  24
ATOM     24  N   UNL     1       5.908   3.981  14.971  0.00  0.00    +0.000 N 
ATOM     25  C   UNL     1       5.827   4.013  13.610  0.00  0.00    +0.000 C 
ATOM     26  O   UNL     1       6.580   3.372  12.887  0.00  0.00    +0.000 OA
ATOM     27  H   UNL     1       6.676   3.423  15.325  0.00  0.00    +0.000 HD
ENDBRANCH  21  24
ENDBRANCH   5  18
TORSDOF 2
ENDMDL
MODEL 4
REMARK VINA RESULT:      -8.2      4.432      9.112
REMARK  Name = 
REMARK  3 active torsions:
REMARK  status: ('A' for Active; 'I' for Inactive)
REMARK    1  A    between atoms: C_1  and  N_2
REMARK    2  A    between atoms: C_5  and  C_6
REMARK    3  A    between atoms: C_9  and  N_10
REMARK                            x       y       z     vdW  Elec       q    Type
REMARK                         _______ _______ _______ _____ _____    ______ ____
ROOT
ATOM      1  C   UNL     1       1.575  10.703  18.120  0.00  0.00    +0.000 C 
ATOM      2  N   UNL     1       1.387   9.726  19.170  0.00  0.00    +0.000 N 
ATOM      3  C   UNL     1       1.940   8.457  19.175  0.00  0.00    +0.000 A 
ATOM      4  C   UNL     1       2.745   7.788  18.237  0.00  0.00    +0.000 A 
ATOM      5  C   UNL     1       3.183   6.470  18.489  0.00  0.00    +0.000 A 
ATOM      6  C   UNL     1       2.793   5.865  19.693  0.00  0.00    +0.000 A 
ATOM      7  C   UNL     1       1.980   6.529  20.625  0.00  0.00    +0.000 A 
ATOM      8  C   UNL     1       1.548   7.842  20.363  0.00  0.00    +0.000 A 
ATOM      9  C   UNL     1       0.734   8.771  21.067  0.00  0.00    +0.000 A 
ATOM     10  N   UNL     1       0.124   8.614  22.263  0.00  0.00    +0.000 NA
ATOM     11  C   UNL     1      -0.592   9.679  22.631  0.00  0.00    +0.000 A 
ATOM     12  N   UNL     1      -0.758  10.834  21.964  0.00  0.00    +0.000 NA
ATOM     13  C   UNL     1      -0.150  10.983  20.775  0.00  0.00    +0.000 A 
ATOM     14  N   UNL     1      -0.362  12.182  20.118  0.00  0.00    +0.000 N 
ATOM     15  C   UNL     1       0.632   9.931  20.307  0.00  0.00    +0.000 A 
ATOM     16  H   UNL     1      -0.781  12.848  20.758  0.00  0.00    +0.000 HD
ATOM     17  H   UNL     1       0.409  12.540  19.577  0.00  0.00    +0.000 HD
ENDROOT
BRANCH   5  18
ATOM     18  C   UNL     1       4.002   5.753  17.483  0.00  0.00    +0.000 A 
ATOM     19  C   UNL     1       4.692   6.449  16.473  0.00  0.00    +0.000 A 
ATOM     20  C   UNL     1       5.400   5.785  15.468  0.00  0.00    +0.000 A 
ATOM     21  C   UNL     1       5.456   4.393  15.452  0.00  0.00    +0.000 A 
ATOM     22  C   UNL     1       4.799   3.680  16.458  0.00  0.00    +0.000 A 
ATOM     23  C   UNL     1       4.087   4.352  17.459  0.00  0.00    +0.000 A 
BRANCH  21  24
ATOM     24  N   UNL     1       6.120   3.660  14.458  0.00  0.00    +0.000 N 
ATOM     25  C   UNL     1       6.066   3.852  13.108  0.00  0.00    +0.000 C 
ATOM     26  O   UNL     1       6.656   3.130  12.313  0.00  0.00    +0.000 OA
ATOM     27  H   UNL     1       6.730   2.901  14.741  0.00  0.00    +0.000 HD
ENDBRANCH  21  24
ENDBRANCH   5  18
TORSDOF 2
ENDMDL
MODEL 5
REMARK VINA RESULT:      -8.2      3.817      8.702
REMARK  Name = 
REMARK  3 active torsions:
REMARK  status: ('A' for Active; 'I' for Inactive)
REMARK    1  A    between atoms: C_1  and  N_2
REMARK    2  A    between atoms: C_5  and  C_6
REMARK    3  A    between atoms: C_9  and  N_10
REMARK                            x       y       z     vdW  Elec       q    Type
REMARK                         _______ _______ _______ _____ _____    ______ ____
ROOT
ATOM      1  C   UNL     1       0.213   9.504  22.854  0.00  0.00    +0.000 C 
ATOM      2  N   UNL     1      -0.074   9.982  21.519  0.00  0.00    +0.000 N 
ATOM      3  C   UNL     1       0.516   9.496  20.365  0.00  0.00    +0.000 A 
ATOM      4  C   UNL     1       1.500   8.513  20.163  0.00  0.00    +0.000 A 
ATOM      5  C   UNL     1       1.937   8.202  18.858  0.00  0.00    +0.000 A 
ATOM      6  C   UNL     1       1.358   8.897  17.786  0.00  0.00    +0.000 A 
ATOM      7  C   UNL     1       0.384   9.887  17.987  0.00  0.00    +0.000 A 
ATOM      8  C   UNL     1      -0.044  10.191  19.293  0.00  0.00    +0.000 A 
ATOM      9  C   UNL     1      -0.977  11.116  19.836  0.00  0.00    +0.000 A 
ATOM     10  N   UNL     1      -1.754  12.006  19.179  0.00  0.00    +0.000 NA
ATOM     11  C   UNL     1      -2.506  12.748  19.995  0.00  0.00    +0.000 A 
ATOM     12  N   UNL     1      -2.565  12.701  21.336  0.00  0.00    +0.000 NA
ATOM     13  C   UNL     1      -1.789  11.814  21.983  0.00  0.00    +0.000 A 
ATOM     14  N   UNL     1      -1.872  11.812  23.365  0.00  0.00    +0.000 N 
ATOM     15  C   UNL     1      -0.975  10.983  21.220  0.00  0.00    +0.000 A 
ATOM     16  H   UNL     1      -2.682  12.349  23.655  0.00  0.00    +0.000 HD
ATOM     17  H   UNL     1      -1.769  10.919  23.818  0.00  0.00    +0.000 HD
ENDROOT
BRANCH   5  18
ATOM     18  C   UNL     1       3.000   7.190  18.650  0.00  0.00    +0.000 A 
ATOM     19  C   UNL     1       3.198   6.142  19.568  0.00  0.00    +0.000 A 
ATOM     20  C   UNL     1       4.249   5.228  19.432  0.00  0.00    +0.000 A 
ATOM     21  C   UNL     1       5.127   5.324  18.354  0.00  0.00    +0.000 A 
ATOM     22  C   UNL     1       4.934   6.342  17.416  0.00  0.00    +0.000 A 
ATOM     23  C   UNL     1       3.884   7.257  17.563  0.00  0.00    +0.000 A 
BRANCH  21  24
ATOM     24  N   UNL     1       6.219   4.464  18.171  0.00  0.00    +0.000 N 
ATOM     25  C   UNL     1       7.486   4.799  17.792  0.00  0.00    +0.000 C 
ATOM     26  O   UNL     1       8.367   3.966  17.620  0.00  0.00    +0.000 OA
ATOM     27  H   UNL     1       6.090   3.474  18.346  0.00  0.00    +0.000 HD
ENDBRANCH  21  24
ENDBRANCH   5  18
TORSDOF 2
ENDMDL
MODEL 6
REMARK VINA RESULT:      -8.0      3.783      8.466
REMARK  Name = 
REMARK  3 active torsions:
REMARK  status: ('A' for Active; 'I' for Inactive)
REMARK    1  A    between atoms: C_1  and  N_2
REMARK    2  A    between atoms: C_5  and  C_6
REMARK    3  A    between atoms: C_9  and  N_10
REMARK                            x       y       z     vdW  Elec       q    Type
REMARK                         _______ _______ _______ _____ _____    ______ ____
ROOT
ATOM      1  C   UNL     1       0.030   9.616  22.568  0.00  0.00    +0.000 C 
ATOM      2  N   UNL     1       0.320  10.072  21.226  0.00  0.00    +0.000 N 
ATOM      3  C   UNL     1       0.995   9.331  20.271  0.00  0.00    +0.000 A 
ATOM      4  C   UNL     1       1.578   8.053  20.322  0.00  0.00    +0.000 A 
ATOM      5  C   UNL     1       2.221   7.519  19.185  0.00  0.00    +0.000 A 
ATOM      6  C   UNL     1       2.254   8.299  18.020  0.00  0.00    +0.000 A 
ATOM      7  C   UNL     1       1.683   9.580  17.971  0.00  0.00    +0.000 A 
ATOM      8  C   UNL     1       1.045  10.104  19.111  0.00  0.00    +0.000 A 
ATOM      9  C   UNL     1       0.391  11.333  19.398  0.00  0.00    +0.000 A 
ATOM     10  N   UNL     1       0.201  12.393  18.581  0.00  0.00    +0.000 NA
ATOM     11  C   UNL     1      -0.433  13.407  19.175  0.00  0.00    +0.000 A 
ATOM     12  N   UNL     1      -0.879  13.475  20.441  0.00  0.00    +0.000 NA
ATOM     13  C   UNL     1      -0.685  12.418  21.249  0.00  0.00    +0.000 A 
ATOM     14  N   UNL     1      -1.146  12.540  22.548  0.00  0.00    +0.000 N 
ATOM     15  C   UNL     1      -0.042  11.303  20.720  0.00  0.00    +0.000 A 
ATOM     16  H   UNL     1      -1.757  13.347  22.615  0.00  0.00    +0.000 HD
ATOM     17  H   UNL     1      -1.500  11.701  22.978  0.00  0.00    +0.000 HD
ENDROOT
BRANCH   5  18
ATOM     18  C   UNL     1       2.865   6.186  19.252  0.00  0.00    +0.000 A 
ATOM     19  C   UNL     1       2.354   5.170  20.080  0.00  0.00    +0.000 A 
ATOM     20  C   UNL     1       2.997   3.935  20.219  0.00  0.00    +0.000 A 
ATOM     21  C   UNL     1       4.169   3.671  19.513  0.00  0.00    +0.000 A 
ATOM     22  C   UNL     1       4.682   4.656  18.665  0.00  0.00    +0.000 A 
ATOM     23  C   UNL     1       4.036   5.892  18.536  0.00  0.00    +0.000 A 
BRANCH  21  24
ATOM     24  N   UNL     1       4.882   2.469  19.627  0.00  0.00    +0.000 N 
ATOM     25  C   UNL     1       4.934   1.633  20.704  0.00  0.00    +0.000 C 
ATOM     26  O   UNL     1       5.621   0.619  20.722  0.00  0.00    +0.000 OA
ATOM     27  H   UNL     1       5.421   2.149  18.831  0.00  0.00    +0.000 HD
ENDBRANCH  21  24
ENDBRANCH   5  18
TORSDOF 2
ENDMDL
MODEL 7
REMARK VINA RESULT:      -7.9      3.775      8.440
REMARK  Name = 
REMARK  3 active torsions:
REMARK  status: ('A' for Active; 'I' for Inactive)
REMARK    1  A    between atoms: C_1  and  N_2
REMARK    2  A    between atoms: C_5  and  C_6
REMARK    3  A    between atoms: C_9  and  N_10
REMARK                            x       y       z     vdW  Elec       q    Type
REMARK                         _______ _______ _______ _____ _____    ______ ____
ROOT
ATOM      1  C   UNL     1      -0.156   9.490  22.668  0.00  0.00    +0.000 C 
ATOM      2  N   UNL     1       0.119   9.920  21.314  0.00  0.00    +0.000 N 
ATOM      3  C   UNL     1       0.850   9.194  20.390  0.00  0.00    +0.000 A 
ATOM      4  C   UNL     1       1.510   7.958  20.487  0.00  0.00    +0.000 A 
ATOM      5  C   UNL     1       2.198   7.430  19.373  0.00  0.00    +0.000 A 
ATOM      6  C   UNL     1       2.194   8.173  18.184  0.00  0.00    +0.000 A 
ATOM      7  C   UNL     1       1.544   9.413  18.089  0.00  0.00    +0.000 A 
ATOM      8  C   UNL     1       0.862   9.931  19.206  0.00  0.00    +0.000 A 
ATOM      9  C   UNL     1       0.130  11.125  19.448  0.00  0.00    +0.000 A 
ATOM     10  N   UNL     1      -0.118  12.144  18.595  0.00  0.00    +0.000 NA
ATOM     11  C   UNL     1      -0.821  13.134  19.151  0.00  0.00    +0.000 A 
ATOM     12  N   UNL     1      -1.283  13.214  20.410  0.00  0.00    +0.000 NA
ATOM     13  C   UNL     1      -1.031  12.199  21.253  0.00  0.00    +0.000 A 
ATOM     14  N   UNL     1      -1.513  12.332  22.544  0.00  0.00    +0.000 N 
ATOM     15  C   UNL     1      -0.314  11.110  20.766  0.00  0.00    +0.000 A 
ATOM     16  H   UNL     1      -2.175  13.100  22.579  0.00  0.00    +0.000 HD
ATOM     17  H   UNL     1      -1.818  11.486  22.998  0.00  0.00    +0.000 HD
ENDROOT
BRANCH   5  18
ATOM     18  C   UNL     1       2.924   6.143  19.489  0.00  0.00    +0.000 A 
ATOM     19  C   UNL     1       4.137   5.926  18.811  0.00  0.00    +0.000 A 
ATOM     20  C   UNL     1       4.792   4.690  18.842  0.00  0.00    +0.000 A 
ATOM     21  C   UNL     1       4.258   3.632  19.574  0.00  0.00    +0.000 A 
ATOM     22  C   UNL     1       3.066   3.831  20.276  0.00  0.00    +0.000 A 
ATOM     23  C   UNL     1       2.413   5.069  20.235  0.00  0.00    +0.000 A 
BRANCH  21  24
ATOM     24  N   UNL     1       4.843   2.358  19.625  0.00  0.00    +0.000 N 
ATOM     25  C   UNL     1       5.045   1.581  20.728  0.00  0.00    +0.000 C 
ATOM     26  O   UNL     1       5.602   0.491  20.676  0.00  0.00    +0.000 OA
ATOM     27  H   UNL     1       5.149   1.931  18.758  0.00  0.00    +0.000 HD
ENDBRANCH  21  24
ENDBRANCH   5  18
TORSDOF 2
ENDMDL
MODEL 8
REMARK VINA RESULT:      -7.7      3.898      9.028
REMARK  Name = 
REMARK  3 active torsions:
REMARK  status: ('A' for Active; 'I' for Inactive)
REMARK    1  A    between atoms: C_1  and  N_2
REMARK    2  A    between atoms: C_5  and  C_6
REMARK    3  A    between atoms: C_9  and  N_10
REMARK                            x       y       z     vdW  Elec       q    Type
REMARK                         _______ _______ _______ _____ _____    ______ ____
ROOT
ATOM      1  C   UNL     1       0.369  11.941  18.448  0.00  0.00    +0.000 C 
ATOM      2  N   UNL     1       0.206  11.146  19.646  0.00  0.00    +0.000 N 
ATOM      3  C   UNL     1       0.743   9.884  19.834  0.00  0.00    +0.000 A 
ATOM      4  C   UNL     1       1.504   9.060  18.988  0.00  0.00    +0.000 A 
ATOM      5  C   UNL     1       1.935   7.791  19.431  0.00  0.00    +0.000 A 
ATOM      6  C   UNL     1       1.581   7.392  20.728  0.00  0.00    +0.000 A 
ATOM      7  C   UNL     1       0.810   8.209  21.569  0.00  0.00    +0.000 A 
ATOM      8  C   UNL     1       0.386   9.472  21.117  0.00  0.00    +0.000 A 
ATOM      9  C   UNL     1      -0.391  10.516  21.691  0.00  0.00    +0.000 A 
ATOM     10  N   UNL     1      -0.960  10.561  22.916  0.00  0.00    +0.000 NA
ATOM     11  C   UNL     1      -1.649  11.684  23.134  0.00  0.00    +0.000 A 
ATOM     12  N   UNL     1      -1.823  12.721  22.298  0.00  0.00    +0.000 NA
ATOM     13  C   UNL     1      -1.256  12.669  21.081  0.00  0.00    +0.000 A 
ATOM     14  N   UNL     1      -1.477  13.753  20.249  0.00  0.00    +0.000 N 
ATOM     15  C   UNL     1      -0.505  11.543  20.760  0.00  0.00    +0.000 A 
ATOM     16  H   UNL     1      -1.864  14.519  20.789  0.00  0.00    +0.000 HD
ATOM     17  H   UNL     1      -0.721  14.006  19.633  0.00  0.00    +0.000 HD
ENDROOT
BRANCH   5  18
ATOM     18  C   UNL     1       2.708   6.909  18.525  0.00  0.00    +0.000 A 
ATOM     19  C   UNL     1       2.484   5.521  18.492  0.00  0.00    +0.000 A 
ATOM     20  C   UNL     1       3.261   4.664  17.705  0.00  0.00    +0.000 A 
ATOM     21  C   UNL     1       4.281   5.178  16.906  0.00  0.00    +0.000 A 
ATOM     22  C   UNL     1       4.506   6.557  16.904  0.00  0.00    +0.000 A 
ATOM     23  C   UNL     1       3.727   7.407  17.699  0.00  0.00    +0.000 A 
BRANCH  21  24
ATOM     24  N   UNL     1       5.118   4.377  16.117  0.00  0.00    +0.000 N 
ATOM     25  C   UNL     1       5.632   4.672  14.888  0.00  0.00    +0.000 C 
ATOM     26  O   UNL     1       6.328   3.886  14.256  0.00  0.00    +0.000 OA
ATOM     27  H   UNL     1       5.405   3.474  16.477  0.00  0.00    +0.000 HD
ENDBRANCH  21  24
ENDBRANCH   5  18
TORSDOF 2
ENDMDL
MODEL 9
REMARK VINA RESULT:      -7.6      3.638      8.558
REMARK  Name = 
REMARK  3 active torsions:
REMARK  status: ('A' for Active; 'I' for Inactive)
REMARK    1  A    between atoms: C_1  and  N_2
REMARK    2  A    between atoms: C_5  and  C_6
REMARK    3  A    between atoms: C_9  and  N_10
REMARK                            x       y       z     vdW  Elec       q    Type
REMARK                         _______ _______ _______ _____ _____    ______ ____
ROOT
ATOM      1  C   UNL     1      -0.113   9.888  22.807  0.00  0.00    +0.000 C 
ATOM      2  N   UNL     1       0.115  10.484  21.508  0.00  0.00    +0.000 N 
ATOM      3  C   UNL     1       0.750   9.852  20.453  0.00  0.00    +0.000 A 
ATOM      4  C   UNL     1       1.339   8.581  20.345  0.00  0.00    +0.000 A 
ATOM      5  C   UNL     1       1.933   8.174  19.131  0.00  0.00    +0.000 A 
ATOM      6  C   UNL     1       1.912   9.072  18.053  0.00  0.00    +0.000 A 
ATOM      7  C   UNL     1       1.335  10.346  18.164  0.00  0.00    +0.000 A 
ATOM      8  C   UNL     1       0.746  10.743  19.379  0.00  0.00    +0.000 A 
ATOM      9  C   UNL     1       0.101  11.929  19.822  0.00  0.00    +0.000 A 
ATOM     10  N   UNL     1      -0.129  13.067  19.129  0.00  0.00    +0.000 NA
ATOM     11  C   UNL     1      -0.740  14.008  19.853  0.00  0.00    +0.000 A 
ATOM     12  N   UNL     1      -1.129  13.940  21.137  0.00  0.00    +0.000 NA
ATOM     13  C   UNL     1      -0.896  12.807  21.820  0.00  0.00    +0.000 A 
ATOM     14  N   UNL     1      -1.299  12.789  23.144  0.00  0.00    +0.000 N 
ATOM     15  C   UNL     1      -0.273  11.759  21.150  0.00  0.00    +0.000 A 
ATOM     16  H   UNL     1      -1.910  13.579  23.321  0.00  0.00    +0.000 HD
ATOM     17  H   UNL     1      -1.631  11.906  23.499  0.00  0.00    +0.000 HD
ENDROOT
BRANCH   5  18
ATOM     18  C   UNL     1       2.584   6.846  19.030  0.00  0.00    +0.000 A 
ATOM     19  C   UNL     1       3.390   6.511  17.926  0.00  0.00    +0.000 A 
ATOM     20  C   UNL     1       3.943   5.235  17.775  0.00  0.00    +0.000 A 
ATOM     21  C   UNL     1       3.721   4.255  18.740  0.00  0.00    +0.000 A 
ATOM     22  C   UNL     1       2.945   4.573  19.858  0.00  0.00    +0.000 A 
ATOM     23  C   UNL     1       2.390   5.850  20.000  0.00  0.00    +0.000 A 
BRANCH  21  24
ATOM     24  N   UNL     1       4.218   2.948  18.638  0.00  0.00    +0.000 N 
ATOM     25  C   UNL     1       3.505   1.803  18.431  0.00  0.00    +0.000 C 
ATOM     26  O   UNL     1       4.028   0.695  18.396  0.00  0.00    +0.000 OA
ATOM     27  H   UNL     1       5.218   2.803  18.709  0.00  0.00    +0.000 HD
ENDBRANCH  21  24
ENDBRANCH   5  18
TORSDOF 2
ENDMDL
