MODEL 1
REMARK VINA RESULT:      -8.0      0.000      0.000
REMARK  Name = 
REMARK  12 active torsions:
REMARK  status: ('A' for Active; 'I' for Inactive)
REMARK    1  A    between atoms: C_1  and  C_2
REMARK    2  A    between atoms: N_4  and  C_5
REMARK    3  A    between atoms: C_6  and  O_7
REMARK    4  A    between atoms: C_9  and  C_10
REMARK    5  A    between atoms: C_10  and  O_12
REMARK    6  A    between atoms: C_14  and  C_15
REMARK    7  A    between atoms: C_15  and  O_16
REMARK    8  A    between atoms: C_15  and  C_17
REMARK    9  A    between atoms: C_17  and  O_18
REMARK   10  A    between atoms: C_17  and  C_19
REMARK   11  A    between atoms: C_19  and  N_20
REMARK   12  A    between atoms: C_22  and  C_23
REMARK                            x       y       z     vdW  Elec       q    Type
REMARK                         _______ _______ _______ _____ _____    ______ ____
ROOT
ATOM      1  C   UNL     1       4.694   5.973  18.847  0.00  0.00    +0.000 C 
ENDROOT
BRANCH   1   7
ATOM      2  C   UNL     1       4.320   3.668  17.785  0.00  0.00    +0.000 C 
ATOM      3  C   UNL     1       3.444   2.400  17.781  0.00  0.00    +0.000 C 
ATOM      4  C   UNL     1       2.787   2.175  19.089  0.00  0.00    +0.000 C 
ATOM      5  C   UNL     1       2.664   3.138  20.017  0.00  0.00    +0.000 C 
ATOM      6  O   UNL     1       3.119   4.434  19.860  0.00  0.00    +0.000 OA
ATOM      7  C   UNL     1       3.653   4.834  18.572  0.00  0.00    +0.000 C 
BRANCH   2  11
ATOM      8  C   UNL     1       6.239   4.423  14.582  0.00  0.00    +0.000 C 
ATOM      9  C   UNL     1       6.055   4.161  16.051  0.00  0.00    +0.000 C 
ATOM     10  O   UNL     1       6.993   4.046  16.832  0.00  0.00    +0.000 OA
ATOM     11  N   UNL     1       4.738   4.027  16.421  0.00  0.00    +0.000 N 
ATOM     12  H   UNL     1       4.071   3.818  15.685  0.00  0.00    +0.000 HD
ENDBRANCH   2  11
BRANCH   3  13
ATOM     13  O   UNL     1       4.254   1.255  17.497  0.00  0.00    +0.000 OA
ATOM     14  H   UNL     1       4.069   0.969  16.586  0.00  0.00    +0.000 HD
ENDBRANCH   3  13
BRANCH   5  15
ATOM     15  C   UNL     1       1.975   2.784  21.292  0.00  0.00    +0.000 C 
ATOM     16  O   UNL     1       2.537   2.505  22.339  0.00  0.00    +0.000 OA
BRANCH  15  17
ATOM     17  O   UNL     1       0.633   2.809  21.136  0.00  0.00    +0.000 OA
ATOM     18  H   UNL     1       0.262   3.675  21.411  0.00  0.00    +0.000 HD
ENDBRANCH  15  17
ENDBRANCH   5  15
ENDBRANCH   1   7
BRANCH   1  19
ATOM     19  O   UNL     1       6.021   5.462  18.918  0.00  0.00    +0.000 OA
ATOM     20  H   UNL     1       6.298   5.167  18.021  0.00  0.00    +0.000 HD
ENDBRANCH   1  19
BRANCH   1  21
ATOM     21  C   UNL     1       4.588   7.178  17.866  0.00  0.00    +0.000 C 
BRANCH  21  22
ATOM     22  O   UNL     1       5.469   6.980  16.745  0.00  0.00    +0.000 OA
ATOM     23  H   UNL     1       5.321   7.701  16.105  0.00  0.00    +0.000 HD
ENDBRANCH  21  22
BRANCH  21  24
ATOM     24  C   UNL     1       3.163   7.417  17.314  0.00  0.00    +0.000 C 
BRANCH  24  25
ATOM     25  N   UNL     1       2.313   8.367  17.996  0.00  0.00    +0.000 N 
ATOM     26  C   UNL     1       1.766   8.219  19.238  0.00  0.00    +0.000 A 
ATOM     27  C   UNL     1       1.197   9.446  19.499  0.00  0.00    +0.000 A 
ATOM     28  N   UNL     1       1.374  10.262  18.412  0.00  0.00    +0.000 NA
ATOM     29  N   UNL     1       1.987   9.561  17.465  0.00  0.00    +0.000 NA
BRANCH  27  30
ATOM     30  C   UNL     1       0.509   9.820  20.717  0.00  0.00    +0.000 A 
ATOM     31  C   UNL     1      -0.110  11.071  20.834  0.00  0.00    +0.000 A 
ATOM     32  C   UNL     1      -0.770  11.424  22.017  0.00  0.00    +0.000 A 
ATOM     33  C   UNL     1      -0.825  10.526  23.083  0.00  0.00    +0.000 A 
ATOM     34  C   UNL     1      -0.219   9.278  22.972  0.00  0.00    +0.000 A 
ATOM     35  C   UNL     1       0.447   8.927  21.797  0.00  0.00    +0.000 A 
ENDBRANCH  27  30
ENDBRANCH  24  25
ENDBRANCH  21  24
ENDBRANCH   1  21
TORSDOF 11
ENDMDL
MODEL 2
REMARK VINA RESULT:      -7.8      2.817      3.808
REMARK  Name = 
REMARK  12 active torsions:
REMARK  status: ('A' for Active; 'I' for Inactive)
REMARK    1  A    between atoms: C_1  and  C_2
REMARK    2  A    between atoms: N_4  and  C_5
REMARK    3  A    between atoms: C_6  and  O_7
REMARK    4  A    between atoms: C_9  and  C_10
REMARK    5  A    between atoms: C_10  and  O_12
REMARK    6  A    between atoms: C_14  and  C_15
REMARK    7  A    between atoms: C_15  and  O_16
REMARK    8  A    between atoms: C_15  and  C_17
REMARK    9  A    between atoms: C_17  and  O_18
REMARK   10  A    between atoms: C_17  and  C_19
REMARK   11  A    between atoms: C_19  and  N_20
REMARK   12  A    between atoms: C_22  and  C_23
REMARK                            x       y       z     vdW  Elec       q    Type
REMARK                         _______ _______ _______ _____ _____    ______ ____
ROOT
ATOM      1  C   UNL     1       2.860   7.236  19.002  0.00  0.00    +0.000 C 
ENDROOT
BRANCH   1   7
ATOM      2  C   UNL     1       4.398   5.192  18.801  0.00  0.00    +0.000 C 
ATOM      3  C   UNL     1       4.466   3.679  18.517  0.00  0.00    +0.000 C 
ATOM      4  C   UNL     1       3.194   2.995  18.843  0.00  0.00    +0.000 C 
ATOM      5  C   UNL     1       2.033   3.652  18.996  0.00  0.00    +0.000 C 
ATOM      6  O   UNL     1       1.888   5.020  18.859  0.00  0.00    +0.000 OA
ATOM      7  C   UNL     1       3.022   5.798  18.398  0.00  0.00    +0.000 C 
BRANCH   2  11
ATOM      8  C   UNL     1       7.840   6.612  17.993  0.00  0.00    +0.000 C 
ATOM      9  C   UNL     1       6.787   5.935  18.827  0.00  0.00    +0.000 C 
ATOM     10  O   UNL     1       7.020   5.441  19.924  0.00  0.00    +0.000 OA
ATOM     11  N   UNL     1       5.554   5.892  18.220  0.00  0.00    +0.000 N 
ATOM     12  H   UNL     1       5.530   6.027  17.215  0.00  0.00    +0.000 HD
ENDBRANCH   2  11
BRANCH   3  13
ATOM     13  O   UNL     1       5.497   3.085  19.313  0.00  0.00    +0.000 OA
ATOM     14  H   UNL     1       6.335   3.535  19.112  0.00  0.00    +0.000 HD
ENDBRANCH   3  13
BRANCH   5  15
ATOM     15  C   UNL     1       0.821   2.845  19.318  0.00  0.00    +0.000 C 
ATOM     16  O   UNL     1       0.196   2.166  18.518  0.00  0.00    +0.000 OA
BRANCH  15  17
ATOM     17  O   UNL     1       0.498   2.964  20.625  0.00  0.00    +0.000 OA
ATOM     18  H   UNL     1       0.819   2.193  21.140  0.00  0.00    +0.000 HD
ENDBRANCH  15  17
ENDBRANCH   5  15
ENDBRANCH   1   7
BRANCH   1  19
ATOM     19  O   UNL     1       2.709   8.217  17.982  0.00  0.00    +0.000 OA
ATOM     20  H   UNL     1       3.090   7.868  17.144  0.00  0.00    +0.000 HD
ENDBRANCH   1  19
BRANCH   1  21
ATOM     21  C   UNL     1       1.745   7.346  20.083  0.00  0.00    +0.000 C 
BRANCH  21  22
ATOM     22  O   UNL     1       2.021   6.445  21.172  0.00  0.00    +0.000 OA
ATOM     23  H   UNL     1       2.687   6.858  21.753  0.00  0.00    +0.000 HD
ENDBRANCH  21  22
BRANCH  21  24
ATOM     24  C   UNL     1       1.578   8.766  20.673  0.00  0.00    +0.000 C 
BRANCH  24  25
ATOM     25  N   UNL     1       0.713   9.699  19.984  0.00  0.00    +0.000 N 
ATOM     26  C   UNL     1      -0.309   9.382  19.137  0.00  0.00    +0.000 A 
ATOM     27  C   UNL     1      -0.922  10.590  18.889  0.00  0.00    +0.000 A 
ATOM     28  N   UNL     1      -0.239  11.582  19.543  0.00  0.00    +0.000 NA
ATOM     29  N   UNL     1       0.811  11.032  20.144  0.00  0.00    +0.000 NA
BRANCH  27  30
ATOM     30  C   UNL     1      -2.093  10.792  18.062  0.00  0.00    +0.000 A 
ATOM     31  C   UNL     1      -2.164  10.247  16.774  0.00  0.00    +0.000 A 
ATOM     32  C   UNL     1      -3.299  10.450  15.982  0.00  0.00    +0.000 A 
ATOM     33  C   UNL     1      -4.375  11.188  16.477  0.00  0.00    +0.000 A 
ATOM     34  C   UNL     1      -4.318  11.726  17.759  0.00  0.00    +0.000 A 
ATOM     35  C   UNL     1      -3.182  11.533  18.547  0.00  0.00    +0.000 A 
ENDBRANCH  27  30
ENDBRANCH  24  25
ENDBRANCH  21  24
ENDBRANCH   1  21
TORSDOF 11
ENDMDL
MODEL 3
REMARK VINA RESULT:      -7.6      2.690      7.602
REMARK  Name = 
REMARK  12 active torsions:
REMARK  status: ('A' for Active; 'I' for Inactive)
REMARK    1  A    between atoms: C_1  and  C_2
REMARK    2  A    between atoms: N_4  and  C_5
REMARK    3  A    between atoms: C_6  and  O_7
REMARK    4  A    between atoms: C_9  and  C_10
REMARK    5  A    between atoms: C_10  and  O_12
REMARK    6  A    between atoms: C_14  and  C_15
REMARK    7  A    between atoms: C_15  and  O_16
REMARK    8  A    between atoms: C_15  and  C_17
REMARK    9  A    between atoms: C_17  and  O_18
REMARK   10  A    between atoms: C_17  and  C_19
REMARK   11  A    between atoms: C_19  and  N_20
REMARK   12  A    between atoms: C_22  and  C_23
REMARK                            x       y       z     vdW  Elec       q    Type
REMARK                         _______ _______ _______ _____ _____    ______ ____
ROOT
ATOM      1  C   UNL     1       5.441   6.144  17.841  0.00  0.00    +0.000 C 
ENDROOT
BRANCH   1   7
ATOM      2  C   UNL     1       2.995   5.383  17.984  0.00  0.00    +0.000 C 
ATOM      3  C   UNL     1       2.002   4.431  18.680  0.00  0.00    +0.000 C 
ATOM      4  C   UNL     1       2.667   3.212  19.192  0.00  0.00    +0.000 C 
ATOM      5  C   UNL     1       3.995   3.128  19.369  0.00  0.00    +0.000 C 
ATOM      6  O   UNL     1       4.883   4.154  19.107  0.00  0.00    +0.000 OA
ATOM      7  C   UNL     1       4.356   5.454  18.737  0.00  0.00    +0.000 C 
BRANCH   2  11
ATOM      8  C   UNL     1       1.575   8.910  18.221  0.00  0.00    +0.000 C 
ATOM      9  C   UNL     1       2.094   7.594  18.731  0.00  0.00    +0.000 C 
ATOM     10  O   UNL     1       2.274   7.364  19.921  0.00  0.00    +0.000 OA
ATOM     11  N   UNL     1       2.382   6.696  17.731  0.00  0.00    +0.000 N 
ATOM     12  H   UNL     1       2.510   7.071  16.797  0.00  0.00    +0.000 HD
ENDBRANCH   2  11
BRANCH   3  13
ATOM     13  O   UNL     1       0.996   4.020  17.748  0.00  0.00    +0.000 OA
ATOM     14  H   UNL     1       0.552   4.816  17.408  0.00  0.00    +0.000 HD
ENDBRANCH   3  13
BRANCH   5  15
ATOM     15  C   UNL     1       4.541   1.844  19.898  0.00  0.00    +0.000 C 
ATOM     16  O   UNL     1       5.008   1.687  21.015  0.00  0.00    +0.000 OA
BRANCH  15  17
ATOM     17  O   UNL     1       4.450   0.865  18.971  0.00  0.00    +0.000 OA
ATOM     18  H   UNL     1       5.150   0.189  19.101  0.00  0.00    +0.000 HD
ENDBRANCH  15  17
ENDBRANCH   5  15
ENDBRANCH   1   7
BRANCH   1  19
ATOM     19  O   UNL     1       5.215   7.546  17.735  0.00  0.00    +0.000 OA
ATOM     20  H   UNL     1       5.777   8.011  18.396  0.00  0.00    +0.000 HD
ENDBRANCH   1  19
BRANCH   1  21
ATOM     21  C   UNL     1       6.906   5.822  18.258  0.00  0.00    +0.000 C 
BRANCH  21  22
ATOM     22  O   UNL     1       6.955   5.463  19.651  0.00  0.00    +0.000 OA
ATOM     23  H   UNL     1       6.823   4.500  19.727  0.00  0.00    +0.000 HD
ENDBRANCH  21  22
BRANCH  21  24
ATOM     24  C   UNL     1       7.553   4.674  17.449  0.00  0.00    +0.000 C 
BRANCH  24  25
ATOM     25  N   UNL     1       7.332   4.630  16.021  0.00  0.00    +0.000 N 
ATOM     26  C   UNL     1       6.627   3.680  15.339  0.00  0.00    +0.000 A 
ATOM     27  C   UNL     1       6.561   4.173  14.054  0.00  0.00    +0.000 A 
ATOM     28  N   UNL     1       7.251   5.355  13.992  0.00  0.00    +0.000 NA
ATOM     29  N   UNL     1       7.789   5.582  15.186  0.00  0.00    +0.000 NA
BRANCH  27  30
ATOM     30  C   UNL     1       5.884   3.545  12.939  0.00  0.00    +0.000 A 
ATOM     31  C   UNL     1       6.471   2.472  12.257  0.00  0.00    +0.000 A 
ATOM     32  C   UNL     1       5.810   1.873  11.179  0.00  0.00    +0.000 A 
ATOM     33  C   UNL     1       4.554   2.335  10.784  0.00  0.00    +0.000 A 
ATOM     34  C   UNL     1       3.959   3.396  11.461  0.00  0.00    +0.000 A 
ATOM     35  C   UNL     1       4.622   4.000  12.531  0.00  0.00    +0.000 A 
ENDBRANCH  27  30
ENDBRANCH  24  25
ENDBRANCH  21  24
ENDBRANCH   1  21
TORSDOF 11
ENDMDL
MODEL 4
REMARK VINA RESULT:      -7.5      2.144      3.327
REMARK  Name = 
REMARK  12 active torsions:
REMARK  status: ('A' for Active; 'I' for Inactive)
REMARK    1  A    between atoms: C_1  and  C_2
REMARK    2  A    between atoms: N_4  and  C_5
REMARK    3  A    between atoms: C_6  and  O_7
REMARK    4  A    between atoms: C_9  and  C_10
REMARK    5  A    between atoms: C_10  and  O_12
REMARK    6  A    between atoms: C_14  and  C_15
REMARK    7  A    between atoms: C_15  and  O_16
REMARK    8  A    between atoms: C_15  and  C_17
REMARK    9  A    between atoms: C_17  and  O_18
REMARK   10  A    between atoms: C_17  and  C_19
REMARK   11  A    between atoms: C_19  and  N_20
REMARK   12  A    between atoms: C_22  and  C_23
REMARK                            x       y       z     vdW  Elec       q    Type
REMARK                         _______ _______ _______ _____ _____    ______ ____
ROOT
ATOM      1  C   UNL     1       2.752   7.163  18.979  0.00  0.00    +0.000 C 
ENDROOT
BRANCH   1   7
ATOM      2  C   UNL     1       4.305   5.142  18.687  0.00  0.00    +0.000 C 
ATOM      3  C   UNL     1       4.384   3.643  18.337  0.00  0.00    +0.000 C 
ATOM      4  C   UNL     1       3.118   2.936  18.635  0.00  0.00    +0.000 C 
ATOM      5  C   UNL     1       1.952   3.577  18.818  0.00  0.00    +0.000 C 
ATOM      6  O   UNL     1       1.796   4.948  18.741  0.00  0.00    +0.000 OA
ATOM      7  C   UNL     1       2.923   5.754  18.313  0.00  0.00    +0.000 C 
BRANCH   2  11
ATOM      8  C   UNL     1       7.729   6.641  17.951  0.00  0.00    +0.000 C 
ATOM      9  C   UNL     1       6.680   5.926  18.757  0.00  0.00    +0.000 C 
ATOM     10  O   UNL     1       6.909   5.412  19.845  0.00  0.00    +0.000 OA
ATOM     11  N   UNL     1       5.455   5.876  18.135  0.00  0.00    +0.000 N 
ATOM     12  H   UNL     1       5.439   6.033  17.133  0.00  0.00    +0.000 HD
ENDBRANCH   2  11
BRANCH   3  13
ATOM     13  O   UNL     1       5.421   3.023  19.104  0.00  0.00    +0.000 OA
ATOM     14  H   UNL     1       6.277   3.355  18.785  0.00  0.00    +0.000 HD
ENDBRANCH   3  13
BRANCH   5  15
ATOM     15  C   UNL     1       0.747   2.747  19.107  0.00  0.00    +0.000 C 
ATOM     16  O   UNL     1       0.241   1.950  18.332  0.00  0.00    +0.000 OA
BRANCH  15  17
ATOM     17  O   UNL     1       0.280   2.993  20.351  0.00  0.00    +0.000 OA
ATOM     18  H   UNL     1       0.447   3.924  20.613  0.00  0.00    +0.000 HD
ENDBRANCH  15  17
ENDBRANCH   5  15
ENDBRANCH   1   7
BRANCH   1  19
ATOM     19  O   UNL     1       2.383   8.152  18.024  0.00  0.00    +0.000 OA
ATOM     20  H   UNL     1       1.584   7.845  17.538  0.00  0.00    +0.000 HD
ENDBRANCH   1  19
BRANCH   1  21
ATOM     21  C   UNL     1       1.803   7.167  20.214  0.00  0.00    +0.000 C 
BRANCH  21  22
ATOM     22  O   UNL     1       2.174   6.117  21.126  0.00  0.00    +0.000 OA
ATOM     23  H   UNL     1       1.438   5.479  21.178  0.00  0.00    +0.000 HD
ENDBRANCH  21  22
BRANCH  21  24
ATOM     24  C   UNL     1       1.799   8.499  21.001  0.00  0.00    +0.000 C 
BRANCH  24  25
ATOM     25  N   UNL     1       0.709   9.423  20.782  0.00  0.00    +0.000 N 
ATOM     26  C   UNL     1       0.002  10.085  21.745  0.00  0.00    +0.000 A 
ATOM     27  C   UNL     1      -0.791  10.958  21.033  0.00  0.00    +0.000 A 
ATOM     28  N   UNL     1      -0.577  10.769  19.693  0.00  0.00    +0.000 NA
ATOM     29  N   UNL     1       0.285   9.766  19.551  0.00  0.00    +0.000 NA
BRANCH  27  30
ATOM     30  C   UNL     1      -1.715  11.918  21.600  0.00  0.00    +0.000 A 
ATOM     31  C   UNL     1      -2.095  11.837  22.946  0.00  0.00    +0.000 A 
ATOM     32  C   UNL     1      -2.991  12.768  23.484  0.00  0.00    +0.000 A 
ATOM     33  C   UNL     1      -3.501  13.792  22.685  0.00  0.00    +0.000 A 
ATOM     34  C   UNL     1      -3.122  13.885  21.349  0.00  0.00    +0.000 A 
ATOM     35  C   UNL     1      -2.236  12.951  20.808  0.00  0.00    +0.000 A 
ENDBRANCH  27  30
ENDBRANCH  24  25
ENDBRANCH  21  24
ENDBRANCH   1  21
TORSDOF 11
ENDMDL
MODEL 5
REMARK VINA RESULT:      -7.5      2.607      3.287
REMARK  Name = 
REMARK  12 active torsions:
REMARK  status: ('A' for Active; 'I' for Inactive)
REMARK    1  A    between atoms: C_1  and  C_2
REMARK    2  A    between atoms: N_4  and  C_5
REMARK    3  A    between atoms: C_6  and  O_7
REMARK    4  A    between atoms: C_9  and  C_10
REMARK    5  A    between atoms: C_10  and  O_12
REMARK    6  A    between atoms: C_14  and  C_15
REMARK    7  A    between atoms: C_15  and  O_16
REMARK    8  A    between atoms: C_15  and  C_17
REMARK    9  A    between atoms: C_17  and  O_18
REMARK   10  A    between atoms: C_17  and  C_19
REMARK   11  A    between atoms: C_19  and  N_20
REMARK   12  A    between atoms: C_22  and  C_23
REMARK                            x       y       z     vdW  Elec       q    Type
REMARK                         _______ _______ _______ _____ _____    ______ ____
ROOT
ATOM      1  C   UNL     1       3.830   6.206  18.084  0.00  0.00    +0.000 C 
ENDROOT
BRANCH   1   7
ATOM      2  C   UNL     1       4.766   3.908  18.739  0.00  0.00    +0.000 C 
ATOM      3  C   UNL     1       4.453   2.406  18.885  0.00  0.00    +0.000 C 
ATOM      4  C   UNL     1       3.012   2.159  19.123  0.00  0.00    +0.000 C 
ATOM      5  C   UNL     1       2.065   3.075  18.864  0.00  0.00    +0.000 C 
ATOM      6  O   UNL     1       2.316   4.330  18.344  0.00  0.00    +0.000 OA
ATOM      7  C   UNL     1       3.667   4.654  17.927  0.00  0.00    +0.000 C 
BRANCH   2  11
ATOM      8  C   UNL     1       8.427   4.839  18.252  0.00  0.00    +0.000 C 
ATOM      9  C   UNL     1       7.074   4.858  18.907  0.00  0.00    +0.000 C 
ATOM     10  O   UNL     1       6.849   5.449  19.957  0.00  0.00    +0.000 OA
ATOM     11  N   UNL     1       6.131   4.118  18.233  0.00  0.00    +0.000 N 
ATOM     12  H   UNL     1       6.472   3.422  17.579  0.00  0.00    +0.000 HD
ENDBRANCH   2  11
BRANCH   3  13
ATOM     13  O   UNL     1       5.177   1.869  19.997  0.00  0.00    +0.000 OA
ATOM     14  H   UNL     1       4.839   2.281  20.810  0.00  0.00    +0.000 HD
ENDBRANCH   3  13
BRANCH   5  15
ATOM     15  C   UNL     1       0.649   2.699  19.143  0.00  0.00    +0.000 C 
ATOM     16  O   UNL     1      -0.052   2.014  18.414  0.00  0.00    +0.000 OA
BRANCH  15  17
ATOM     17  O   UNL     1       0.235   3.221  20.319  0.00  0.00    +0.000 OA
ATOM     18  H   UNL     1       0.889   3.050  21.030  0.00  0.00    +0.000 HD
ENDBRANCH  15  17
ENDBRANCH   5  15
ENDBRANCH   1   7
BRANCH   1  19
ATOM     19  O   UNL     1       4.373   6.796  16.908  0.00  0.00    +0.000 OA
ATOM     20  H   UNL     1       4.770   7.666  17.142  0.00  0.00    +0.000 HD
ENDBRANCH   1  19
BRANCH   1  21
ATOM     21  C   UNL     1       2.536   6.933  18.555  0.00  0.00    +0.000 C 
BRANCH  21  22
ATOM     22  O   UNL     1       2.400   6.823  19.984  0.00  0.00    +0.000 OA
ATOM     23  H   UNL     1       2.726   5.946  20.259  0.00  0.00    +0.000 HD
ENDBRANCH  21  22
BRANCH  21  24
ATOM     24  C   UNL     1       2.489   8.435  18.188  0.00  0.00    +0.000 C 
BRANCH  24  25
ATOM     25  N   UNL     1       1.327   9.202  18.578  0.00  0.00    +0.000 N 
ATOM     26  C   UNL     1       0.279   9.549  17.775  0.00  0.00    +0.000 A 
ATOM     27  C   UNL     1      -0.632  10.110  18.642  0.00  0.00    +0.000 A 
ATOM     28  N   UNL     1      -0.100  10.125  19.904  0.00  0.00    +0.000 NA
ATOM     29  N   UNL     1       1.136   9.640  19.836  0.00  0.00    +0.000 NA
BRANCH  27  30
ATOM     30  C   UNL     1      -1.941  10.617  18.285  0.00  0.00    +0.000 A 
ATOM     31  C   UNL     1      -2.557  11.614  19.052  0.00  0.00    +0.000 A 
ATOM     32  C   UNL     1      -3.823  12.095  18.700  0.00  0.00    +0.000 A 
ATOM     33  C   UNL     1      -4.475  11.592  17.575  0.00  0.00    +0.000 A 
ATOM     34  C   UNL     1      -3.867  10.606  16.802  0.00  0.00    +0.000 A 
ATOM     35  C   UNL     1      -2.609  10.119  17.157  0.00  0.00    +0.000 A 
ENDBRANCH  27  30
ENDBRANCH  24  25
ENDBRANCH  21  24
ENDBRANCH   1  21
TORSDOF 11
ENDMDL
MODEL 6
REMARK VINA RESULT:      -7.5      2.979      5.141
REMARK  Name = 
REMARK  12 active torsions:
REMARK  status: ('A' for Active; 'I' for Inactive)
REMARK    1  A    between atoms: C_1  and  C_2
REMARK    2  A    between atoms: N_4  and  C_5
REMARK    3  A    between atoms: C_6  and  O_7
REMARK    4  A    between atoms: C_9  and  C_10
REMARK    5  A    between atoms: C_10  and  O_12
REMARK    6  A    between atoms: C_14  and  C_15
REMARK    7  A    between atoms: C_15  and  O_16
REMARK    8  A    between atoms: C_15  and  C_17
REMARK    9  A    between atoms: C_17  and  O_18
REMARK   10  A    between atoms: C_17  and  C_19
REMARK   11  A    between atoms: C_19  and  N_20
REMARK   12  A    between atoms: C_22  and  C_23
REMARK                            x       y       z     vdW  Elec       q    Type
REMARK                         _______ _______ _______ _____ _____    ______ ____
ROOT
ATOM      1  C   UNL     1       2.533   6.585  18.148  0.00  0.00    +0.000 C 
ENDROOT
BRANCH   1   7
ATOM      2  C   UNL     1       3.922   4.646  19.094  0.00  0.00    +0.000 C 
ATOM      3  C   UNL     1       5.344   4.090  19.307  0.00  0.00    +0.000 C 
ATOM      4  C   UNL     1       6.298   4.604  18.298  0.00  0.00    +0.000 C 
ATOM      5  C   UNL     1       6.050   5.690  17.549  0.00  0.00    +0.000 C 
ATOM      6  O   UNL     1       4.899   6.450  17.635  0.00  0.00    +0.000 OA
ATOM      7  C   UNL     1       3.941   6.148  18.682  0.00  0.00    +0.000 C 
BRANCH   2  11
ATOM      8  C   UNL     1       1.426   3.176  21.567  0.00  0.00    +0.000 C 
ATOM      9  C   UNL     1       2.104   3.364  20.239  0.00  0.00    +0.000 C 
ATOM     10  O   UNL     1       1.850   2.677  19.256  0.00  0.00    +0.000 OA
ATOM     11  N   UNL     1       3.060   4.352  20.249  0.00  0.00    +0.000 N 
ATOM     12  H   UNL     1       3.422   4.635  21.154  0.00  0.00    +0.000 HD
ENDBRANCH   2  11
BRANCH   3  13
ATOM     13  O   UNL     1       5.323   2.663  19.201  0.00  0.00    +0.000 OA
ATOM     14  H   UNL     1       4.980   2.426  18.322  0.00  0.00    +0.000 HD
ENDBRANCH   3  13
BRANCH   5  15
ATOM     15  C   UNL     1       7.097   6.108  16.573  0.00  0.00    +0.000 C 
ATOM     16  O   UNL     1       7.355   5.529  15.529  0.00  0.00    +0.000 OA
BRANCH  15  17
ATOM     17  O   UNL     1       7.733   7.223  16.997  0.00  0.00    +0.000 OA
ATOM     18  H   UNL     1       7.144   8.006  16.948  0.00  0.00    +0.000 HD
ENDBRANCH  15  17
ENDBRANCH   5  15
ENDBRANCH   1   7
BRANCH   1  19
ATOM     19  O   UNL     1       1.752   5.462  17.753  0.00  0.00    +0.000 OA
ATOM     20  H   UNL     1       0.878   5.779  17.430  0.00  0.00    +0.000 HD
ENDBRANCH   1  19
BRANCH   1  21
ATOM     21  C   UNL     1       1.753   7.523  19.116  0.00  0.00    +0.000 C 
BRANCH  21  22
ATOM     22  O   UNL     1       2.291   7.417  20.447  0.00  0.00    +0.000 OA
ATOM     23  H   UNL     1       1.965   6.589  20.847  0.00  0.00    +0.000 HD
ENDBRANCH  21  22
BRANCH  21  24
ATOM     24  C   UNL     1       1.784   9.014  18.709  0.00  0.00    +0.000 C 
BRANCH  24  25
ATOM     25  N   UNL     1       0.582   9.799  18.883  0.00  0.00    +0.000 N 
ATOM     26  C   UNL     1      -0.405   9.985  17.958  0.00  0.00    +0.000 A 
ATOM     27  C   UNL     1      -1.391  10.650  18.653  0.00  0.00    +0.000 A 
ATOM     28  N   UNL     1      -0.960  10.879  19.934  0.00  0.00    +0.000 NA
ATOM     29  N   UNL     1       0.285  10.426  20.037  0.00  0.00    +0.000 NA
BRANCH  27  30
ATOM     30  C   UNL     1      -2.676  11.055  18.123  0.00  0.00    +0.000 A 
ATOM     31  C   UNL     1      -3.587  11.764  18.917  0.00  0.00    +0.000 A 
ATOM     32  C   UNL     1      -4.827  12.150  18.396  0.00  0.00    +0.000 A 
ATOM     33  C   UNL     1      -5.159  11.840  17.076  0.00  0.00    +0.000 A 
ATOM     34  C   UNL     1      -4.257  11.143  16.278  0.00  0.00    +0.000 A 
ATOM     35  C   UNL     1      -3.023  10.749  16.799  0.00  0.00    +0.000 A 
ENDBRANCH  27  30
ENDBRANCH  24  25
ENDBRANCH  21  24
ENDBRANCH   1  21
TORSDOF 11
ENDMDL
MODEL 7
REMARK VINA RESULT:      -7.5      0.998      1.344
REMARK  Name = 
REMARK  12 active torsions:
REMARK  status: ('A' for Active; 'I' for Inactive)
REMARK    1  A    between atoms: C_1  and  C_2
REMARK    2  A    between atoms: N_4  and  C_5
REMARK    3  A    between atoms: C_6  and  O_7
REMARK    4  A    between atoms: C_9  and  C_10
REMARK    5  A    between atoms: C_10  and  O_12
REMARK    6  A    between atoms: C_14  and  C_15
REMARK    7  A    between atoms: C_15  and  O_16
REMARK    8  A    between atoms: C_15  and  C_17
REMARK    9  A    between atoms: C_17  and  O_18
REMARK   10  A    between atoms: C_17  and  C_19
REMARK   11  A    between atoms: C_19  and  N_20
REMARK   12  A    between atoms: C_22  and  C_23
REMARK                            x       y       z     vdW  Elec       q    Type
REMARK                         _______ _______ _______ _____ _____    ______ ____
ROOT
ATOM      1  C   UNL     1       4.413   6.049  18.662  0.00  0.00    +0.000 C 
ENDROOT
BRANCH   1   7
ATOM      2  C   UNL     1       4.166   3.684  17.697  0.00  0.00    +0.000 C 
ATOM      3  C   UNL     1       3.381   2.360  17.771  0.00  0.00    +0.000 C 
ATOM      4  C   UNL     1       2.787   2.141  19.110  0.00  0.00    +0.000 C 
ATOM      5  C   UNL     1       2.629   3.128  20.006  0.00  0.00    +0.000 C 
ATOM      6  O   UNL     1       2.986   4.444  19.787  0.00  0.00    +0.000 OA
ATOM      7  C   UNL     1       3.446   4.831  18.467  0.00  0.00    +0.000 C 
BRANCH   2  11
ATOM      8  C   UNL     1       5.905   4.345  14.374  0.00  0.00    +0.000 C 
ATOM      9  C   UNL     1       5.805   4.099  15.853  0.00  0.00    +0.000 C 
ATOM     10  O   UNL     1       6.786   3.950  16.574  0.00  0.00    +0.000 OA
ATOM     11  N   UNL     1       4.510   4.019  16.307  0.00  0.00    +0.000 N 
ATOM     12  H   UNL     1       3.790   3.833  15.616  0.00  0.00    +0.000 HD
ENDBRANCH   2  11
BRANCH   3  13
ATOM     13  O   UNL     1       4.259   1.263  17.498  0.00  0.00    +0.000 OA
ATOM     14  H   UNL     1       5.088   1.619  17.136  0.00  0.00    +0.000 HD
ENDBRANCH   3  13
BRANCH   5  15
ATOM     15  C   UNL     1       2.011   2.775  21.318  0.00  0.00    +0.000 C 
ATOM     16  O   UNL     1       2.629   2.475  22.327  0.00  0.00    +0.000 OA
BRANCH  15  17
ATOM     17  O   UNL     1       0.663   2.831  21.244  0.00  0.00    +0.000 OA
ATOM     18  H   UNL     1       0.372   3.294  20.430  0.00  0.00    +0.000 HD
ENDBRANCH  15  17
ENDBRANCH   5  15
ENDBRANCH   1   7
BRANCH   1  19
ATOM     19  O   UNL     1       5.776   5.661  18.520  0.00  0.00    +0.000 OA
ATOM     20  H   UNL     1       5.934   4.847  19.050  0.00  0.00    +0.000 HD
ENDBRANCH   1  19
BRANCH   1  21
ATOM     21  C   UNL     1       4.066   7.282  17.777  0.00  0.00    +0.000 C 
BRANCH  21  22
ATOM     22  O   UNL     1       4.538   7.074  16.433  0.00  0.00    +0.000 OA
ATOM     23  H   UNL     1       5.298   6.462  16.464  0.00  0.00    +0.000 HD
ENDBRANCH  21  22
BRANCH  21  24
ATOM     24  C   UNL     1       2.554   7.599  17.705  0.00  0.00    +0.000 C 
BRANCH  24  25
ATOM     25  N   UNL     1       1.932   8.240  18.842  0.00  0.00    +0.000 N 
ATOM     26  C   UNL     1       1.255   9.427  18.834  0.00  0.00    +0.000 A 
ATOM     27  C   UNL     1       0.717   9.511  20.099  0.00  0.00    +0.000 A 
ATOM     28  N   UNL     1       1.112   8.420  20.828  0.00  0.00    +0.000 NA
ATOM     29  N   UNL     1       1.926   7.691  20.071  0.00  0.00    +0.000 NA
BRANCH  27  30
ATOM     30  C   UNL     1      -0.125  10.581  20.592  0.00  0.00    +0.000 A 
ATOM     31  C   UNL     1      -1.035  11.225  19.744  0.00  0.00    +0.000 A 
ATOM     32  C   UNL     1      -1.842  12.259  20.230  0.00  0.00    +0.000 A 
ATOM     33  C   UNL     1      -1.754  12.648  21.567  0.00  0.00    +0.000 A 
ATOM     34  C   UNL     1      -0.859  12.007  22.419  0.00  0.00    +0.000 A 
ATOM     35  C   UNL     1      -0.046  10.982  21.934  0.00  0.00    +0.000 A 
ENDBRANCH  27  30
ENDBRANCH  24  25
ENDBRANCH  21  24
ENDBRANCH   1  21
TORSDOF 11
ENDMDL
MODEL 8
REMARK VINA RESULT:      -7.5      2.722      3.346
REMARK  Name = 
REMARK  12 active torsions:
REMARK  status: ('A' for Active; 'I' for Inactive)
REMARK    1  A    between atoms: C_1  and  C_2
REMARK    2  A    between atoms: N_4  and  C_5
REMARK    3  A    between atoms: C_6  and  O_7
REMARK    4  A    between atoms: C_9  and  C_10
REMARK    5  A    between atoms: C_10  and  O_12
REMARK    6  A    between atoms: C_14  and  C_15
REMARK    7  A    between atoms: C_15  and  O_16
REMARK    8  A    between atoms: C_15  and  C_17
REMARK    9  A    between atoms: C_17  and  O_18
REMARK   10  A    between atoms: C_17  and  C_19
REMARK   11  A    between atoms: C_19  and  N_20
REMARK   12  A    between atoms: C_22  and  C_23
REMARK                            x       y       z     vdW  Elec       q    Type
REMARK                         _______ _______ _______ _____ _____    ______ ____
ROOT
ATOM      1  C   UNL     1       3.362   6.607  18.463  0.00  0.00    +0.000 C 
ENDROOT
BRANCH   1   7
ATOM      2  C   UNL     1       4.472   4.295  18.536  0.00  0.00    +0.000 C 
ATOM      3  C   UNL     1       4.251   2.788  18.775  0.00  0.00    +0.000 C 
ATOM      4  C   UNL     1       3.093   2.531  19.662  0.00  0.00    +0.000 C 
ATOM      5  C   UNL     1       2.147   3.451  19.908  0.00  0.00    +0.000 C 
ATOM      6  O   UNL     1       2.133   4.721  19.363  0.00  0.00    +0.000 OA
ATOM      7  C   UNL     1       3.127   5.060  18.362  0.00  0.00    +0.000 C 
BRANCH   2  11
ATOM      8  C   UNL     1       7.582   4.767  16.388  0.00  0.00    +0.000 C 
ATOM      9  C   UNL     1       6.788   4.654  17.659  0.00  0.00    +0.000 C 
ATOM     10  O   UNL     1       7.304   4.645  18.771  0.00  0.00    +0.000 OA
ATOM     11  N   UNL     1       5.436   4.522  17.448  0.00  0.00    +0.000 N 
ATOM     12  H   UNL     1       5.140   4.219  16.525  0.00  0.00    +0.000 HD
ENDBRANCH   2  11
BRANCH   3  13
ATOM     13  O   UNL     1       5.410   2.223  19.395  0.00  0.00    +0.000 OA
ATOM     14  H   UNL     1       5.211   1.301  19.631  0.00  0.00    +0.000 HD
ENDBRANCH   3  13
BRANCH   5  15
ATOM     15  C   UNL     1       1.029   3.063  20.816  0.00  0.00    +0.000 C 
ATOM     16  O   UNL     1       1.132   2.884  22.020  0.00  0.00    +0.000 OA
BRANCH  15  17
ATOM     17  O   UNL     1      -0.127   2.934  20.128  0.00  0.00    +0.000 OA
ATOM     18  H   UNL     1      -0.888   3.271  20.648  0.00  0.00    +0.000 HD
ENDBRANCH  15  17
ENDBRANCH   5  15
ENDBRANCH   1   7
BRANCH   1  19
ATOM     19  O   UNL     1       3.850   7.142  17.237  0.00  0.00    +0.000 OA
ATOM     20  H   UNL     1       3.290   6.809  16.498  0.00  0.00    +0.000 HD
ENDBRANCH   1  19
BRANCH   1  21
ATOM     21  C   UNL     1       2.133   7.400  18.994  0.00  0.00    +0.000 C 
BRANCH  21  22
ATOM     22  O   UNL     1       2.168   7.461  20.432  0.00  0.00    +0.000 OA
ATOM     23  H   UNL     1       2.502   8.339  20.696  0.00  0.00    +0.000 HD
ENDBRANCH  21  22
BRANCH  21  24
ATOM     24  C   UNL     1       2.039   8.848  18.460  0.00  0.00    +0.000 C 
BRANCH  24  25
ATOM     25  N   UNL     1       0.816   9.586  18.684  0.00  0.00    +0.000 N 
ATOM     26  C   UNL     1      -0.157   9.843  17.760  0.00  0.00    +0.000 A 
ATOM     27  C   UNL     1      -1.172  10.413  18.497  0.00  0.00    +0.000 A 
ATOM     28  N   UNL     1      -0.773  10.520  19.803  0.00  0.00    +0.000 NA
ATOM     29  N   UNL     1       0.480  10.085  19.889  0.00  0.00    +0.000 NA
BRANCH  27  30
ATOM     30  C   UNL     1      -2.455  10.842  17.981  0.00  0.00    +0.000 A 
ATOM     31  C   UNL     1      -3.341  11.573  18.782  0.00  0.00    +0.000 A 
ATOM     32  C   UNL     1      -4.579  11.982  18.275  0.00  0.00    +0.000 A 
ATOM     33  C   UNL     1      -4.934  11.674  16.961  0.00  0.00    +0.000 A 
ATOM     34  C   UNL     1      -4.056  10.956  16.154  0.00  0.00    +0.000 A 
ATOM     35  C   UNL     1      -2.824  10.539  16.662  0.00  0.00    +0.000 A 
ENDBRANCH  27  30
ENDBRANCH  24  25
ENDBRANCH  21  24
ENDBRANCH   1  21
TORSDOF 11
ENDMDL
MODEL 9
REMARK VINA RESULT:      -7.4      1.112      1.644
REMARK  Name = 
REMARK  12 active torsions:
REMARK  status: ('A' for Active; 'I' for Inactive)
REMARK    1  A    between atoms: C_1  and  C_2
REMARK    2  A    between atoms: N_4  and  C_5
REMARK    3  A    between atoms: C_6  and  O_7
REMARK    4  A    between atoms: C_9  and  C_10
REMARK    5  A    between atoms: C_10  and  O_12
REMARK    6  A    between atoms: C_14  and  C_15
REMARK    7  A    between atoms: C_15  and  O_16
REMARK    8  A    between atoms: C_15  and  C_17
REMARK    9  A    between atoms: C_17  and  O_18
REMARK   10  A    between atoms: C_17  and  C_19
REMARK   11  A    between atoms: C_19  and  N_20
REMARK   12  A    between atoms: C_22  and  C_23
REMARK                            x       y       z     vdW  Elec       q    Type
REMARK                         _______ _______ _______ _____ _____    ______ ____
ROOT
ATOM      1  C   UNL     1       4.572   5.973  18.740  0.00  0.00    +0.000 C 
ENDROOT
BRANCH   1   7
ATOM      2  C   UNL     1       4.254   3.632  17.740  0.00  0.00    +0.000 C 
ATOM      3  C   UNL     1       3.414   2.340  17.778  0.00  0.00    +0.000 C 
ATOM      4  C   UNL     1       2.779   2.130  19.099  0.00  0.00    +0.000 C 
ATOM      5  C   UNL     1       2.639   3.112  20.004  0.00  0.00    +0.000 C 
ATOM      6  O   UNL     1       3.055   4.415  19.810  0.00  0.00    +0.000 OA
ATOM      7  C   UNL     1       3.561   4.798  18.506  0.00  0.00    +0.000 C 
BRANCH   2  11
ATOM      8  C   UNL     1       6.108   4.320  14.484  0.00  0.00    +0.000 C 
ATOM      9  C   UNL     1       5.954   4.078  15.960  0.00  0.00    +0.000 C 
ATOM     10  O   UNL     1       6.909   3.957  16.720  0.00  0.00    +0.000 OA
ATOM     11  N   UNL     1       4.644   3.969  16.362  0.00  0.00    +0.000 N 
ATOM     12  H   UNL     1       3.957   3.762  15.645  0.00  0.00    +0.000 HD
ENDBRANCH   2  11
BRANCH   3  13
ATOM     13  O   UNL     1       4.253   1.212  17.513  0.00  0.00    +0.000 OA
ATOM     14  H   UNL     1       3.816   0.417  17.862  0.00  0.00    +0.000 HD
ENDBRANCH   3  13
BRANCH   5  15
ATOM     15  C   UNL     1       1.976   2.770  21.296  0.00  0.00    +0.000 C 
ATOM     16  O   UNL     1       2.558   2.521  22.340  0.00  0.00    +0.000 OA
BRANCH  15  17
ATOM     17  O   UNL     1       0.631   2.769  21.160  0.00  0.00    +0.000 OA
ATOM     18  H   UNL     1       0.285   3.682  21.069  0.00  0.00    +0.000 HD
ENDBRANCH  15  17
ENDBRANCH   5  15
ENDBRANCH   1   7
BRANCH   1  19
ATOM     19  O   UNL     1       5.921   5.523  18.676  0.00  0.00    +0.000 OA
ATOM     20  H   UNL     1       6.000   4.849  17.963  0.00  0.00    +0.000 HD
ENDBRANCH   1  19
BRANCH   1  21
ATOM     21  C   UNL     1       4.329   7.209  17.823  0.00  0.00    +0.000 C 
BRANCH  21  22
ATOM     22  O   UNL     1       4.989   7.022  16.557  0.00  0.00    +0.000 OA
ATOM     23  H   UNL     1       5.952   6.990  16.712  0.00  0.00    +0.000 HD
ENDBRANCH  21  22
BRANCH  21  24
ATOM     24  C   UNL     1       2.837   7.501  17.543  0.00  0.00    +0.000 C 
BRANCH  24  25
ATOM     25  N   UNL     1       2.093   8.270  18.515  0.00  0.00    +0.000 N 
ATOM     26  C   UNL     1       1.367   9.400  18.271  0.00  0.00    +0.000 A 
ATOM     27  C   UNL     1       0.720   9.644  19.462  0.00  0.00    +0.000 A 
ATOM     28  N   UNL     1       1.102   8.701  20.380  0.00  0.00    +0.000 NA
ATOM     29  N   UNL     1       2.008   7.914  19.811  0.00  0.00    +0.000 NA
BRANCH  27  30
ATOM     30  C   UNL     1      -0.208  10.726  19.717  0.00  0.00    +0.000 A 
ATOM     31  C   UNL     1      -0.085  11.519  20.865  0.00  0.00    +0.000 A 
ATOM     32  C   UNL     1      -0.988  12.561  21.103  0.00  0.00    +0.000 A 
ATOM     33  C   UNL     1      -2.011  12.824  20.191  0.00  0.00    +0.000 A 
ATOM     34  C   UNL     1      -2.135  12.046  19.044  0.00  0.00    +0.000 A 
ATOM     35  C   UNL     1      -1.241  11.000  18.809  0.00  0.00    +0.000 A 
ENDBRANCH  27  30
ENDBRANCH  24  25
ENDBRANCH  21  24
ENDBRANCH   1  21
TORSDOF 11
ENDMDL
