MODEL 1
REMARK VINA RESULT:      -7.4      0.000      0.000
REMARK  Name = 
REMARK  6 active torsions:
REMARK  status: ('A' for Active; 'I' for Inactive)
REMARK    1  A    between atoms: C5M_1  and  C5_2
REMARK    2  A    between atoms: N1_4  and  C1*_5
REMARK    3  A    between atoms: C4*_7  and  C5*_8
REMARK    4  A    between atoms: C5*_8  and  O5*_9
REMARK    5  A    between atoms: C3*_10  and  O3*_11
REMARK    6  A    between atoms: C2*_12  and  O2*_13
REMARK                            x       y       z     vdW  Elec       q    Type
REMARK                         _______ _______ _______ _____ _____    ______ ____
ROOT
ATOM      1  C1*   T A   1       4.398   3.969  19.404  0.00  0.00    +0.000 C 
ATOM      2  O4*   T A   1       3.918   2.613  19.249  0.00  0.00    +0.000 OA
ATOM      3  C4*   T A   1       2.497   2.585  19.549  0.00  0.00    +0.000 C 
ATOM      4  C3*   T A   1       2.128   3.968  20.078  0.00  0.00    +0.000 C 
ATOM      5  C2*   T A   1       3.153   4.872  19.417  0.00  0.00    +0.000 C 
ENDROOT
BRANCH   1   9
ATOM      6  C5M   T A   1       5.448   4.269  14.556  0.00  0.00    +0.000 C 
ATOM      7  C5    T A   1       5.770   4.500  15.994  0.00  0.00    +0.000 A 
ATOM      8  C6    T A   1       5.024   4.051  17.011  0.00  0.00    +0.000 A 
ATOM      9  N1    T A   1       5.331   4.313  18.332  0.00  0.00    +0.000 N 
ATOM     10  C2    T A   1       6.454   5.045  18.687  0.00  0.00    +0.000 A 
ATOM     11  O2    T A   1       6.771   5.315  19.843  0.00  0.00    +0.000 OA
ATOM     12  N3    T A   1       7.237   5.472  17.646  0.00  0.00    +0.000 N 
ATOM     13  C4    T A   1       6.973   5.303  16.318  0.00  0.00    +0.000 A 
ATOM     14  O4    T A   1       7.677   5.789  15.442  0.00  0.00    +0.000 OA
ATOM     15  H3    T A   1       8.041   6.028  17.884  0.00  0.00    +0.000 HD
ENDBRANCH   1   9
BRANCH   4  16
ATOM     16  O3*   T A   1       2.291   4.056  21.504  0.00  0.00    +0.000 OA
ATOM     17  H3*   T A   1       2.117   3.183  21.906  0.00  0.00    +0.000 HD
ENDBRANCH   4  16
BRANCH   5  18
ATOM     18  O2*   T A   1       3.310   6.092  20.129  0.00  0.00    +0.000 OA
ATOM     19  H2*   T A   1       3.954   6.632  19.625  0.00  0.00    +0.000 HD
ENDBRANCH   5  18
BRANCH   3  20
ATOM     20  C5*   T A   1       1.738   2.223  18.270  0.00  0.00    +0.000 C 
BRANCH  20  21
ATOM     21  O5*   T A   1       0.333   2.206  18.512  0.00  0.00    +0.000 OA
ATOM     22  H5*   T A   1       0.030   1.290  18.365  0.00  0.00    +0.000 HD
ENDBRANCH  20  21
ENDBRANCH   3  20
TORSDOF 5
ENDMDL
MODEL 2
REMARK VINA RESULT:      -7.3      1.612      1.742
REMARK  Name = 
REMARK  6 active torsions:
REMARK  status: ('A' for Active; 'I' for Inactive)
REMARK    1  A    between atoms: C5M_1  and  C5_2
REMARK    2  A    between atoms: N1_4  and  C1*_5
REMARK    3  A    between atoms: C4*_7  and  C5*_8
REMARK    4  A    between atoms: C5*_8  and  O5*_9
REMARK    5  A    between atoms: C3*_10  and  O3*_11
REMARK    6  A    between atoms: C2*_12  and  O2*_13
REMARK                            x       y       z     vdW  Elec       q    Type
REMARK                         _______ _______ _______ _____ _____    ______ ____
ROOT
ATOM      1  C1*   T A   1       5.063   4.698  18.459  0.00  0.00    +0.000 C 
ATOM      2  O4*   T A   1       5.127   3.369  19.026  0.00  0.00    +0.000 OA
ATOM      3  C4*   T A   1       3.804   2.997  19.494  0.00  0.00    +0.000 C 
ATOM      4  C3*   T A   1       2.921   4.234  19.357  0.00  0.00    +0.000 C 
ATOM      5  C2*   T A   1       3.573   4.996  18.217  0.00  0.00    +0.000 C 
ENDROOT
BRANCH   1   9
ATOM      6  C5M   T A   1       5.619   3.693  13.625  0.00  0.00    +0.000 C 
ATOM      7  C5    T A   1       6.056   4.331  14.900  0.00  0.00    +0.000 A 
ATOM      8  C6    T A   1       5.450   4.144  16.078  0.00  0.00    +0.000 A 
ATOM      9  N1    T A   1       5.859   4.779  17.236  0.00  0.00    +0.000 N 
ATOM     10  C2    T A   1       6.946   5.639  17.249  0.00  0.00    +0.000 A 
ATOM     11  O2    T A   1       7.347   6.237  18.244  0.00  0.00    +0.000 OA
ATOM     12  N3    T A   1       7.589   5.800  16.048  0.00  0.00    +0.000 N 
ATOM     13  C4    T A   1       7.215   5.254  14.855  0.00  0.00    +0.000 A 
ATOM     14  O4    T A   1       7.790   5.515  13.806  0.00  0.00    +0.000 OA
ATOM     15  H3    T A   1       8.364   6.442  16.033  0.00  0.00    +0.000 HD
ENDBRANCH   1   9
BRANCH   4  16
ATOM     16  O3*   T A   1       2.963   5.054  20.539  0.00  0.00    +0.000 OA
ATOM     17  H3*   T A   1       3.077   5.989  20.281  0.00  0.00    +0.000 HD
ENDBRANCH   4  16
BRANCH   5  18
ATOM     18  O2*   T A   1       3.228   6.374  18.245  0.00  0.00    +0.000 OA
ATOM     19  H2*   T A   1       3.460   6.705  19.137  0.00  0.00    +0.000 HD
ENDBRANCH   5  18
BRANCH   3  20
ATOM     20  C5*   T A   1       3.303   1.821  18.651  0.00  0.00    +0.000 C 
BRANCH  20  21
ATOM     21  O5*   T A   1       4.298   0.803  18.574  0.00  0.00    +0.000 OA
ATOM     22  H5*   T A   1       4.567   0.599  19.490  0.00  0.00    +0.000 HD
ENDBRANCH  20  21
ENDBRANCH   3  20
TORSDOF 5
ENDMDL
MODEL 3
REMARK VINA RESULT:      -7.0      1.907      5.686
REMARK  Name = 
REMARK  6 active torsions:
REMARK  status: ('A' for Active; 'I' for Inactive)
REMARK    1  A    between atoms: C5M_1  and  C5_2
REMARK    2  A    between atoms: N1_4  and  C1*_5
REMARK    3  A    between atoms: C4*_7  and  C5*_8
REMARK    4  A    between atoms: C5*_8  and  O5*_9
REMARK    5  A    between atoms: C3*_10  and  O3*_11
REMARK    6  A    between atoms: C2*_12  and  O2*_13
REMARK                            x       y       z     vdW  Elec       q    Type
REMARK                         _______ _______ _______ _____ _____    ______ ____
ROOT
ATOM      1  C1*   T A   1       5.393   4.628  17.645  0.00  0.00    +0.000 C 
ATOM      2  O4*   T A   1       6.585   4.311  18.399  0.00  0.00    +0.000 OA
ATOM      3  C4*   T A   1       7.620   5.271  18.062  0.00  0.00    +0.000 C 
ATOM      4  C3*   T A   1       7.080   6.119  16.913  0.00  0.00    +0.000 C 
ATOM      5  C2*   T A   1       5.578   6.063  17.122  0.00  0.00    +0.000 C 
ENDROOT
BRANCH   1   9
ATOM      6  C5M   T A   1       1.926   6.652  20.574  0.00  0.00    +0.000 C 
ATOM      7  C5    T A   1       2.518   5.506  19.825  0.00  0.00    +0.000 A 
ATOM      8  C6    T A   1       3.695   5.552  19.191  0.00  0.00    +0.000 A 
ATOM      9  N1    T A   1       4.199   4.482  18.477  0.00  0.00    +0.000 N 
ATOM     10  C2    T A   1       3.518   3.278  18.392  0.00  0.00    +0.000 A 
ATOM     11  O2    T A   1       3.912   2.298  17.765  0.00  0.00    +0.000 OA
ATOM     12  N3    T A   1       2.329   3.220  19.074  0.00  0.00    +0.000 N 
ATOM     13  C4    T A   1       1.740   4.246  19.753  0.00  0.00    +0.000 A 
ATOM     14  O4    T A   1       0.633   4.143  20.265  0.00  0.00    +0.000 OA
ATOM     15  H3    T A   1       1.808   2.362  19.001  0.00  0.00    +0.000 HD
ENDBRANCH   1   9
BRANCH   4  16
ATOM     16  O3*   T A   1       7.386   5.541  15.632  0.00  0.00    +0.000 OA
ATOM     17  H3*   T A   1       8.072   4.855  15.741  0.00  0.00    +0.000 HD
ENDBRANCH   4  16
BRANCH   5  18
ATOM     18  O2*   T A   1       4.871   6.357  15.925  0.00  0.00    +0.000 OA
ATOM     19  H2*   T A   1       5.506   6.241  15.188  0.00  0.00    +0.000 HD
ENDBRANCH   5  18
BRANCH   3  20
ATOM     20  C5*   T A   1       7.936   6.104  19.308  0.00  0.00    +0.000 C 
BRANCH  20  21
ATOM     21  O5*   T A   1       7.906   5.285  20.475  0.00  0.00    +0.000 OA
ATOM     22  H5*   T A   1       8.142   5.857  21.229  0.00  0.00    +0.000 HD
ENDBRANCH  20  21
ENDBRANCH   3  20
TORSDOF 5
ENDMDL
MODEL 4
REMARK VINA RESULT:      -6.9      1.402      2.673
REMARK  Name = 
REMARK  6 active torsions:
REMARK  status: ('A' for Active; 'I' for Inactive)
REMARK    1  A    between atoms: C5M_1  and  C5_2
REMARK    2  A    between atoms: N1_4  and  C1*_5
REMARK    3  A    between atoms: C4*_7  and  C5*_8
REMARK    4  A    between atoms: C5*_8  and  O5*_9
REMARK    5  A    between atoms: C3*_10  and  O3*_11
REMARK    6  A    between atoms: C2*_12  and  O2*_13
REMARK                            x       y       z     vdW  Elec       q    Type
REMARK                         _______ _______ _______ _____ _____    ______ ____
ROOT
ATOM      1  C1*   T A   1       2.816   3.491  17.890  0.00  0.00    +0.000 C 
ATOM      2  O4*   T A   1       2.237   4.733  18.354  0.00  0.00    +0.000 OA
ATOM      3  C4*   T A   1       1.385   4.452  19.495  0.00  0.00    +0.000 C 
ATOM      4  C3*   T A   1       1.308   2.933  19.628  0.00  0.00    +0.000 C 
ATOM      5  C2*   T A   1       2.621   2.470  19.023  0.00  0.00    +0.000 C 
ENDROOT
BRANCH   1   9
ATOM      6  C5M   T A   1       6.284   4.535  14.487  0.00  0.00    +0.000 C 
ATOM      7  C5    T A   1       5.849   4.245  15.884  0.00  0.00    +0.000 A 
ATOM      8  C6    T A   1       4.601   3.905  16.226  0.00  0.00    +0.000 A 
ATOM      9  N1    T A   1       4.222   3.676  17.535  0.00  0.00    +0.000 N 
ATOM     10  C2    T A   1       5.128   3.765  18.580  0.00  0.00    +0.000 A 
ATOM     11  O2    T A   1       4.847   3.582  19.762  0.00  0.00    +0.000 OA
ATOM     12  N3    T A   1       6.415   4.077  18.224  0.00  0.00    +0.000 N 
ATOM     13  C4    T A   1       6.854   4.370  16.966  0.00  0.00    +0.000 A 
ATOM     14  O4    T A   1       8.004   4.725  16.739  0.00  0.00    +0.000 OA
ATOM     15  H3    T A   1       7.080   4.172  18.973  0.00  0.00    +0.000 HD
ENDBRANCH   1   9
BRANCH   4  16
ATOM     16  O3*   T A   1       0.227   2.382  18.854  0.00  0.00    +0.000 OA
ATOM     17  H3*   T A   1      -0.217   3.099  18.361  0.00  0.00    +0.000 HD
ENDBRANCH   4  16
BRANCH   5  18
ATOM     18  O2*   T A   1       2.552   1.115  18.599  0.00  0.00    +0.000 OA
ATOM     19  H2*   T A   1       3.413   0.907  18.181  0.00  0.00    +0.000 HD
ENDBRANCH   5  18
BRANCH   3  20
ATOM     20  C5*   T A   1       1.991   5.120  20.732  0.00  0.00    +0.000 C 
BRANCH  20  21
ATOM     21  O5*   T A   1       3.075   5.968  20.360  0.00  0.00    +0.000 OA
ATOM     22  H5*   T A   1       3.877   5.606  20.781  0.00  0.00    +0.000 HD
ENDBRANCH  20  21
ENDBRANCH   3  20
TORSDOF 5
ENDMDL
MODEL 5
REMARK VINA RESULT:      -6.8      1.444      1.468
REMARK  Name = 
REMARK  6 active torsions:
REMARK  status: ('A' for Active; 'I' for Inactive)
REMARK    1  A    between atoms: C5M_1  and  C5_2
REMARK    2  A    between atoms: N1_4  and  C1*_5
REMARK    3  A    between atoms: C4*_7  and  C5*_8
REMARK    4  A    between atoms: C5*_8  and  O5*_9
REMARK    5  A    between atoms: C3*_10  and  O3*_11
REMARK    6  A    between atoms: C2*_12  and  O2*_13
REMARK                            x       y       z     vdW  Elec       q    Type
REMARK                         _______ _______ _______ _____ _____    ______ ____
ROOT
ATOM      1  C1*   T A   1       4.809   4.272  19.854  0.00  0.00    +0.000 C 
ATOM      2  O4*   T A   1       4.994   2.855  19.631  0.00  0.00    +0.000 OA
ATOM      3  C4*   T A   1       3.703   2.196  19.727  0.00  0.00    +0.000 C 
ATOM      4  C3*   T A   1       2.704   3.247  20.201  0.00  0.00    +0.000 C 
ATOM      5  C2*   T A   1       3.304   4.546  19.694  0.00  0.00    +0.000 C 
ENDROOT
BRANCH   1   9
ATOM      6  C5M   T A   1       5.230   6.830  15.614  0.00  0.00    +0.000 C 
ATOM      7  C5    T A   1       5.765   6.327  16.913  0.00  0.00    +0.000 A 
ATOM      8  C6    T A   1       5.116   5.473  17.712  0.00  0.00    +0.000 A 
ATOM      9  N1    T A   1       5.625   5.054  18.926  0.00  0.00    +0.000 N 
ATOM     10  C2    T A   1       6.862   5.481  19.382  0.00  0.00    +0.000 A 
ATOM     11  O2    T A   1       7.360   5.149  20.455  0.00  0.00    +0.000 OA
ATOM     12  N3    T A   1       7.544   6.326  18.544  0.00  0.00    +0.000 N 
ATOM     13  C4    T A   1       7.087   6.827  17.361  0.00  0.00    +0.000 A 
ATOM     14  O4    T A   1       7.719   7.648  16.709  0.00  0.00    +0.000 OA
ATOM     15  H3    T A   1       8.432   6.667  18.872  0.00  0.00    +0.000 HD
ENDBRANCH   1   9
BRANCH   4  16
ATOM     16  O3*   T A   1       2.630   3.306  21.637  0.00  0.00    +0.000 OA
ATOM     17  H3*   T A   1       3.317   3.913  21.973  0.00  0.00    +0.000 HD
ENDBRANCH   4  16
BRANCH   5  18
ATOM     18  O2*   T A   1       2.821   5.666  20.424  0.00  0.00    +0.000 OA
ATOM     19  H2*   T A   1       2.517   6.322  19.764  0.00  0.00    +0.000 HD
ENDBRANCH   5  18
BRANCH   3  20
ATOM     20  C5*   T A   1       3.346   1.624  18.352  0.00  0.00    +0.000 C 
BRANCH  20  21
ATOM     21  O5*   T A   1       1.935   1.659  18.149  0.00  0.00    +0.000 OA
ATOM     22  H5*   T A   1       1.644   2.571  18.338  0.00  0.00    +0.000 HD
ENDBRANCH  20  21
ENDBRANCH   3  20
TORSDOF 5
ENDMDL
MODEL 6
REMARK VINA RESULT:      -6.8      1.892      5.797
REMARK  Name = 
REMARK  6 active torsions:
REMARK  status: ('A' for Active; 'I' for Inactive)
REMARK    1  A    between atoms: C5M_1  and  C5_2
REMARK    2  A    between atoms: N1_4  and  C1*_5
REMARK    3  A    between atoms: C4*_7  and  C5*_8
REMARK    4  A    between atoms: C5*_8  and  O5*_9
REMARK    5  A    between atoms: C3*_10  and  O3*_11
REMARK    6  A    between atoms: C2*_12  and  O2*_13
REMARK                            x       y       z     vdW  Elec       q    Type
REMARK                         _______ _______ _______ _____ _____    ______ ____
ROOT
ATOM      1  C1*   T A   1       5.805   4.454  18.695  0.00  0.00    +0.000 C 
ATOM      2  O4*   T A   1       6.580   5.619  19.059  0.00  0.00    +0.000 OA
ATOM      3  C4*   T A   1       7.283   6.099  17.882  0.00  0.00    +0.000 C 
ATOM      4  C3*   T A   1       7.055   5.068  16.780  0.00  0.00    +0.000 C 
ATOM      5  C2*   T A   1       5.722   4.449  17.159  0.00  0.00    +0.000 C 
ENDROOT
BRANCH   1   9
ATOM      6  C5M   T A   1       1.811   7.018  20.164  0.00  0.00    +0.000 C 
ATOM      7  C5    T A   1       2.563   5.746  19.961  0.00  0.00    +0.000 A 
ATOM      8  C6    T A   1       3.832   5.684  19.541  0.00  0.00    +0.000 A 
ATOM      9  N1    T A   1       4.489   4.487  19.330  0.00  0.00    +0.000 N 
ATOM     10  C2    T A   1       3.873   3.267  19.563  0.00  0.00    +0.000 A 
ATOM     11  O2    T A   1       4.404   2.174  19.384  0.00  0.00    +0.000 OA
ATOM     12  N3    T A   1       2.585   3.334  20.030  0.00  0.00    +0.000 N 
ATOM     13  C4    T A   1       1.852   4.470  20.211  0.00  0.00    +0.000 A 
ATOM     14  O4    T A   1       0.675   4.444  20.549  0.00  0.00    +0.000 OA
ATOM     15  H3    T A   1       2.113   2.457  20.179  0.00  0.00    +0.000 HD
ENDBRANCH   1   9
BRANCH   4  16
ATOM     16  O3*   T A   1       8.059   4.038  16.795  0.00  0.00    +0.000 OA
ATOM     17  H3*   T A   1       7.885   3.404  16.074  0.00  0.00    +0.000 HD
ENDBRANCH   4  16
BRANCH   5  18
ATOM     18  O2*   T A   1       5.556   3.164  16.574  0.00  0.00    +0.000 OA
ATOM     19  H2*   T A   1       4.600   3.060  16.391  0.00  0.00    +0.000 HD
ENDBRANCH   5  18
BRANCH   3  20
ATOM     20  C5*   T A   1       6.733   7.481  17.517  0.00  0.00    +0.000 C 
BRANCH  20  21
ATOM     21  O5*   T A   1       7.802   8.395  17.282  0.00  0.00    +0.000 OA
ATOM     22  H5*   T A   1       7.858   8.525  16.316  0.00  0.00    +0.000 HD
ENDBRANCH  20  21
ENDBRANCH   3  20
TORSDOF 5
ENDMDL
MODEL 7
REMARK VINA RESULT:      -6.7      1.251      1.520
REMARK  Name = 
REMARK  6 active torsions:
REMARK  status: ('A' for Active; 'I' for Inactive)
REMARK    1  A    between atoms: C5M_1  and  C5_2
REMARK    2  A    between atoms: N1_4  and  C1*_5
REMARK    3  A    between atoms: C4*_7  and  C5*_8
REMARK    4  A    between atoms: C5*_8  and  O5*_9
REMARK    5  A    between atoms: C3*_10  and  O3*_11
REMARK    6  A    between atoms: C2*_12  and  O2*_13
REMARK                            x       y       z     vdW  Elec       q    Type
REMARK                         _______ _______ _______ _____ _____    ______ ____
ROOT
ATOM      1  C1*   T A   1       4.126   5.531  19.431  0.00  0.00    +0.000 C 
ATOM      2  O4*   T A   1       3.670   4.383  20.182  0.00  0.00    +0.000 OA
ATOM      3  C4*   T A   1       2.242   4.512  20.410  0.00  0.00    +0.000 C 
ATOM      4  C3*   T A   1       1.837   5.898  19.916  0.00  0.00    +0.000 C 
ATOM      5  C2*   T A   1       2.868   6.193  18.841  0.00  0.00    +0.000 C 
ENDROOT
BRANCH   1   9
ATOM      6  C5M   T A   1       5.137   4.465  14.684  0.00  0.00    +0.000 C 
ATOM      7  C5    T A   1       5.540   4.689  16.103  0.00  0.00    +0.000 A 
ATOM      8  C6    T A   1       4.677   4.891  17.104  0.00  0.00    +0.000 A 
ATOM      9  N1    T A   1       5.085   5.131  18.403  0.00  0.00    +0.000 N 
ATOM     10  C2    T A   1       6.427   5.156  18.751  0.00  0.00    +0.000 A 
ATOM     11  O2    T A   1       6.847   5.373  19.885  0.00  0.00    +0.000 OA
ATOM     12  N3    T A   1       7.309   4.911  17.730  0.00  0.00    +0.000 N 
ATOM     13  C4    T A   1       6.989   4.721  16.418  0.00  0.00    +0.000 A 
ATOM     14  O4    T A   1       7.840   4.594  15.547  0.00  0.00    +0.000 OA
ATOM     15  H3    T A   1       8.288   4.951  17.960  0.00  0.00    +0.000 HD
ENDBRANCH   1   9
BRANCH   4  16
ATOM     16  O3*   T A   1       1.957   6.891  20.950  0.00  0.00    +0.000 OA
ATOM     17  H3*   T A   1       2.496   7.636  20.624  0.00  0.00    +0.000 HD
ENDBRANCH   4  16
BRANCH   5  18
ATOM     18  O2*   T A   1       2.986   7.588  18.599  0.00  0.00    +0.000 OA
ATOM     19  H2*   T A   1       3.866   7.858  18.932  0.00  0.00    +0.000 HD
ENDBRANCH   5  18
BRANCH   3  20
ATOM     20  C5*   T A   1       1.526   3.387  19.658  0.00  0.00    +0.000 C 
BRANCH  20  21
ATOM     21  O5*   T A   1       0.366   2.968  20.373  0.00  0.00    +0.000 OA
ATOM     22  H5*   T A   1       0.663   2.325  21.044  0.00  0.00    +0.000 HD
ENDBRANCH  20  21
ENDBRANCH   3  20
TORSDOF 5
ENDMDL
MODEL 8
REMARK VINA RESULT:      -6.6      1.322      2.463
REMARK  Name = 
REMARK  6 active torsions:
REMARK  status: ('A' for Active; 'I' for Inactive)
REMARK    1  A    between atoms: C5M_1  and  C5_2
REMARK    2  A    between atoms: N1_4  and  C1*_5
REMARK    3  A    between atoms: C4*_7  and  C5*_8
REMARK    4  A    between atoms: C5*_8  and  O5*_9
REMARK    5  A    between atoms: C3*_10  and  O3*_11
REMARK    6  A    between atoms: C2*_12  and  O2*_13
REMARK                            x       y       z     vdW  Elec       q    Type
REMARK                         _______ _______ _______ _____ _____    ______ ____
ROOT
ATOM      1  C1*   T A   1       3.444   3.501  17.863  0.00  0.00    +0.000 C 
ATOM      2  O4*   T A   1       2.475   4.441  18.381  0.00  0.00    +0.000 OA
ATOM      3  C4*   T A   1       1.836   3.857  19.547  0.00  0.00    +0.000 C 
ATOM      4  C3*   T A   1       2.323   2.414  19.643  0.00  0.00    +0.000 C 
ATOM      5  C2*   T A   1       3.686   2.467  18.977  0.00  0.00    +0.000 C 
ENDROOT
BRANCH   1   9
ATOM      6  C5M   T A   1       6.676   4.784  14.313  0.00  0.00    +0.000 C 
ATOM      7  C5    T A   1       6.160   4.836  15.713  0.00  0.00    +0.000 A 
ATOM      8  C6    T A   1       5.145   4.091  16.165  0.00  0.00    +0.000 A 
ATOM      9  N1    T A   1       4.669   4.188  17.459  0.00  0.00    +0.000 N 
ATOM     10  C2    T A   1       5.236   5.056  18.380  0.00  0.00    +0.000 A 
ATOM     11  O2    T A   1       4.849   5.191  19.538  0.00  0.00    +0.000 OA
ATOM     12  N3    T A   1       6.301   5.790  17.924  0.00  0.00    +0.000 N 
ATOM     13  C4    T A   1       6.793   5.792  16.652  0.00  0.00    +0.000 A 
ATOM     14  O4    T A   1       7.694   6.542  16.298  0.00  0.00    +0.000 OA
ATOM     15  H3    T A   1       6.708   6.445  18.572  0.00  0.00    +0.000 HD
ENDBRANCH   1   9
BRANCH   4  16
ATOM     16  O3*   T A   1       1.483   1.515  18.898  0.00  0.00    +0.000 OA
ATOM     17  H3*   T A   1       1.959   1.211  18.102  0.00  0.00    +0.000 HD
ENDBRANCH   4  16
BRANCH   5  18
ATOM     18  O2*   T A   1       4.095   1.184  18.521  0.00  0.00    +0.000 OA
ATOM     19  H2*   T A   1       3.531   0.529  18.979  0.00  0.00    +0.000 HD
ENDBRANCH   5  18
BRANCH   3  20
ATOM     20  C5*   T A   1       2.213   4.688  20.776  0.00  0.00    +0.000 C 
BRANCH  20  21
ATOM     21  O5*   T A   1       2.324   6.067  20.431  0.00  0.00    +0.000 OA
ATOM     22  H5*   T A   1       1.624   6.253  19.778  0.00  0.00    +0.000 HD
ENDBRANCH  20  21
ENDBRANCH   3  20
TORSDOF 5
ENDMDL
MODEL 9
REMARK VINA RESULT:      -6.6      1.387      2.626
REMARK  Name = 
REMARK  6 active torsions:
REMARK  status: ('A' for Active; 'I' for Inactive)
REMARK    1  A    between atoms: C5M_1  and  C5_2
REMARK    2  A    between atoms: N1_4  and  C1*_5
REMARK    3  A    between atoms: C4*_7  and  C5*_8
REMARK    4  A    between atoms: C5*_8  and  O5*_9
REMARK    5  A    between atoms: C3*_10  and  O3*_11
REMARK    6  A    between atoms: C2*_12  and  O2*_13
REMARK                            x       y       z     vdW  Elec       q    Type
REMARK                         _______ _______ _______ _____ _____    ______ ____
ROOT
ATOM      1  C1*   T A   1       2.659   3.754  18.268  0.00  0.00    +0.000 C 
ATOM      2  O4*   T A   1       2.310   4.805  19.198  0.00  0.00    +0.000 OA
ATOM      3  C4*   T A   1       1.537   4.229  20.284  0.00  0.00    +0.000 C 
ATOM      4  C3*   T A   1       1.257   2.777  19.907  0.00  0.00    +0.000 C 
ATOM      5  C2*   T A   1       2.427   2.425  19.007  0.00  0.00    +0.000 C 
ENDROOT
BRANCH   1   9
ATOM      6  C5M   T A   1       5.881   5.260  14.798  0.00  0.00    +0.000 C 
ATOM      7  C5    T A   1       5.551   4.703  16.142  0.00  0.00    +0.000 A 
ATOM      8  C6    T A   1       4.313   4.389  16.540  0.00  0.00    +0.000 A 
ATOM      9  N1    T A   1       4.037   3.908  17.806  0.00  0.00    +0.000 N 
ATOM     10  C2    T A   1       5.040   3.700  18.740  0.00  0.00    +0.000 A 
ATOM     11  O2    T A   1       4.853   3.284  19.881  0.00  0.00    +0.000 OA
ATOM     12  N3    T A   1       6.313   3.986  18.317  0.00  0.00    +0.000 N 
ATOM     13  C4    T A   1       6.660   4.514  17.108  0.00  0.00    +0.000 A 
ATOM     14  O4    T A   1       7.812   4.826  16.834  0.00  0.00    +0.000 OA
ATOM     15  H3    T A   1       7.051   3.866  18.991  0.00  0.00    +0.000 HD
ENDBRANCH   1   9
BRANCH   4  16
ATOM     16  O3*   T A   1       0.041   2.646  19.150  0.00  0.00    +0.000 OA
ATOM     17  H3*   T A   1       0.131   1.909  18.515  0.00  0.00    +0.000 HD
ENDBRANCH   4  16
BRANCH   5  18
ATOM     18  O2*   T A   1       2.126   1.320  18.165  0.00  0.00    +0.000 OA
ATOM     19  H2*   T A   1       1.156   1.320  18.036  0.00  0.00    +0.000 HD
ENDBRANCH   5  18
BRANCH   3  20
ATOM     20  C5*   T A   1       2.346   4.355  21.578  0.00  0.00    +0.000 C 
BRANCH  20  21
ATOM     21  O5*   T A   1       2.308   3.132  22.310  0.00  0.00    +0.000 OA
ATOM     22  H5*   T A   1       3.180   2.708  22.201  0.00  0.00    +0.000 HD
ENDBRANCH  20  21
ENDBRANCH   3  20
TORSDOF 5
ENDMDL
