MODEL 1
REMARK VINA RESULT:      -8.0      0.000      0.000
REMARK  Name = 
REMARK  6 active torsions:
REMARK  status: ('A' for Active; 'I' for Inactive)
REMARK    1  A    between atoms: C_2  and  C_22
REMARK    2  A    between atoms: N_3  and  C_4
REMARK    3  A    between atoms: C_9  and  N_10
REMARK    4  A    between atoms: C_11  and  C_13
REMARK    5  A    between atoms: C_17  and  N_18
REMARK    6  A    between atoms: C_26  and  N_27
REMARK                            x       y       z     vdW  Elec       q    Type
REMARK                         _______ _______ _______ _____ _____    ______ ____
ROOT
ATOM      1  C   UNL     1       2.928   4.622  20.396  0.00  0.00    +0.000 A 
ATOM      2  C   UNL     1       2.196   4.204  21.519  0.00  0.00    +0.000 A 
ATOM      3  C   UNL     1       2.225   2.873  21.892  0.00  0.00    +0.000 A 
ATOM      4  N   UNL     1       2.956   1.952  21.254  0.00  0.00    +0.000 NA
ATOM      5  C   UNL     1       3.691   2.381  20.196  0.00  0.00    +0.000 A 
ATOM      6  C   UNL     1       3.735   3.693  19.706  0.00  0.00    +0.000 A 
ENDROOT
BRANCH   1   9
ATOM      7  O   UNL     1       1.906   5.802  17.952  0.00  0.00    +0.000 OA
ATOM      8  C   UNL     1       2.242   6.477  18.913  0.00  0.00    +0.000 C 
ATOM      9  N   UNL     1       2.803   6.002  20.085  0.00  0.00    +0.000 N 
ATOM     10  H   UNL     1       2.674   6.612  20.887  0.00  0.00    +0.000 HD
BRANCH   8  11
ATOM     11  C   UNL     1       2.004   7.949  18.890  0.00  0.00    +0.000 A 
ATOM     12  C   UNL     1       2.288   8.690  17.734  0.00  0.00    +0.000 A 
ATOM     13  C   UNL     1       2.002  10.056  17.687  0.00  0.00    +0.000 A 
ATOM     14  C   UNL     1       1.440  10.692  18.795  0.00  0.00    +0.000 A 
ATOM     15  C   UNL     1       1.167   9.953  19.956  0.00  0.00    +0.000 A 
ATOM     16  C   UNL     1       1.442   8.577  20.010  0.00  0.00    +0.000 A 
BRANCH  15  17
ATOM     17  N   UNL     1       0.584  10.633  21.121  0.00  0.00    +0.000 N 
ATOM     18  O   UNL     1      -0.178  11.587  20.910  0.00  0.00    +0.000 OA
ATOM     19  O   UNL     1       0.899  10.217  22.244  0.00  0.00    +0.000 OA
ENDBRANCH  15  17
ENDBRANCH   8  11
ENDBRANCH   1   9
BRANCH   6  20
ATOM     20  N   UNL     1       4.613   4.088  18.648  0.00  0.00    +0.000 N 
ATOM     21  C   UNL     1       4.445   3.737  17.315  0.00  0.00    +0.000 C 
ATOM     22  O   UNL     1       3.495   3.116  16.848  0.00  0.00    +0.000 OA
ATOM     23  H   UNL     1       5.346   4.740  18.903  0.00  0.00    +0.000 HD
BRANCH  21  24
ATOM     24  C   UNL     1       5.502   4.094  16.334  0.00  0.00    +0.000 A 
ATOM     25  C   UNL     1       6.420   5.086  16.730  0.00  0.00    +0.000 A 
ATOM     26  C   UNL     1       7.306   5.656  15.813  0.00  0.00    +0.000 A 
ATOM     27  C   UNL     1       7.282   5.243  14.485  0.00  0.00    +0.000 A 
ATOM     28  C   UNL     1       6.381   4.239  14.092  0.00  0.00    +0.000 A 
ATOM     29  C   UNL     1       5.490   3.650  15.011  0.00  0.00    +0.000 A 
BRANCH  28  30
ATOM     30  N   UNL     1       6.333   3.842  12.682  0.00  0.00    +0.000 N 
ATOM     31  O   UNL     1       5.346   3.198  12.289  0.00  0.00    +0.000 OA
ATOM     32  O   UNL     1       7.283   4.179  11.955  0.00  0.00    +0.000 OA
ENDBRANCH  28  30
ENDBRANCH  21  24
ENDBRANCH   6  20
TORSDOF 6
ENDMDL
MODEL 2
REMARK VINA RESULT:      -7.9      4.748      8.044
REMARK  Name = 
REMARK  6 active torsions:
REMARK  status: ('A' for Active; 'I' for Inactive)
REMARK    1  A    between atoms: C_2  and  C_22
REMARK    2  A    between atoms: N_3  and  C_4
REMARK    3  A    between atoms: C_9  and  N_10
REMARK    4  A    between atoms: C_11  and  C_13
REMARK    5  A    between atoms: C_17  and  N_18
REMARK    6  A    between atoms: C_26  and  N_27
REMARK                            x       y       z     vdW  Elec       q    Type
REMARK                         _______ _______ _______ _____ _____    ______ ____
ROOT
ATOM      1  C   UNL     1       6.442   6.702  16.932  0.00  0.00    +0.000 A 
ATOM      2  C   UNL     1       7.383   5.872  16.301  0.00  0.00    +0.000 A 
ATOM      3  C   UNL     1       7.016   4.594  15.925  0.00  0.00    +0.000 A 
ATOM      4  N   UNL     1       5.781   4.108  16.097  0.00  0.00    +0.000 NA
ATOM      5  C   UNL     1       4.872   4.938  16.671  0.00  0.00    +0.000 A 
ATOM      6  C   UNL     1       5.120   6.245  17.113  0.00  0.00    +0.000 A 
ENDROOT
BRANCH   1   9
ATOM      7  O   UNL     1       8.529   7.310  18.852  0.00  0.00    +0.000 OA
ATOM      8  C   UNL     1       7.981   8.176  18.185  0.00  0.00    +0.000 C 
ATOM      9  N   UNL     1       6.934   7.983  17.303  0.00  0.00    +0.000 N 
ATOM     10  H   UNL     1       6.856   8.696  16.585  0.00  0.00    +0.000 HD
BRANCH   8  11
ATOM     11  C   UNL     1       8.482   9.579  18.258  0.00  0.00    +0.000 A 
ATOM     12  C   UNL     1       8.009  10.542  17.355  0.00  0.00    +0.000 A 
ATOM     13  C   UNL     1       8.425  11.871  17.463  0.00  0.00    +0.000 A 
ATOM     14  C   UNL     1       9.321  12.244  18.466  0.00  0.00    +0.000 A 
ATOM     15  C   UNL     1       9.803  11.278  19.362  0.00  0.00    +0.000 A 
ATOM     16  C   UNL     1       9.384   9.941  19.267  0.00  0.00    +0.000 A 
BRANCH  15  17
ATOM     17  N   UNL     1      10.753  11.678  20.410  0.00  0.00    +0.000 N 
ATOM     18  O   UNL     1      11.961  11.524  20.181  0.00  0.00    +0.000 OA
ATOM     19  O   UNL     1      10.286  12.136  21.461  0.00  0.00    +0.000 OA
ENDBRANCH  15  17
ENDBRANCH   8  11
ENDBRANCH   1   9
BRANCH   6  20
ATOM     20  N   UNL     1       4.085   7.094  17.616  0.00  0.00    +0.000 N 
ATOM     21  C   UNL     1       3.346   6.838  18.763  0.00  0.00    +0.000 C 
ATOM     22  O   UNL     1       3.525   5.906  19.541  0.00  0.00    +0.000 OA
ATOM     23  H   UNL     1       3.965   7.977  17.133  0.00  0.00    +0.000 HD
BRANCH  21  24
ATOM     24  C   UNL     1       2.204   7.727  19.103  0.00  0.00    +0.000 A 
ATOM     25  C   UNL     1       1.811   8.651  18.117  0.00  0.00    +0.000 A 
ATOM     26  C   UNL     1       0.909   9.677  18.408  0.00  0.00    +0.000 A 
ATOM     27  C   UNL     1       0.392   9.793  19.694  0.00  0.00    +0.000 A 
ATOM     28  C   UNL     1       0.768   8.859  20.675  0.00  0.00    +0.000 A 
ATOM     29  C   UNL     1       1.669   7.815  20.388  0.00  0.00    +0.000 A 
BRANCH  28  30
ATOM     30  N   UNL     1       0.252   9.016  22.038  0.00  0.00    +0.000 N 
ATOM     31  O   UNL     1      -0.819   8.458  22.326  0.00  0.00    +0.000 OA
ATOM     32  O   UNL     1       0.923   9.696  22.833  0.00  0.00    +0.000 OA
ENDBRANCH  28  30
ENDBRANCH  21  24
ENDBRANCH   6  20
TORSDOF 6
ENDMDL
MODEL 3
REMARK VINA RESULT:      -7.8      4.685      6.121
REMARK  Name = 
REMARK  6 active torsions:
REMARK  status: ('A' for Active; 'I' for Inactive)
REMARK    1  A    between atoms: C_2  and  C_22
REMARK    2  A    between atoms: N_3  and  C_4
REMARK    3  A    between atoms: C_9  and  N_10
REMARK    4  A    between atoms: C_11  and  C_13
REMARK    5  A    between atoms: C_17  and  N_18
REMARK    6  A    between atoms: C_26  and  N_27
REMARK                            x       y       z     vdW  Elec       q    Type
REMARK                         _______ _______ _______ _____ _____    ______ ____
ROOT
ATOM      1  C   UNL     1       5.101   6.126  16.879  0.00  0.00    +0.000 A 
ATOM      2  C   UNL     1       4.691   4.794  16.709  0.00  0.00    +0.000 A 
ATOM      3  C   UNL     1       5.603   3.855  16.262  0.00  0.00    +0.000 A 
ATOM      4  N   UNL     1       6.886   4.142  16.016  0.00  0.00    +0.000 NA
ATOM      5  C   UNL     1       7.276   5.426  16.225  0.00  0.00    +0.000 A 
ATOM      6  C   UNL     1       6.450   6.473  16.657  0.00  0.00    +0.000 A 
ENDROOT
BRANCH   1   9
ATOM      7  O   UNL     1       3.031   5.613  18.843  0.00  0.00    +0.000 OA
ATOM      8  C   UNL     1       3.166   6.702  18.305  0.00  0.00    +0.000 C 
ATOM      9  N   UNL     1       4.078   7.011  17.312  0.00  0.00    +0.000 N 
ATOM     10  H   UNL     1       4.309   7.997  17.250  0.00  0.00    +0.000 HD
BRANCH   8  11
ATOM     11  C   UNL     1       2.328   7.849  18.758  0.00  0.00    +0.000 A 
ATOM     12  C   UNL     1       1.896   8.813  17.836  0.00  0.00    +0.000 A 
ATOM     13  C   UNL     1       1.056   9.850  18.245  0.00  0.00    +0.000 A 
ATOM     14  C   UNL     1       0.649   9.937  19.577  0.00  0.00    +0.000 A 
ATOM     15  C   UNL     1       1.091   8.979  20.503  0.00  0.00    +0.000 A 
ATOM     16  C   UNL     1       1.928   7.927  20.100  0.00  0.00    +0.000 A 
BRANCH  15  17
ATOM     17  N   UNL     1       0.664   9.084  21.905  0.00  0.00    +0.000 N 
ATOM     18  O   UNL     1       1.537   9.302  22.758  0.00  0.00    +0.000 OA
ATOM     19  O   UNL     1      -0.540   8.938  22.150  0.00  0.00    +0.000 OA
ENDBRANCH  15  17
ENDBRANCH   8  11
ENDBRANCH   1   9
BRANCH   6  20
ATOM     20  N   UNL     1       6.957   7.778  16.953  0.00  0.00    +0.000 N 
ATOM     21  C   UNL     1       7.883   8.054  17.949  0.00  0.00    +0.000 C 
ATOM     22  O   UNL     1       8.453   7.225  18.653  0.00  0.00    +0.000 OA
ATOM     23  H   UNL     1       6.670   8.517  16.321  0.00  0.00    +0.000 HD
BRANCH  21  24
ATOM     24  C   UNL     1       8.225   9.469  18.249  0.00  0.00    +0.000 A 
ATOM     25  C   UNL     1       7.630  10.447  17.429  0.00  0.00    +0.000 A 
ATOM     26  C   UNL     1       8.051  11.779  17.474  0.00  0.00    +0.000 A 
ATOM     27  C   UNL     1       9.077  12.147  18.338  0.00  0.00    +0.000 A 
ATOM     28  C   UNL     1       9.658  11.176  19.172  0.00  0.00    +0.000 A 
ATOM     29  C   UNL     1       9.233   9.833  19.141  0.00  0.00    +0.000 A 
BRANCH  28  30
ATOM     30  N   UNL     1      10.767  11.565  20.047  0.00  0.00    +0.000 N 
ATOM     31  O   UNL     1      11.924  11.454  19.609  0.00  0.00    +0.000 OA
ATOM     32  O   UNL     1      10.486  11.993  21.179  0.00  0.00    +0.000 OA
ENDBRANCH  28  30
ENDBRANCH  21  24
ENDBRANCH   6  20
TORSDOF 6
ENDMDL
MODEL 4
REMARK VINA RESULT:      -7.6      1.351      1.717
REMARK  Name = 
REMARK  6 active torsions:
REMARK  status: ('A' for Active; 'I' for Inactive)
REMARK    1  A    between atoms: C_2  and  C_22
REMARK    2  A    between atoms: N_3  and  C_4
REMARK    3  A    between atoms: C_9  and  N_10
REMARK    4  A    between atoms: C_11  and  C_13
REMARK    5  A    between atoms: C_17  and  N_18
REMARK    6  A    between atoms: C_26  and  N_27
REMARK                            x       y       z     vdW  Elec       q    Type
REMARK                         _______ _______ _______ _____ _____    ______ ____
ROOT
ATOM      1  C   UNL     1       2.338   4.490  20.347  0.00  0.00    +0.000 A 
ATOM      2  C   UNL     1       1.496   3.972  21.345  0.00  0.00    +0.000 A 
ATOM      3  C   UNL     1       1.448   2.606  21.551  0.00  0.00    +0.000 A 
ATOM      4  N   UNL     1       2.202   1.737  20.868  0.00  0.00    +0.000 NA
ATOM      5  C   UNL     1       3.041   2.258  19.936  0.00  0.00    +0.000 A 
ATOM      6  C   UNL     1       3.172   3.616  19.617  0.00  0.00    +0.000 A 
ENDROOT
BRANCH   1   9
ATOM      7  O   UNL     1       2.166   6.009  17.883  0.00  0.00    +0.000 OA
ATOM      8  C   UNL     1       2.140   6.542  18.983  0.00  0.00    +0.000 C 
ATOM      9  N   UNL     1       2.286   5.902  20.200  0.00  0.00    +0.000 N 
ATOM     10  H   UNL     1       1.878   6.399  20.985  0.00  0.00    +0.000 HD
BRANCH   8  11
ATOM     11  C   UNL     1       1.882   8.007  19.078  0.00  0.00    +0.000 A 
ATOM     12  C   UNL     1       1.998   8.818  17.939  0.00  0.00    +0.000 A 
ATOM     13  C   UNL     1       1.691  10.178  18.010  0.00  0.00    +0.000 A 
ATOM     14  C   UNL     1       1.276  10.739  19.219  0.00  0.00    +0.000 A 
ATOM     15  C   UNL     1       1.172   9.930  20.361  0.00  0.00    +0.000 A 
ATOM     16  C   UNL     1       1.469   8.560  20.298  0.00  0.00    +0.000 A 
BRANCH  15  17
ATOM     17  N   UNL     1       0.744  10.532  21.632  0.00  0.00    +0.000 N 
ATOM     18  O   UNL     1       0.785   9.825  22.648  0.00  0.00    +0.000 OA
ATOM     19  O   UNL     1       0.357  11.708  21.606  0.00  0.00    +0.000 OA
ENDBRANCH  15  17
ENDBRANCH   8  11
ENDBRANCH   1   9
BRANCH   6  20
ATOM     20  N   UNL     1       4.152   4.098  18.694  0.00  0.00    +0.000 N 
ATOM     21  C   UNL     1       5.444   4.468  19.041  0.00  0.00    +0.000 C 
ATOM     22  O   UNL     1       5.949   4.362  20.155  0.00  0.00    +0.000 OA
ATOM     23  H   UNL     1       3.887   4.073  17.716  0.00  0.00    +0.000 HD
BRANCH  21  24
ATOM     24  C   UNL     1       6.322   5.084  18.013  0.00  0.00    +0.000 A 
ATOM     25  C   UNL     1       6.892   6.330  18.337  0.00  0.00    +0.000 A 
ATOM     26  C   UNL     1       7.543   7.099  17.369  0.00  0.00    +0.000 A 
ATOM     27  C   UNL     1       7.628   6.631  16.062  0.00  0.00    +0.000 A 
ATOM     28  C   UNL     1       7.077   5.379  15.741  0.00  0.00    +0.000 A 
ATOM     29  C   UNL     1       6.427   4.592  16.712  0.00  0.00    +0.000 A 
BRANCH  28  30
ATOM     30  N   UNL     1       7.133   4.916  14.351  0.00  0.00    +0.000 N 
ATOM     31  O   UNL     1       7.936   5.468  13.582  0.00  0.00    +0.000 OA
ATOM     32  O   UNL     1       6.374   3.988  14.023  0.00  0.00    +0.000 OA
ENDBRANCH  28  30
ENDBRANCH  21  24
ENDBRANCH   6  20
TORSDOF 6
ENDMDL
MODEL 5
REMARK VINA RESULT:      -7.5      0.922      1.022
REMARK  Name = 
REMARK  6 active torsions:
REMARK  status: ('A' for Active; 'I' for Inactive)
REMARK    1  A    between atoms: C_2  and  C_22
REMARK    2  A    between atoms: N_3  and  C_4
REMARK    3  A    between atoms: C_9  and  N_10
REMARK    4  A    between atoms: C_11  and  C_13
REMARK    5  A    between atoms: C_17  and  N_18
REMARK    6  A    between atoms: C_26  and  N_27
REMARK                            x       y       z     vdW  Elec       q    Type
REMARK                         _______ _______ _______ _____ _____    ______ ____
ROOT
ATOM      1  C   UNL     1       2.351   4.589  20.629  0.00  0.00    +0.000 A 
ATOM      2  C   UNL     1       1.503   3.971  21.563  0.00  0.00    +0.000 A 
ATOM      3  C   UNL     1       1.536   2.597  21.704  0.00  0.00    +0.000 A 
ATOM      4  N   UNL     1       2.372   1.811  21.017  0.00  0.00    +0.000 NA
ATOM      5  C   UNL     1       3.214   2.428  20.148  0.00  0.00    +0.000 A 
ATOM      6  C   UNL     1       3.269   3.806  19.898  0.00  0.00    +0.000 A 
ENDROOT
BRANCH   1   9
ATOM      7  O   UNL     1       2.180   6.212  18.232  0.00  0.00    +0.000 OA
ATOM      8  C   UNL     1       2.075   6.688  19.353  0.00  0.00    +0.000 C 
ATOM      9  N   UNL     1       2.213   6.000  20.545  0.00  0.00    +0.000 N 
ATOM     10  H   UNL     1       1.743   6.433  21.333  0.00  0.00    +0.000 HD
BRANCH   8  11
ATOM     11  C   UNL     1       1.719   8.128  19.503  0.00  0.00    +0.000 A 
ATOM     12  C   UNL     1       1.756   8.982  18.392  0.00  0.00    +0.000 A 
ATOM     13  C   UNL     1       1.358  10.315  18.516  0.00  0.00    +0.000 A 
ATOM     14  C   UNL     1       0.930  10.805  19.751  0.00  0.00    +0.000 A 
ATOM     15  C   UNL     1       0.905   9.953  20.866  0.00  0.00    +0.000 A 
ATOM     16  C   UNL     1       1.295   8.610  20.749  0.00  0.00    +0.000 A 
BRANCH  15  17
ATOM     17  N   UNL     1       0.463  10.481  22.164  0.00  0.00    +0.000 N 
ATOM     18  O   UNL     1      -0.089  11.590  22.178  0.00  0.00    +0.000 OA
ATOM     19  O   UNL     1       0.679   9.788  23.167  0.00  0.00    +0.000 OA
ENDBRANCH  15  17
ENDBRANCH   8  11
ENDBRANCH   1   9
BRANCH   6  20
ATOM     20  N   UNL     1       4.254   4.393  19.042  0.00  0.00    +0.000 N 
ATOM     21  C   UNL     1       4.575   3.922  17.776  0.00  0.00    +0.000 C 
ATOM     22  O   UNL     1       4.015   3.003  17.186  0.00  0.00    +0.000 OA
ATOM     23  H   UNL     1       4.665   5.259  19.371  0.00  0.00    +0.000 HD
BRANCH  21  24
ATOM     24  C   UNL     1       5.713   4.535  17.043  0.00  0.00    +0.000 A 
ATOM     25  C   UNL     1       6.390   5.584  17.694  0.00  0.00    +0.000 A 
ATOM     26  C   UNL     1       7.319   6.375  17.014  0.00  0.00    +0.000 A 
ATOM     27  C   UNL     1       7.580   6.127  15.670  0.00  0.00    +0.000 A 
ATOM     28  C   UNL     1       6.920   5.068  15.024  0.00  0.00    +0.000 A 
ATOM     29  C   UNL     1       5.989   4.258  15.704  0.00  0.00    +0.000 A 
BRANCH  28  30
ATOM     30  N   UNL     1       7.169   4.844  13.597  0.00  0.00    +0.000 N 
ATOM     31  O   UNL     1       6.545   3.931  13.031  0.00  0.00    +0.000 OA
ATOM     32  O   UNL     1       7.988   5.587  13.031  0.00  0.00    +0.000 OA
ENDBRANCH  28  30
ENDBRANCH  21  24
ENDBRANCH   6  20
TORSDOF 6
ENDMDL
MODEL 6
REMARK VINA RESULT:      -7.5      0.997      7.818
REMARK  Name = 
REMARK  6 active torsions:
REMARK  status: ('A' for Active; 'I' for Inactive)
REMARK    1  A    between atoms: C_2  and  C_22
REMARK    2  A    between atoms: N_3  and  C_4
REMARK    3  A    between atoms: C_9  and  N_10
REMARK    4  A    between atoms: C_11  and  C_13
REMARK    5  A    between atoms: C_17  and  N_18
REMARK    6  A    between atoms: C_26  and  N_27
REMARK                            x       y       z     vdW  Elec       q    Type
REMARK                         _______ _______ _______ _____ _____    ______ ____
ROOT
ATOM      1  C   UNL     1       3.689   3.713  19.773  0.00  0.00    +0.000 A 
ATOM      2  C   UNL     1       3.718   2.419  20.318  0.00  0.00    +0.000 A 
ATOM      3  C   UNL     1       2.933   2.129  21.418  0.00  0.00    +0.000 A 
ATOM      4  N   UNL     1       2.103   3.016  21.978  0.00  0.00    +0.000 NA
ATOM      5  C   UNL     1       2.057   4.250  21.413  0.00  0.00    +0.000 A 
ATOM      6  C   UNL     1       2.811   4.676  20.312  0.00  0.00    +0.000 A 
ENDROOT
BRANCH   1   9
ATOM      7  O   UNL     1       3.081   3.347  16.961  0.00  0.00    +0.000 OA
ATOM      8  C   UNL     1       4.161   3.771  17.346  0.00  0.00    +0.000 C 
ATOM      9  N   UNL     1       4.557   3.909  18.665  0.00  0.00    +0.000 N 
ATOM     10  H   UNL     1       5.290   4.595  18.811  0.00  0.00    +0.000 HD
BRANCH   8  11
ATOM     11  C   UNL     1       5.161   4.241  16.345  0.00  0.00    +0.000 A 
ATOM     12  C   UNL     1       6.212   5.080  16.741  0.00  0.00    +0.000 A 
ATOM     13  C   UNL     1       7.188   5.467  15.820  0.00  0.00    +0.000 A 
ATOM     14  C   UNL     1       7.115   5.025  14.497  0.00  0.00    +0.000 A 
ATOM     15  C   UNL     1       6.057   4.195  14.099  0.00  0.00    +0.000 A 
ATOM     16  C   UNL     1       5.076   3.794  15.019  0.00  0.00    +0.000 A 
BRANCH  15  17
ATOM     17  N   UNL     1       5.984   3.744  12.702  0.00  0.00    +0.000 N 
ATOM     18  O   UNL     1       4.890   3.338  12.284  0.00  0.00    +0.000 OA
ATOM     19  O   UNL     1       7.024   3.786  12.032  0.00  0.00    +0.000 OA
ENDBRANCH  15  17
ENDBRANCH   8  11
ENDBRANCH   1   9
BRANCH   6  20
ATOM     20  N   UNL     1       2.633   5.962  19.709  0.00  0.00    +0.000 N 
ATOM     21  C   UNL     1       1.876   6.988  20.258  0.00  0.00    +0.000 C 
ATOM     22  O   UNL     1       1.328   6.971  21.357  0.00  0.00    +0.000 OA
ATOM     23  H   UNL     1       3.177   6.137  18.873  0.00  0.00    +0.000 HD
BRANCH  21  24
ATOM     24  C   UNL     1       1.654   8.227  19.468  0.00  0.00    +0.000 A 
ATOM     25  C   UNL     1       2.339   8.322  18.242  0.00  0.00    +0.000 A 
ATOM     26  C   UNL     1       2.383   9.524  17.531  0.00  0.00    +0.000 A 
ATOM     27  C   UNL     1       1.745  10.649  18.043  0.00  0.00    +0.000 A 
ATOM     28  C   UNL     1       1.044  10.551  19.258  0.00  0.00    +0.000 A 
ATOM     29  C   UNL     1       0.985   9.340  19.976  0.00  0.00    +0.000 A 
BRANCH  28  30
ATOM     30  N   UNL     1       0.412  11.753  19.810  0.00  0.00    +0.000 N 
ATOM     31  O   UNL     1       0.433  12.790  19.129  0.00  0.00    +0.000 OA
ATOM     32  O   UNL     1      -0.116  11.662  20.932  0.00  0.00    +0.000 OA
ENDBRANCH  28  30
ENDBRANCH  21  24
ENDBRANCH   6  20
TORSDOF 6
ENDMDL
MODEL 7
REMARK VINA RESULT:      -7.5      6.972     11.533
REMARK  Name = 
REMARK  6 active torsions:
REMARK  status: ('A' for Active; 'I' for Inactive)
REMARK    1  A    between atoms: C_2  and  C_22
REMARK    2  A    between atoms: N_3  and  C_4
REMARK    3  A    between atoms: C_9  and  N_10
REMARK    4  A    between atoms: C_11  and  C_13
REMARK    5  A    between atoms: C_17  and  N_18
REMARK    6  A    between atoms: C_26  and  N_27
REMARK                            x       y       z     vdW  Elec       q    Type
REMARK                         _______ _______ _______ _____ _____    ______ ____
ROOT
ATOM      1  C   UNL     1      -2.519  14.267  23.623  0.00  0.00    +0.000 A 
ATOM      2  C   UNL     1      -2.160  14.803  24.870  0.00  0.00    +0.000 A 
ATOM      3  C   UNL     1      -2.934  15.804  25.427  0.00  0.00    +0.000 A 
ATOM      4  N   UNL     1      -4.047  16.273  24.851  0.00  0.00    +0.000 NA
ATOM      5  C   UNL     1      -4.402  15.715  23.665  0.00  0.00    +0.000 A 
ATOM      6  C   UNL     1      -3.698  14.710  22.988  0.00  0.00    +0.000 A 
ENDROOT
BRANCH   1   9
ATOM      7  O   UNL     1      -2.871  11.390  23.732  0.00  0.00    +0.000 OA
ATOM      8  C   UNL     1      -1.918  11.912  23.171  0.00  0.00    +0.000 C 
ATOM      9  N   UNL     1      -1.639  13.266  23.132  0.00  0.00    +0.000 N 
ATOM     10  H   UNL     1      -1.061  13.550  22.347  0.00  0.00    +0.000 HD
BRANCH   8  11
ATOM     11  C   UNL     1      -0.968  11.058  22.402  0.00  0.00    +0.000 A 
ATOM     12  C   UNL     1      -0.383   9.935  23.006  0.00  0.00    +0.000 A 
ATOM     13  C   UNL     1       0.454   9.096  22.269  0.00  0.00    +0.000 A 
ATOM     14  C   UNL     1       0.722   9.378  20.928  0.00  0.00    +0.000 A 
ATOM     15  C   UNL     1       0.147  10.508  20.327  0.00  0.00    +0.000 A 
ATOM     16  C   UNL     1      -0.704  11.353  21.058  0.00  0.00    +0.000 A 
BRANCH  15  17
ATOM     17  N   UNL     1       0.442  10.801  18.918  0.00  0.00    +0.000 N 
ATOM     18  O   UNL     1       0.449   9.853  18.121  0.00  0.00    +0.000 OA
ATOM     19  O   UNL     1       0.677  11.979  18.615  0.00  0.00    +0.000 OA
ENDBRANCH  15  17
ENDBRANCH   8  11
ENDBRANCH   1   9
BRANCH   6  20
ATOM     20  N   UNL     1      -4.191  14.100  21.791  0.00  0.00    +0.000 N 
ATOM     21  C   UNL     1      -5.122  13.071  21.759  0.00  0.00    +0.000 C 
ATOM     22  O   UNL     1      -5.707  12.598  22.730  0.00  0.00    +0.000 OA
ATOM     23  H   UNL     1      -3.890  14.527  20.922  0.00  0.00    +0.000 HD
BRANCH  21  24
ATOM     24  C   UNL     1      -5.447  12.429  20.459  0.00  0.00    +0.000 A 
ATOM     25  C   UNL     1      -6.664  11.723  20.393  0.00  0.00    +0.000 A 
ATOM     26  C   UNL     1      -6.962  10.899  19.305  0.00  0.00    +0.000 A 
ATOM     27  C   UNL     1      -6.042  10.769  18.269  0.00  0.00    +0.000 A 
ATOM     28  C   UNL     1      -4.836  11.488  18.324  0.00  0.00    +0.000 A 
ATOM     29  C   UNL     1      -4.531  12.329  19.412  0.00  0.00    +0.000 A 
BRANCH  28  30
ATOM     30  N   UNL     1      -3.855  11.309  17.249  0.00  0.00    +0.000 N 
ATOM     31  O   UNL     1      -4.266  10.933  16.139  0.00  0.00    +0.000 OA
ATOM     32  O   UNL     1      -2.664  11.552  17.510  0.00  0.00    +0.000 OA
ENDBRANCH  28  30
ENDBRANCH  21  24
ENDBRANCH   6  20
TORSDOF 6
ENDMDL
MODEL 8
REMARK VINA RESULT:      -7.4      1.436      8.149
REMARK  Name = 
REMARK  6 active torsions:
REMARK  status: ('A' for Active; 'I' for Inactive)
REMARK    1  A    between atoms: C_2  and  C_22
REMARK    2  A    between atoms: N_3  and  C_4
REMARK    3  A    between atoms: C_9  and  N_10
REMARK    4  A    between atoms: C_11  and  C_13
REMARK    5  A    between atoms: C_17  and  N_18
REMARK    6  A    between atoms: C_26  and  N_27
REMARK                            x       y       z     vdW  Elec       q    Type
REMARK                         _______ _______ _______ _____ _____    ______ ____
ROOT
ATOM      1  C   UNL     1       3.010   3.473  17.991  0.00  0.00    +0.000 A 
ATOM      2  C   UNL     1       2.998   2.086  18.208  0.00  0.00    +0.000 A 
ATOM      3  C   UNL     1       2.291   1.573  19.280  0.00  0.00    +0.000 A 
ATOM      4  N   UNL     1       1.573   2.334  20.113  0.00  0.00    +0.000 NA
ATOM      5  C   UNL     1       1.562   3.669  19.864  0.00  0.00    +0.000 A 
ATOM      6  C   UNL     1       2.247   4.315  18.827  0.00  0.00    +0.000 A 
ENDROOT
BRANCH   1   9
ATOM      7  O   UNL     1       5.782   4.326  17.999  0.00  0.00    +0.000 OA
ATOM      8  C   UNL     1       5.132   4.224  16.969  0.00  0.00    +0.000 C 
ATOM      9  N   UNL     1       3.792   3.893  16.881  0.00  0.00    +0.000 N 
ATOM     10  H   UNL     1       3.517   3.496  15.989  0.00  0.00    +0.000 HD
BRANCH   8  11
ATOM     11  C   UNL     1       5.811   4.417  15.656  0.00  0.00    +0.000 A 
ATOM     12  C   UNL     1       6.929   5.258  15.558  0.00  0.00    +0.000 A 
ATOM     13  C   UNL     1       7.608   5.387  14.345  0.00  0.00    +0.000 A 
ATOM     14  C   UNL     1       7.170   4.686  13.220  0.00  0.00    +0.000 A 
ATOM     15  C   UNL     1       6.044   3.854  13.315  0.00  0.00    +0.000 A 
ATOM     16  C   UNL     1       5.360   3.711  14.532  0.00  0.00    +0.000 A 
BRANCH  15  17
ATOM     17  N   UNL     1       5.584   3.128  12.122  0.00  0.00    +0.000 N 
ATOM     18  O   UNL     1       6.357   2.302  11.617  0.00  0.00    +0.000 OA
ATOM     19  O   UNL     1       4.455   3.395  11.689  0.00  0.00    +0.000 OA
ENDBRANCH  15  17
ENDBRANCH   8  11
ENDBRANCH   1   9
BRANCH   6  20
ATOM     20  N   UNL     1       2.105   5.715  18.567  0.00  0.00    +0.000 N 
ATOM     21  C   UNL     1       2.029   6.692  19.550  0.00  0.00    +0.000 C 
ATOM     22  O   UNL     1       2.152   6.511  20.758  0.00  0.00    +0.000 OA
ATOM     23  H   UNL     1       2.155   5.991  17.593  0.00  0.00    +0.000 HD
BRANCH  21  24
ATOM     24  C   UNL     1       1.741   8.096  19.155  0.00  0.00    +0.000 A 
ATOM     25  C   UNL     1       2.357   8.557  17.976  0.00  0.00    +0.000 A 
ATOM     26  C   UNL     1       2.340   9.911  17.634  0.00  0.00    +0.000 A 
ATOM     27  C   UNL     1       1.709  10.824  18.474  0.00  0.00    +0.000 A 
ATOM     28  C   UNL     1       1.077  10.363  19.641  0.00  0.00    +0.000 A 
ATOM     29  C   UNL     1       1.080   8.998  19.989  0.00  0.00    +0.000 A 
BRANCH  28  30
ATOM     30  N   UNL     1       0.453  11.338  20.541  0.00  0.00    +0.000 N 
ATOM     31  O   UNL     1       0.862  11.398  21.712  0.00  0.00    +0.000 OA
ATOM     32  O   UNL     1      -0.448  12.056  20.077  0.00  0.00    +0.000 OA
ENDBRANCH  28  30
ENDBRANCH  21  24
ENDBRANCH   6  20
TORSDOF 6
ENDMDL
MODEL 9
REMARK VINA RESULT:      -7.3      4.733      6.140
REMARK  Name = 
REMARK  6 active torsions:
REMARK  status: ('A' for Active; 'I' for Inactive)
REMARK    1  A    between atoms: C_2  and  C_22
REMARK    2  A    between atoms: N_3  and  C_4
REMARK    3  A    between atoms: C_9  and  N_10
REMARK    4  A    between atoms: C_11  and  C_13
REMARK    5  A    between atoms: C_17  and  N_18
REMARK    6  A    between atoms: C_26  and  N_27
REMARK                            x       y       z     vdW  Elec       q    Type
REMARK                         _______ _______ _______ _____ _____    ______ ____
ROOT
ATOM      1  C   UNL     1       5.014   6.176  17.099  0.00  0.00    +0.000 A 
ATOM      2  C   UNL     1       4.556   4.857  16.946  0.00  0.00    +0.000 A 
ATOM      3  C   UNL     1       5.366   3.926  16.322  0.00  0.00    +0.000 A 
ATOM      4  N   UNL     1       6.599   4.206  15.884  0.00  0.00    +0.000 NA
ATOM      5  C   UNL     1       7.041   5.476  16.077  0.00  0.00    +0.000 A 
ATOM      6  C   UNL     1       6.316   6.515  16.676  0.00  0.00    +0.000 A 
ENDROOT
BRANCH   1   9
ATOM      7  O   UNL     1       2.324   5.571  17.998  0.00  0.00    +0.000 OA
ATOM      8  C   UNL     1       2.844   6.662  18.180  0.00  0.00    +0.000 C 
ATOM      9  N   UNL     1       4.090   7.055  17.725  0.00  0.00    +0.000 N 
ATOM     10  H   UNL     1       4.510   7.810  18.257  0.00  0.00    +0.000 HD
BRANCH   8  11
ATOM     11  C   UNL     1       2.133   7.682  19.002  0.00  0.00    +0.000 A 
ATOM     12  C   UNL     1       1.876   7.438  20.359  0.00  0.00    +0.000 A 
ATOM     13  C   UNL     1       1.271   8.418  21.148  0.00  0.00    +0.000 A 
ATOM     14  C   UNL     1       0.911   9.644  20.586  0.00  0.00    +0.000 A 
ATOM     15  C   UNL     1       1.157   9.884  19.226  0.00  0.00    +0.000 A 
ATOM     16  C   UNL     1       1.773   8.908  18.426  0.00  0.00    +0.000 A 
BRANCH  15  17
ATOM     17  N   UNL     1       0.764  11.174  18.641  0.00  0.00    +0.000 N 
ATOM     18  O   UNL     1       1.652  12.020  18.463  0.00  0.00    +0.000 OA
ATOM     19  O   UNL     1      -0.432  11.340  18.371  0.00  0.00    +0.000 OA
ENDBRANCH  15  17
ENDBRANCH   8  11
ENDBRANCH   1   9
BRANCH   6  20
ATOM     20  N   UNL     1       6.888   7.800  16.936  0.00  0.00    +0.000 N 
ATOM     21  C   UNL     1       7.830   8.055  17.923  0.00  0.00    +0.000 C 
ATOM     22  O   UNL     1       8.359   7.217  18.649  0.00  0.00    +0.000 OA
ATOM     23  H   UNL     1       6.638   8.535  16.285  0.00  0.00    +0.000 HD
BRANCH  21  24
ATOM     24  C   UNL     1       8.243   9.458  18.185  0.00  0.00    +0.000 A 
ATOM     25  C   UNL     1       7.627  10.452  17.402  0.00  0.00    +0.000 A 
ATOM     26  C   UNL     1       8.097  11.768  17.404  0.00  0.00    +0.000 A 
ATOM     27  C   UNL     1       9.195  12.104  18.189  0.00  0.00    +0.000 A 
ATOM     28  C   UNL     1       9.800  11.118  18.987  0.00  0.00    +0.000 A 
ATOM     29  C   UNL     1       9.326   9.791  18.999  0.00  0.00    +0.000 A 
BRANCH  28  30
ATOM     30  N   UNL     1      10.983  11.472  19.776  0.00  0.00    +0.000 N 
ATOM     31  O   UNL     1      10.812  11.864  20.942  0.00  0.00    +0.000 OA
ATOM     32  O   UNL     1      12.095  11.352  19.233  0.00  0.00    +0.000 OA
ENDBRANCH  28  30
ENDBRANCH  21  24
ENDBRANCH   6  20
TORSDOF 6
ENDMDL
