MODEL 1
REMARK VINA RESULT:      -6.8      0.000      0.000
REMARK  Name = 
REMARK  6 active torsions:
REMARK  status: ('A' for Active; 'I' for Inactive)
REMARK    1  A    between atoms: N_8  and  C_9
REMARK    2  A    between atoms: C_9  and  C_10
REMARK    3  A    between atoms: C_10  and  S_11
REMARK    4  A    between atoms: S_11  and  C_12
REMARK    5  A    between atoms: C_12  and  C_13
REMARK    6  A    between atoms: C_13  and  P_14
REMARK                            x       y       z     vdW  Elec       q    Type
REMARK                         _______ _______ _______ _____ _____    ______ ____
ROOT
ATOM      1  N   UNL     1       8.475   5.247  20.392  0.00  0.00    +0.000 N 
ATOM      2  C   UNL     1       7.835   5.730  19.316  0.00  0.00    +0.000 A 
ATOM      3  N   UNL     1       6.878   4.994  18.773  0.00  0.00    +0.000 NA
ATOM      4  C   UNL     1       6.384   5.516  17.616  0.00  0.00    +0.000 A 
ATOM      5  C   UNL     1       6.616   6.732  17.065  0.00  0.00    +0.000 A 
ATOM      6  N   UNL     1       5.924   6.903  15.908  0.00  0.00    +0.000 NA
ATOM      7  C   UNL     1       5.328   5.756  15.707  0.00  0.00    +0.000 A 
ATOM      8  N   UNL     1       5.587   4.851  16.716  0.00  0.00    +0.000 N 
ATOM      9  C   UNL     1       7.557   7.602  17.759  0.00  0.00    +0.000 A 
ATOM     10  O   UNL     1       7.726   8.828  17.668  0.00  0.00    +0.000 OA
ATOM     11  N   UNL     1       8.192   6.928  18.797  0.00  0.00    +0.000 N 
ATOM     12  H   UNL     1       8.072   4.389  20.744  0.00  0.00    +0.000 HD
ATOM     13  H   UNL     1       8.754   5.894  21.119  0.00  0.00    +0.000 HD
ATOM     14  H   UNL     1       9.014   7.413  19.195  0.00  0.00    +0.000 HD
ENDROOT
BRANCH   8  15
ATOM     15  C   UNL     1       5.071   3.510  16.828  0.00  0.00    +0.000 C 
BRANCH  15  16
ATOM     16  C   UNL     1       3.709   3.367  17.512  0.00  0.00    +0.000 C 
BRANCH  16  17
ATOM     17  S   UNL     1       3.666   1.936  18.618  0.00  0.00    +0.000 S 
BRANCH  17  18
ATOM     18  C   UNL     1       1.868   1.823  18.931  0.00  0.00    +0.000 C 
BRANCH  18  19
ATOM     19  C   UNL     1       1.438   2.282  20.322  0.00  0.00    +0.000 C 
BRANCH  19  20
ATOM     20  P   UNL     1       1.956   3.978  20.773  0.00  0.00    +0.000 P 
ATOM     21  O   UNL     1       0.507   4.372  20.398  0.00  0.00    +0.000 OA
ATOM     22  O   UNL     1       2.173   3.408  22.181  0.00  0.00    +0.000 OA
ATOM     23  O   UNL     1       2.446   5.581  21.199  0.00  0.00    +0.000 OA
ENDBRANCH  19  20
ENDBRANCH  18  19
ENDBRANCH  17  18
ENDBRANCH  16  17
ENDBRANCH  15  16
ENDBRANCH   8  15
TORSDOF 6
ENDMDL
MODEL 2
REMARK VINA RESULT:      -6.4      3.406      6.081
REMARK  Name = 
REMARK  6 active torsions:
REMARK  status: ('A' for Active; 'I' for Inactive)
REMARK    1  A    between atoms: N_8  and  C_9
REMARK    2  A    between atoms: C_9  and  C_10
REMARK    3  A    between atoms: C_10  and  S_11
REMARK    4  A    between atoms: S_11  and  C_12
REMARK    5  A    between atoms: C_12  and  C_13
REMARK    6  A    between atoms: C_13  and  P_14
REMARK                            x       y       z     vdW  Elec       q    Type
REMARK                         _______ _______ _______ _____ _____    ______ ____
ROOT
ATOM      1  N   UNL     1       2.576   6.965  19.923  0.00  0.00    +0.000 N 
ATOM      2  C   UNL     1       2.590   5.630  19.797  0.00  0.00    +0.000 A 
ATOM      3  N   UNL     1       3.508   5.084  19.013  0.00  0.00    +0.000 NA
ATOM      4  C   UNL     1       3.354   3.740  18.854  0.00  0.00    +0.000 A 
ATOM      5  C   UNL     1       2.521   2.896  19.510  0.00  0.00    +0.000 A 
ATOM      6  N   UNL     1       2.668   1.613  19.089  0.00  0.00    +0.000 NA
ATOM      7  C   UNL     1       3.539   1.681  18.115  0.00  0.00    +0.000 A 
ATOM      8  N   UNL     1       3.986   2.970  17.908  0.00  0.00    +0.000 N 
ATOM      9  C   UNL     1       1.620   3.489  20.489  0.00  0.00    +0.000 A 
ATOM     10  O   UNL     1       0.992   2.958  21.419  0.00  0.00    +0.000 OA
ATOM     11  N   UNL     1       1.666   4.878  20.439  0.00  0.00    +0.000 N 
ATOM     12  H   UNL     1       3.358   7.418  19.471  0.00  0.00    +0.000 HD
ATOM     13  H   UNL     1       2.341   7.362  20.824  0.00  0.00    +0.000 HD
ATOM     14  H   UNL     1       0.909   5.360  20.953  0.00  0.00    +0.000 HD
ENDROOT
BRANCH   8  15
ATOM     15  C   UNL     1       4.964   3.401  16.941  0.00  0.00    +0.000 C 
BRANCH  15  16
ATOM     16  C   UNL     1       4.417   4.082  15.685  0.00  0.00    +0.000 C 
BRANCH  16  17
ATOM     17  S   UNL     1       5.667   5.120  14.890  0.00  0.00    +0.000 S 
BRANCH  17  18
ATOM     18  C   UNL     1       7.020   4.993  16.113  0.00  0.00    +0.000 C 
BRANCH  18  19
ATOM     19  C   UNL     1       7.152   6.198  17.040  0.00  0.00    +0.000 C 
BRANCH  19  20
ATOM     20  P   UNL     1       7.451   5.794  18.799  0.00  0.00    +0.000 P 
ATOM     21  O   UNL     1       8.065   4.485  18.250  0.00  0.00    +0.000 OA
ATOM     22  O   UNL     1       8.359   7.031  18.804  0.00  0.00    +0.000 OA
ATOM     23  O   UNL     1       7.734   5.413  20.462  0.00  0.00    +0.000 OA
ENDBRANCH  19  20
ENDBRANCH  18  19
ENDBRANCH  17  18
ENDBRANCH  16  17
ENDBRANCH  15  16
ENDBRANCH   8  15
TORSDOF 6
ENDMDL
MODEL 3
REMARK VINA RESULT:      -6.4      2.219      2.880
REMARK  Name = 
REMARK  6 active torsions:
REMARK  status: ('A' for Active; 'I' for Inactive)
REMARK    1  A    between atoms: N_8  and  C_9
REMARK    2  A    between atoms: C_9  and  C_10
REMARK    3  A    between atoms: C_10  and  S_11
REMARK    4  A    between atoms: S_11  and  C_12
REMARK    5  A    between atoms: C_12  and  C_13
REMARK    6  A    between atoms: C_13  and  P_14
REMARK                            x       y       z     vdW  Elec       q    Type
REMARK                         _______ _______ _______ _____ _____    ______ ____
ROOT
ATOM      1  N   UNL     1       8.449   5.633  19.752  0.00  0.00    +0.000 N 
ATOM      2  C   UNL     1       7.499   5.282  18.874  0.00  0.00    +0.000 A 
ATOM      3  N   UNL     1       6.443   4.620  19.322  0.00  0.00    +0.000 NA
ATOM      4  C   UNL     1       5.606   4.202  18.333  0.00  0.00    +0.000 A 
ATOM      5  C   UNL     1       5.624   4.515  17.014  0.00  0.00    +0.000 A 
ATOM      6  N   UNL     1       4.608   3.917  16.339  0.00  0.00    +0.000 NA
ATOM      7  C   UNL     1       4.011   3.170  17.232  0.00  0.00    +0.000 A 
ATOM      8  N   UNL     1       4.592   3.287  18.479  0.00  0.00    +0.000 N 
ATOM      9  C   UNL     1       6.706   5.377  16.557  0.00  0.00    +0.000 A 
ATOM     10  O   UNL     1       6.804   6.050  15.519  0.00  0.00    +0.000 OA
ATOM     11  N   UNL     1       7.646   5.579  17.561  0.00  0.00    +0.000 N 
ATOM     12  H   UNL     1       8.198   5.437  20.712  0.00  0.00    +0.000 HD
ATOM     13  H   UNL     1       8.918   6.521  19.628  0.00  0.00    +0.000 HD
ATOM     14  H   UNL     1       8.537   6.003  17.249  0.00  0.00    +0.000 HD
ENDROOT
BRANCH   8  15
ATOM     15  C   UNL     1       4.173   2.631  19.692  0.00  0.00    +0.000 C 
BRANCH  15  16
ATOM     16  C   UNL     1       2.723   2.144  19.730  0.00  0.00    +0.000 C 
BRANCH  16  17
ATOM     17  S   UNL     1       1.816   2.857  21.123  0.00  0.00    +0.000 S 
BRANCH  17  18
ATOM     18  C   UNL     1       0.987   4.257  20.289  0.00  0.00    +0.000 C 
BRANCH  18  19
ATOM     19  C   UNL     1       1.603   5.623  20.580  0.00  0.00    +0.000 C 
BRANCH  19  20
ATOM     20  P   UNL     1       2.402   6.433  19.147  0.00  0.00    +0.000 P 
ATOM     21  O   UNL     1       3.723   6.152  19.901  0.00  0.00    +0.000 OA
ATOM     22  O   UNL     1       1.820   5.278  18.321  0.00  0.00    +0.000 OA
ATOM     23  O   UNL     1       3.156   7.199  17.792  0.00  0.00    +0.000 OA
ENDBRANCH  19  20
ENDBRANCH  18  19
ENDBRANCH  17  18
ENDBRANCH  16  17
ENDBRANCH  15  16
ENDBRANCH   8  15
TORSDOF 6
ENDMDL
MODEL 4
REMARK VINA RESULT:      -6.4      1.253      1.569
REMARK  Name = 
REMARK  6 active torsions:
REMARK  status: ('A' for Active; 'I' for Inactive)
REMARK    1  A    between atoms: N_8  and  C_9
REMARK    2  A    between atoms: C_9  and  C_10
REMARK    3  A    between atoms: C_10  and  S_11
REMARK    4  A    between atoms: S_11  and  C_12
REMARK    5  A    between atoms: C_12  and  C_13
REMARK    6  A    between atoms: C_13  and  P_14
REMARK                            x       y       z     vdW  Elec       q    Type
REMARK                         _______ _______ _______ _____ _____    ______ ____
ROOT
ATOM      1  N   UNL     1       8.427   5.298  20.380  0.00  0.00    +0.000 N 
ATOM      2  C   UNL     1       7.815   5.699  19.256  0.00  0.00    +0.000 A 
ATOM      3  N   UNL     1       6.934   4.884  18.696  0.00  0.00    +0.000 NA
ATOM      4  C   UNL     1       6.469   5.331  17.496  0.00  0.00    +0.000 A 
ATOM      5  C   UNL     1       6.653   6.538  16.909  0.00  0.00    +0.000 A 
ATOM      6  N   UNL     1       6.013   6.622  15.714  0.00  0.00    +0.000 NA
ATOM      7  C   UNL     1       5.500   5.433  15.529  0.00  0.00    +0.000 A 
ATOM      8  N   UNL     1       5.762   4.584  16.585  0.00  0.00    +0.000 N 
ATOM      9  C   UNL     1       7.501   7.491  17.614  0.00  0.00    +0.000 A 
ATOM     10  O   UNL     1       7.599   8.721  17.482  0.00  0.00    +0.000 OA
ATOM     11  N   UNL     1       8.123   6.897  18.707  0.00  0.00    +0.000 N 
ATOM     12  H   UNL     1       8.061   4.429  20.746  0.00  0.00    +0.000 HD
ATOM     13  H   UNL     1       8.627   5.988  21.093  0.00  0.00    +0.000 HD
ATOM     14  H   UNL     1       8.892   7.448  19.125  0.00  0.00    +0.000 HD
ENDROOT
BRANCH   8  15
ATOM     15  C   UNL     1       5.325   3.218  16.725  0.00  0.00    +0.000 C 
BRANCH  15  16
ATOM     16  C   UNL     1       4.155   2.979  17.683  0.00  0.00    +0.000 C 
BRANCH  16  17
ATOM     17  S   UNL     1       2.615   3.680  17.043  0.00  0.00    +0.000 S 
BRANCH  17  18
ATOM     18  C   UNL     1       2.012   4.551  18.533  0.00  0.00    +0.000 C 
BRANCH  18  19
ATOM     19  C   UNL     1       2.882   4.363  19.773  0.00  0.00    +0.000 C 
BRANCH  19  20
ATOM     20  P   UNL     1       2.144   3.326  21.087  0.00  0.00    +0.000 P 
ATOM     21  O   UNL     1       3.414   2.458  20.925  0.00  0.00    +0.000 OA
ATOM     22  O   UNL     1       2.270   4.573  21.974  0.00  0.00    +0.000 OA
ATOM     23  O   UNL     1       1.445   2.348  22.330  0.00  0.00    +0.000 OA
ENDBRANCH  19  20
ENDBRANCH  18  19
ENDBRANCH  17  18
ENDBRANCH  16  17
ENDBRANCH  15  16
ENDBRANCH   8  15
TORSDOF 6
ENDMDL
MODEL 5
REMARK VINA RESULT:      -6.3      3.387      6.002
REMARK  Name = 
REMARK  6 active torsions:
REMARK  status: ('A' for Active; 'I' for Inactive)
REMARK    1  A    between atoms: N_8  and  C_9
REMARK    2  A    between atoms: C_9  and  C_10
REMARK    3  A    between atoms: C_10  and  S_11
REMARK    4  A    between atoms: S_11  and  C_12
REMARK    5  A    between atoms: C_12  and  C_13
REMARK    6  A    between atoms: C_13  and  P_14
REMARK                            x       y       z     vdW  Elec       q    Type
REMARK                         _______ _______ _______ _____ _____    ______ ____
ROOT
ATOM      1  N   UNL     1       2.507   7.129  20.108  0.00  0.00    +0.000 N 
ATOM      2  C   UNL     1       2.598   5.792  20.041  0.00  0.00    +0.000 A 
ATOM      3  N   UNL     1       3.143   5.255  18.959  0.00  0.00    +0.000 NA
ATOM      4  C   UNL     1       3.069   3.895  18.936  0.00  0.00    +0.000 A 
ATOM      5  C   UNL     1       2.682   3.047  19.919  0.00  0.00    +0.000 A 
ATOM      6  N   UNL     1       2.762   1.748  19.527  0.00  0.00    +0.000 NA
ATOM      7  C   UNL     1       3.123   1.804  18.271  0.00  0.00    +0.000 A 
ATOM      8  N   UNL     1       3.310   3.101  17.840  0.00  0.00    +0.000 N 
ATOM      9  C   UNL     1       2.232   3.648  21.168  0.00  0.00    +0.000 A 
ATOM     10  O   UNL     1       2.116   3.147  22.297  0.00  0.00    +0.000 OA
ATOM     11  N   UNL     1       2.115   5.028  21.048  0.00  0.00    +0.000 N 
ATOM     12  H   UNL     1       2.973   7.600  19.345  0.00  0.00    +0.000 HD
ATOM     13  H   UNL     1       2.641   7.577  21.006  0.00  0.00    +0.000 HD
ATOM     14  H   UNL     1       1.606   5.493  21.819  0.00  0.00    +0.000 HD
ENDROOT
BRANCH   8  15
ATOM     15  C   UNL     1       3.734   3.525  16.530  0.00  0.00    +0.000 C 
BRANCH  15  16
ATOM     16  C   UNL     1       5.201   3.938  16.396  0.00  0.00    +0.000 C 
BRANCH  16  17
ATOM     17  S   UNL     1       5.381   5.462  15.438  0.00  0.00    +0.000 S 
BRANCH  17  18
ATOM     18  C   UNL     1       5.863   6.624  16.765  0.00  0.00    +0.000 C 
BRANCH  18  19
ATOM     19  C   UNL     1       7.333   6.548  17.170  0.00  0.00    +0.000 C 
BRANCH  19  20
ATOM     20  P   UNL     1       7.643   5.864  18.838  0.00  0.00    +0.000 P 
ATOM     21  O   UNL     1       8.505   7.131  19.047  0.00  0.00    +0.000 OA
ATOM     22  O   UNL     1       6.131   6.018  19.051  0.00  0.00    +0.000 OA
ATOM     23  O   UNL     1       7.935   5.217  20.415  0.00  0.00    +0.000 OA
ENDBRANCH  19  20
ENDBRANCH  18  19
ENDBRANCH  17  18
ENDBRANCH  16  17
ENDBRANCH  15  16
ENDBRANCH   8  15
TORSDOF 6
ENDMDL
MODEL 6
REMARK VINA RESULT:      -6.2      4.274      6.758
REMARK  Name = 
REMARK  6 active torsions:
REMARK  status: ('A' for Active; 'I' for Inactive)
REMARK    1  A    between atoms: N_8  and  C_9
REMARK    2  A    between atoms: C_9  and  C_10
REMARK    3  A    between atoms: C_10  and  S_11
REMARK    4  A    between atoms: S_11  and  C_12
REMARK    5  A    between atoms: C_12  and  C_13
REMARK    6  A    between atoms: C_13  and  P_14
REMARK                            x       y       z     vdW  Elec       q    Type
REMARK                         _______ _______ _______ _____ _____    ______ ____
ROOT
ATOM      1  N   UNL     1       4.247   0.493  18.231  0.00  0.00    +0.000 N 
ATOM      2  C   UNL     1       3.563   1.622  18.470  0.00  0.00    +0.000 A 
ATOM      3  N   UNL     1       4.241   2.756  18.573  0.00  0.00    +0.000 NA
ATOM      4  C   UNL     1       3.469   3.815  18.943  0.00  0.00    +0.000 A 
ATOM      5  C   UNL     1       2.120   3.891  19.045  0.00  0.00    +0.000 A 
ATOM      6  N   UNL     1       1.710   5.129  19.425  0.00  0.00    +0.000 NA
ATOM      7  C   UNL     1       2.817   5.794  19.635  0.00  0.00    +0.000 A 
ATOM      8  N   UNL     1       3.938   5.033  19.374  0.00  0.00    +0.000 N 
ATOM      9  C   UNL     1       1.370   2.671  18.775  0.00  0.00    +0.000 A 
ATOM     10  O   UNL     1       0.169   2.518  18.502  0.00  0.00    +0.000 OA
ATOM     11  N   UNL     1       2.219   1.580  18.629  0.00  0.00    +0.000 N 
ATOM     12  H   UNL     1       5.228   0.652  18.047  0.00  0.00    +0.000 HD
ATOM     13  H   UNL     1       3.828  -0.207  17.631  0.00  0.00    +0.000 HD
ATOM     14  H   UNL     1       1.753   0.657  18.644  0.00  0.00    +0.000 HD
ENDROOT
BRANCH   8  15
ATOM     15  C   UNL     1       5.313   5.456  19.471  0.00  0.00    +0.000 C 
BRANCH  15  16
ATOM     16  C   UNL     1       6.228   5.045  18.315  0.00  0.00    +0.000 C 
BRANCH  16  17
ATOM     17  S   UNL     1       6.222   6.276  16.989  0.00  0.00    +0.000 S 
BRANCH  17  18
ATOM     18  C   UNL     1       5.304   5.360  15.701  0.00  0.00    +0.000 C 
BRANCH  18  19
ATOM     19  C   UNL     1       5.936   4.030  15.298  0.00  0.00    +0.000 C 
BRANCH  19  20
ATOM     20  P   UNL     1       6.481   3.929  13.554  0.00  0.00    +0.000 P 
ATOM     21  O   UNL     1       4.974   4.035  13.221  0.00  0.00    +0.000 OA
ATOM     22  O   UNL     1       7.219   5.245  13.833  0.00  0.00    +0.000 OA
ATOM     23  O   UNL     1       6.997   3.833  11.906  0.00  0.00    +0.000 OA
ENDBRANCH  19  20
ENDBRANCH  18  19
ENDBRANCH  17  18
ENDBRANCH  16  17
ENDBRANCH  15  16
ENDBRANCH   8  15
TORSDOF 6
ENDMDL
MODEL 7
REMARK VINA RESULT:      -6.1      4.576      5.029
REMARK  Name = 
REMARK  6 active torsions:
REMARK  status: ('A' for Active; 'I' for Inactive)
REMARK    1  A    between atoms: N_8  and  C_9
REMARK    2  A    between atoms: C_9  and  C_10
REMARK    3  A    between atoms: C_10  and  S_11
REMARK    4  A    between atoms: S_11  and  C_12
REMARK    5  A    between atoms: C_12  and  C_13
REMARK    6  A    between atoms: C_13  and  P_14
REMARK                            x       y       z     vdW  Elec       q    Type
REMARK                         _______ _______ _______ _____ _____    ______ ____
ROOT
ATOM      1  N   UNL     1       8.442   5.378  20.364  0.00  0.00    +0.000 N 
ATOM      2  C   UNL     1       7.562   5.252  19.360  0.00  0.00    +0.000 A 
ATOM      3  N   UNL     1       6.322   5.676  19.556  0.00  0.00    +0.000 NA
ATOM      4  C   UNL     1       5.482   5.386  18.524  0.00  0.00    +0.000 A 
ATOM      5  C   UNL     1       5.780   4.893  17.297  0.00  0.00    +0.000 A 
ATOM      6  N   UNL     1       4.670   4.755  16.525  0.00  0.00    +0.000 NA
ATOM      7  C   UNL     1       3.678   5.087  17.310  0.00  0.00    +0.000 A 
ATOM      8  N   UNL     1       4.111   5.468  18.563  0.00  0.00    +0.000 N 
ATOM      9  C   UNL     1       7.178   4.576  17.036  0.00  0.00    +0.000 A 
ATOM     10  O   UNL     1       7.770   4.410  15.958  0.00  0.00    +0.000 OA
ATOM     11  N   UNL     1       7.941   4.678  18.194  0.00  0.00    +0.000 N 
ATOM     12  H   UNL     1       8.078   5.894  21.153  0.00  0.00    +0.000 HD
ATOM     13  H   UNL     1       9.403   5.604  20.138  0.00  0.00    +0.000 HD
ATOM     14  H   UNL     1       8.889   4.270  18.131  0.00  0.00    +0.000 HD
ENDROOT
BRANCH   8  15
ATOM     15  C   UNL     1       3.293   5.922  19.660  0.00  0.00    +0.000 C 
BRANCH  15  16
ATOM     16  C   UNL     1       2.224   6.962  19.320  0.00  0.00    +0.000 C 
BRANCH  16  17
ATOM     17  S   UNL     1       1.506   7.693  20.810  0.00  0.00    +0.000 S 
BRANCH  17  18
ATOM     18  C   UNL     1       1.074   9.355  20.181  0.00  0.00    +0.000 C 
BRANCH  18  19
ATOM     19  C   UNL     1      -0.349   9.803  20.501  0.00  0.00    +0.000 C 
BRANCH  19  20
ATOM     20  P   UNL     1      -0.495  10.995  21.882  0.00  0.00    +0.000 P 
ATOM     21  O   UNL     1       1.037  11.150  21.727  0.00  0.00    +0.000 OA
ATOM     22  O   UNL     1      -1.370  11.814  20.924  0.00  0.00    +0.000 OA
ATOM     23  O   UNL     1      -0.633  12.122  23.187  0.00  0.00    +0.000 OA
ENDBRANCH  19  20
ENDBRANCH  18  19
ENDBRANCH  17  18
ENDBRANCH  16  17
ENDBRANCH  15  16
ENDBRANCH   8  15
TORSDOF 6
ENDMDL
MODEL 8
REMARK VINA RESULT:      -6.1      4.047      6.378
REMARK  Name = 
REMARK  6 active torsions:
REMARK  status: ('A' for Active; 'I' for Inactive)
REMARK    1  A    between atoms: N_8  and  C_9
REMARK    2  A    between atoms: C_9  and  C_10
REMARK    3  A    between atoms: C_10  and  S_11
REMARK    4  A    between atoms: S_11  and  C_12
REMARK    5  A    between atoms: C_12  and  C_13
REMARK    6  A    between atoms: C_13  and  P_14
REMARK                            x       y       z     vdW  Elec       q    Type
REMARK                         _______ _______ _______ _____ _____    ______ ____
ROOT
ATOM      1  N   UNL     1       4.084   1.593  17.910  0.00  0.00    +0.000 N 
ATOM      2  C   UNL     1       3.521   2.453  18.772  0.00  0.00    +0.000 A 
ATOM      3  N   UNL     1       3.040   3.592  18.298  0.00  0.00    +0.000 NA
ATOM      4  C   UNL     1       2.609   4.443  19.270  0.00  0.00    +0.000 A 
ATOM      5  C   UNL     1       2.455   4.212  20.597  0.00  0.00    +0.000 A 
ATOM      6  N   UNL     1       1.980   5.306  21.248  0.00  0.00    +0.000 NA
ATOM      7  C   UNL     1       1.919   6.237  20.331  0.00  0.00    +0.000 A 
ATOM      8  N   UNL     1       2.312   5.773  19.093  0.00  0.00    +0.000 N 
ATOM      9  C   UNL     1       2.842   2.895  21.085  0.00  0.00    +0.000 A 
ATOM     10  O   UNL     1       2.542   2.316  22.141  0.00  0.00    +0.000 OA
ATOM     11  N   UNL     1       3.482   2.159  20.093  0.00  0.00    +0.000 N 
ATOM     12  H   UNL     1       3.984   1.873  16.944  0.00  0.00    +0.000 HD
ATOM     13  H   UNL     1       3.952   0.601  18.062  0.00  0.00    +0.000 HD
ATOM     14  H   UNL     1       3.965   1.306  20.423  0.00  0.00    +0.000 HD
ENDROOT
BRANCH   8  15
ATOM     15  C   UNL     1       2.339   6.518  17.859  0.00  0.00    +0.000 C 
BRANCH  15  16
ATOM     16  C   UNL     1       3.429   7.585  17.739  0.00  0.00    +0.000 C 
BRANCH  16  17
ATOM     17  S   UNL     1       4.812   7.015  16.722  0.00  0.00    +0.000 S 
BRANCH  17  18
ATOM     18  C   UNL     1       5.691   5.962  17.930  0.00  0.00    +0.000 C 
BRANCH  18  19
ATOM     19  C   UNL     1       6.620   4.923  17.308  0.00  0.00    +0.000 C 
BRANCH  19  20
ATOM     20  P   UNL     1       6.295   4.551  15.546  0.00  0.00    +0.000 P 
ATOM     21  O   UNL     1       7.830   4.650  15.385  0.00  0.00    +0.000 OA
ATOM     22  O   UNL     1       5.741   3.213  16.054  0.00  0.00    +0.000 OA
ATOM     23  O   UNL     1       5.987   4.198  13.880  0.00  0.00    +0.000 OA
ENDBRANCH  19  20
ENDBRANCH  18  19
ENDBRANCH  17  18
ENDBRANCH  16  17
ENDBRANCH  15  16
ENDBRANCH   8  15
TORSDOF 6
ENDMDL
MODEL 9
REMARK VINA RESULT:      -6.0      4.843      6.061
REMARK  Name = 
REMARK  6 active torsions:
REMARK  status: ('A' for Active; 'I' for Inactive)
REMARK    1  A    between atoms: N_8  and  C_9
REMARK    2  A    between atoms: C_9  and  C_10
REMARK    3  A    between atoms: C_10  and  S_11
REMARK    4  A    between atoms: S_11  and  C_12
REMARK    5  A    between atoms: C_12  and  C_13
REMARK    6  A    between atoms: C_13  and  P_14
REMARK                            x       y       z     vdW  Elec       q    Type
REMARK                         _______ _______ _______ _____ _____    ______ ____
ROOT
ATOM      1  N   UNL     1       1.075   2.793  21.966  0.00  0.00    +0.000 N 
ATOM      2  C   UNL     1       2.097   3.070  21.142  0.00  0.00    +0.000 A 
ATOM      3  N   UNL     1       2.057   4.199  20.451  0.00  0.00    +0.000 NA
ATOM      4  C   UNL     1       3.075   4.320  19.554  0.00  0.00    +0.000 A 
ATOM      5  C   UNL     1       4.177   3.545  19.408  0.00  0.00    +0.000 A 
ATOM      6  N   UNL     1       4.982   3.996  18.411  0.00  0.00    +0.000 NA
ATOM      7  C   UNL     1       4.332   5.004  17.889  0.00  0.00    +0.000 A 
ATOM      8  N   UNL     1       3.138   5.243  18.538  0.00  0.00    +0.000 N 
ATOM      9  C   UNL     1       4.289   2.388  20.286  0.00  0.00    +0.000 A 
ATOM     10  O   UNL     1       5.282   1.705  20.581  0.00  0.00    +0.000 OA
ATOM     11  N   UNL     1       3.120   2.193  21.012  0.00  0.00    +0.000 N 
ATOM     12  H   UNL     1       0.412   3.551  22.049  0.00  0.00    +0.000 HD
ATOM     13  H   UNL     1       1.275   2.329  22.844  0.00  0.00    +0.000 HD
ATOM     14  H   UNL     1       3.051   1.280  21.494  0.00  0.00    +0.000 HD
ENDROOT
BRANCH   8  15
ATOM     15  C   UNL     1       2.190   6.290  18.247  0.00  0.00    +0.000 C 
BRANCH  15  16
ATOM     16  C   UNL     1       2.514   7.672  18.820  0.00  0.00    +0.000 C 
BRANCH  16  17
ATOM     17  S   UNL     1       1.661   8.985  17.915  0.00  0.00    +0.000 S 
BRANCH  17  18
ATOM     18  C   UNL     1       1.256  10.118  19.292  0.00  0.00    +0.000 C 
BRANCH  18  19
ATOM     19  C   UNL     1      -0.029   9.771  20.040  0.00  0.00    +0.000 C 
BRANCH  19  20
ATOM     20  P   UNL     1       0.102   9.813  21.865  0.00  0.00    +0.000 P 
ATOM     21  O   UNL     1      -0.844  11.033  21.767  0.00  0.00    +0.000 OA
ATOM     22  O   UNL     1      -0.554   8.427  21.825  0.00  0.00    +0.000 OA
ATOM     23  O   UNL     1       0.226   9.853  23.590  0.00  0.00    +0.000 OA
ENDBRANCH  19  20
ENDBRANCH  18  19
ENDBRANCH  17  18
ENDBRANCH  16  17
ENDBRANCH  15  16
ENDBRANCH   8  15
TORSDOF 6
ENDMDL
