MODEL 1
REMARK VINA RESULT:      -9.3      0.000      0.000
REMARK  Name = 
REMARK  9 active torsions:
REMARK  status: ('A' for Active; 'I' for Inactive)
REMARK    1  A    between atoms: C_1  and  C_2
REMARK    2  A    between atoms: C_2  and  C_4
REMARK    3  A    between atoms: C_8  and  N_9
REMARK    4  A    between atoms: N_9  and  S_10
REMARK    5  A    between atoms: S_10  and  C_13
REMARK    6  A    between atoms: C_16  and  N_17
REMARK    7  A    between atoms: N_17  and  C_18
REMARK    8  A    between atoms: C_19  and  C_20
REMARK    9  A    between atoms: C_20  and  C_22
REMARK                            x       y       z     vdW  Elec       q    Type
REMARK                         _______ _______ _______ _____ _____    ______ ____
ROOT
ATOM      1  C   UNL     1       2.626   4.921  19.131  0.00  0.00    +0.000 A 
ATOM      2  C   UNL     1       2.059   5.070  20.396  0.00  0.00    +0.000 A 
ATOM      3  C   UNL     1       1.687   6.342  20.838  0.00  0.00    +0.000 A 
ATOM      4  C   UNL     1       1.861   7.474  20.029  0.00  0.00    +0.000 A 
ATOM      5  C   UNL     1       2.456   7.303  18.769  0.00  0.00    +0.000 A 
ATOM      6  C   UNL     1       2.848   6.036  18.322  0.00  0.00    +0.000 A 
ENDROOT
BRANCH   1   7
ATOM      7  S   UNL     1       3.126   3.305  18.583  0.00  0.00    +0.000 S 
ATOM      8  O   UNL     1       2.932   3.248  17.151  0.00  0.00    +0.000 OA
ATOM      9  O   UNL     1       2.522   2.324  19.463  0.00  0.00    +0.000 OA
BRANCH   7  10
ATOM     10  N   UNL     1       4.782   3.317  18.833  0.00  0.00    +0.000 N 
ATOM     11  H   UNL     1       5.179   2.505  19.301  0.00  0.00    +0.000 HD
BRANCH  10  16
ATOM     12  C   UNL     1       6.701   5.060  16.164  0.00  0.00    +0.000 A 
ATOM     13  C   UNL     1       7.309   6.074  16.916  0.00  0.00    +0.000 A 
ATOM     14  C   UNL     1       7.072   6.168  18.287  0.00  0.00    +0.000 A 
ATOM     15  C   UNL     1       6.227   5.254  18.913  0.00  0.00    +0.000 A 
ATOM     16  C   UNL     1       5.614   4.247  18.168  0.00  0.00    +0.000 A 
ATOM     17  C   UNL     1       5.852   4.141  16.798  0.00  0.00    +0.000 A 
BRANCH  12  19
ATOM     18  C   UNL     1       6.060   4.006  13.896  0.00  0.00    +0.000 C 
ATOM     19  C   UNL     1       6.949   4.922  14.699  0.00  0.00    +0.000 C 
ATOM     20  O   UNL     1       7.855   5.561  14.168  0.00  0.00    +0.000 OA
ENDBRANCH  12  19
ENDBRANCH  10  16
ENDBRANCH   7  10
ENDBRANCH   1   7
BRANCH   4  21
ATOM     21  N   UNL     1       1.565   8.773  20.480  0.00  0.00    +0.000 N 
ATOM     22  H   UNL     1       2.314   9.254  20.965  0.00  0.00    +0.000 HD
BRANCH  21  23
ATOM     23  C   UNL     1       0.382   9.446  20.314  0.00  0.00    +0.000 C 
ATOM     24  C   UNL     1       0.122  10.437  19.452  0.00  0.00    +0.000 C 
BRANCH  24  25
ATOM     25  C   UNL     1      -1.231  11.059  19.433  0.00  0.00    +0.000 C 
ATOM     26  O   UNL     1      -1.660  11.740  20.356  0.00  0.00    +0.000 OA
BRANCH  25  27
ATOM     27  C   UNL     1      -2.049  10.848  18.210  0.00  0.00    +0.000 A 
ATOM     28  C   UNL     1      -1.647   9.937  17.221  0.00  0.00    +0.000 A 
ATOM     29  C   UNL     1      -2.422   9.762  16.075  0.00  0.00    +0.000 A 
ATOM     30  C   UNL     1      -3.600  10.484  15.928  0.00  0.00    +0.000 A 
ATOM     31  F   UNL     1      -4.339  10.316  14.824  0.00  0.00    +0.000 F 
ATOM     32  C   UNL     1      -4.027  11.372  16.911  0.00  0.00    +0.000 A 
ATOM     33  C   UNL     1      -3.254  11.551  18.061  0.00  0.00    +0.000 A 
ENDBRANCH  25  27
ENDBRANCH  24  25
ENDBRANCH  21  23
ENDBRANCH   4  21
TORSDOF 8
ENDMDL
MODEL 2
REMARK VINA RESULT:      -9.1      3.079      3.556
REMARK  Name = 
REMARK  9 active torsions:
REMARK  status: ('A' for Active; 'I' for Inactive)
REMARK    1  A    between atoms: C_1  and  C_2
REMARK    2  A    between atoms: C_2  and  C_4
REMARK    3  A    between atoms: C_8  and  N_9
REMARK    4  A    between atoms: N_9  and  S_10
REMARK    5  A    between atoms: S_10  and  C_13
REMARK    6  A    between atoms: C_16  and  N_17
REMARK    7  A    between atoms: N_17  and  C_18
REMARK    8  A    between atoms: C_19  and  C_20
REMARK    9  A    between atoms: C_20  and  C_22
REMARK                            x       y       z     vdW  Elec       q    Type
REMARK                         _______ _______ _______ _____ _____    ______ ____
ROOT
ATOM      1  C   UNL     1       2.875   4.853  19.160  0.00  0.00    +0.000 A 
ATOM      2  C   UNL     1       2.330   5.147  20.409  0.00  0.00    +0.000 A 
ATOM      3  C   UNL     1       1.839   6.430  20.661  0.00  0.00    +0.000 A 
ATOM      4  C   UNL     1       1.870   7.429  19.678  0.00  0.00    +0.000 A 
ATOM      5  C   UNL     1       2.445   7.117  18.435  0.00  0.00    +0.000 A 
ATOM      6  C   UNL     1       2.956   5.840  18.176  0.00  0.00    +0.000 A 
ENDROOT
BRANCH   1   7
ATOM      7  S   UNL     1       3.526   3.228  18.851  0.00  0.00    +0.000 S 
ATOM      8  O   UNL     1       3.345   2.942  17.445  0.00  0.00    +0.000 OA
ATOM      9  O   UNL     1       3.014   2.336  19.872  0.00  0.00    +0.000 OA
BRANCH   7  10
ATOM     10  N   UNL     1       5.173   3.433  19.080  0.00  0.00    +0.000 N 
ATOM     11  H   UNL     1       5.652   2.712  19.615  0.00  0.00    +0.000 HD
BRANCH  10  16
ATOM     12  C   UNL     1       6.816   5.154  16.220  0.00  0.00    +0.000 A 
ATOM     13  C   UNL     1       7.402   6.239  16.885  0.00  0.00    +0.000 A 
ATOM     14  C   UNL     1       7.242   6.386  18.263  0.00  0.00    +0.000 A 
ATOM     15  C   UNL     1       6.495   5.455  18.981  0.00  0.00    +0.000 A 
ATOM     16  C   UNL     1       5.904   4.377  18.322  0.00  0.00    +0.000 A 
ATOM     17  C   UNL     1       6.066   4.218  16.947  0.00  0.00    +0.000 A 
BRANCH  12  19
ATOM     18  C   UNL     1       6.035   4.038  14.026  0.00  0.00    +0.000 C 
ATOM     19  C   UNL     1       6.985   4.960  14.749  0.00  0.00    +0.000 C 
ATOM     20  O   UNL     1       7.876   5.557  14.151  0.00  0.00    +0.000 OA
ENDBRANCH  12  19
ENDBRANCH  10  16
ENDBRANCH   7  10
ENDBRANCH   1   7
BRANCH   4  21
ATOM     21  N   UNL     1       1.451   8.747  19.932  0.00  0.00    +0.000 N 
ATOM     22  H   UNL     1       1.501   9.386  19.147  0.00  0.00    +0.000 HD
BRANCH  21  23
ATOM     23  C   UNL     1       0.974   9.239  21.120  0.00  0.00    +0.000 C 
ATOM     24  C   UNL     1       0.011  10.154  21.295  0.00  0.00    +0.000 C 
BRANCH  24  25
ATOM     25  C   UNL     1      -0.359  10.575  22.675  0.00  0.00    +0.000 C 
ATOM     26  O   UNL     1       0.000   9.964  23.673  0.00  0.00    +0.000 OA
BRANCH  25  27
ATOM     27  C   UNL     1      -1.169  11.815  22.802  0.00  0.00    +0.000 A 
ATOM     28  C   UNL     1      -0.658  13.057  22.396  0.00  0.00    +0.000 A 
ATOM     29  C   UNL     1      -1.429  14.210  22.535  0.00  0.00    +0.000 A 
ATOM     30  C   UNL     1      -2.712  14.117  23.062  0.00  0.00    +0.000 A 
ATOM     31  F   UNL     1      -3.447  15.228  23.197  0.00  0.00    +0.000 F 
ATOM     32  C   UNL     1      -3.244  12.890  23.445  0.00  0.00    +0.000 A 
ATOM     33  C   UNL     1      -2.475  11.731  23.309  0.00  0.00    +0.000 A 
ENDBRANCH  25  27
ENDBRANCH  24  25
ENDBRANCH  21  23
ENDBRANCH   4  21
TORSDOF 8
ENDMDL
MODEL 3
REMARK VINA RESULT:      -9.0      0.955      1.324
REMARK  Name = 
REMARK  9 active torsions:
REMARK  status: ('A' for Active; 'I' for Inactive)
REMARK    1  A    between atoms: C_1  and  C_2
REMARK    2  A    between atoms: C_2  and  C_4
REMARK    3  A    between atoms: C_8  and  N_9
REMARK    4  A    between atoms: N_9  and  S_10
REMARK    5  A    between atoms: S_10  and  C_13
REMARK    6  A    between atoms: C_16  and  N_17
REMARK    7  A    between atoms: N_17  and  C_18
REMARK    8  A    between atoms: C_19  and  C_20
REMARK    9  A    between atoms: C_20  and  C_22
REMARK                            x       y       z     vdW  Elec       q    Type
REMARK                         _______ _______ _______ _____ _____    ______ ____
ROOT
ATOM      1  C   UNL     1       2.277   4.640  18.931  0.00  0.00    +0.000 A 
ATOM      2  C   UNL     1       1.863   4.631  20.263  0.00  0.00    +0.000 A 
ATOM      3  C   UNL     1       1.655   5.842  20.926  0.00  0.00    +0.000 A 
ATOM      4  C   UNL     1       1.841   7.071  20.277  0.00  0.00    +0.000 A 
ATOM      5  C   UNL     1       2.281   7.056  18.944  0.00  0.00    +0.000 A 
ATOM      6  C   UNL     1       2.510   5.848  18.273  0.00  0.00    +0.000 A 
ENDROOT
BRANCH   1   7
ATOM      7  S   UNL     1       2.570   3.098  18.097  0.00  0.00    +0.000 S 
ATOM      8  O   UNL     1       2.371   3.318  16.682  0.00  0.00    +0.000 OA
ATOM      9  O   UNL     1       1.848   2.058  18.805  0.00  0.00    +0.000 OA
BRANCH   7  10
ATOM     10  N   UNL     1       4.215   2.861  18.309  0.00  0.00    +0.000 N 
ATOM     11  H   UNL     1       4.511   1.923  18.569  0.00  0.00    +0.000 HD
BRANCH  10  16
ATOM     12  C   UNL     1       6.495   4.800  16.100  0.00  0.00    +0.000 A 
ATOM     13  C   UNL     1       7.052   5.685  17.032  0.00  0.00    +0.000 A 
ATOM     14  C   UNL     1       6.663   5.631  18.370  0.00  0.00    +0.000 A 
ATOM     15  C   UNL     1       5.716   4.696  18.783  0.00  0.00    +0.000 A 
ATOM     16  C   UNL     1       5.154   3.817  17.858  0.00  0.00    +0.000 A 
ATOM     17  C   UNL     1       5.543   3.859  16.520  0.00  0.00    +0.000 A 
BRANCH  12  19
ATOM     18  C   UNL     1       6.201   3.906  13.696  0.00  0.00    +0.000 C 
ATOM     19  C   UNL     1       6.905   4.822  14.664  0.00  0.00    +0.000 C 
ATOM     20  O   UNL     1       7.790   5.588  14.292  0.00  0.00    +0.000 OA
ENDBRANCH  12  19
ENDBRANCH  10  16
ENDBRANCH   7  10
ENDBRANCH   1   7
BRANCH   4  21
ATOM     21  N   UNL     1       1.712   8.302  20.945  0.00  0.00    +0.000 N 
ATOM     22  H   UNL     1       2.111   8.345  21.875  0.00  0.00    +0.000 HD
BRANCH  21  23
ATOM     23  C   UNL     1       1.119   9.439  20.457  0.00  0.00    +0.000 C 
ATOM     24  C   UNL     1       0.375   9.558  19.350  0.00  0.00    +0.000 C 
BRANCH  24  25
ATOM     25  C   UNL     1      -0.172  10.892  18.974  0.00  0.00    +0.000 C 
ATOM     26  O   UNL     1       0.498  11.916  19.006  0.00  0.00    +0.000 OA
BRANCH  25  27
ATOM     27  C   UNL     1      -1.585  10.930  18.512  0.00  0.00    +0.000 A 
ATOM     28  C   UNL     1      -2.503  11.830  19.074  0.00  0.00    +0.000 A 
ATOM     29  C   UNL     1      -3.827  11.842  18.636  0.00  0.00    +0.000 A 
ATOM     30  C   UNL     1      -4.224  10.970  17.630  0.00  0.00    +0.000 A 
ATOM     31  F   UNL     1      -5.497  10.983  17.216  0.00  0.00    +0.000 F 
ATOM     32  C   UNL     1      -3.320  10.090  17.044  0.00  0.00    +0.000 A 
ATOM     33  C   UNL     1      -1.993  10.073  17.480  0.00  0.00    +0.000 A 
ENDBRANCH  25  27
ENDBRANCH  24  25
ENDBRANCH  21  23
ENDBRANCH   4  21
TORSDOF 8
ENDMDL
MODEL 4
REMARK VINA RESULT:      -8.9      5.004      8.404
REMARK  Name = 
REMARK  9 active torsions:
REMARK  status: ('A' for Active; 'I' for Inactive)
REMARK    1  A    between atoms: C_1  and  C_2
REMARK    2  A    between atoms: C_2  and  C_4
REMARK    3  A    between atoms: C_8  and  N_9
REMARK    4  A    between atoms: N_9  and  S_10
REMARK    5  A    between atoms: S_10  and  C_13
REMARK    6  A    between atoms: C_16  and  N_17
REMARK    7  A    between atoms: N_17  and  C_18
REMARK    8  A    between atoms: C_19  and  C_20
REMARK    9  A    between atoms: C_20  and  C_22
REMARK                            x       y       z     vdW  Elec       q    Type
REMARK                         _______ _______ _______ _____ _____    ______ ____
ROOT
ATOM      1  C   UNL     1       5.014   4.210  18.140  0.00  0.00    +0.000 A 
ATOM      2  C   UNL     1       5.727   4.910  19.113  0.00  0.00    +0.000 A 
ATOM      3  C   UNL     1       6.523   5.994  18.734  0.00  0.00    +0.000 A 
ATOM      4  C   UNL     1       6.613   6.401  17.396  0.00  0.00    +0.000 A 
ATOM      5  C   UNL     1       5.905   5.666  16.431  0.00  0.00    +0.000 A 
ATOM      6  C   UNL     1       5.117   4.568  16.795  0.00  0.00    +0.000 A 
ENDROOT
BRANCH   1   7
ATOM      7  S   UNL     1       4.024   2.813  18.619  0.00  0.00    +0.000 S 
ATOM      8  O   UNL     1       4.399   2.450  19.968  0.00  0.00    +0.000 OA
ATOM      9  O   UNL     1       4.062   1.843  17.542  0.00  0.00    +0.000 OA
BRANCH   7  10
ATOM     10  N   UNL     1       2.482   3.460  18.718  0.00  0.00    +0.000 N 
ATOM     11  H   UNL     1       1.707   2.805  18.640  0.00  0.00    +0.000 HD
BRANCH  10  16
ATOM     12  C   UNL     1       2.203   7.168  18.817  0.00  0.00    +0.000 A 
ATOM     13  C   UNL     1       1.900   7.359  20.172  0.00  0.00    +0.000 A 
ATOM     14  C   UNL     1       1.789   6.263  21.027  0.00  0.00    +0.000 A 
ATOM     15  C   UNL     1       1.976   4.973  20.534  0.00  0.00    +0.000 A 
ATOM     16  C   UNL     1       2.271   4.777  19.185  0.00  0.00    +0.000 A 
ATOM     17  C   UNL     1       2.392   5.868  18.325  0.00  0.00    +0.000 A 
BRANCH  12  19
ATOM     18  C   UNL     1       1.362   9.461  17.980  0.00  0.00    +0.000 C 
ATOM     19  C   UNL     1       2.346   8.323  17.881  0.00  0.00    +0.000 C 
ATOM     20  O   UNL     1       3.261   8.337  17.062  0.00  0.00    +0.000 OA
ENDBRANCH  12  19
ENDBRANCH  10  16
ENDBRANCH   7  10
ENDBRANCH   1   7
BRANCH   4  21
ATOM     21  N   UNL     1       7.466   7.439  16.981  0.00  0.00    +0.000 N 
ATOM     22  H   UNL     1       7.533   7.584  15.981  0.00  0.00    +0.000 HD
BRANCH  21  23
ATOM     23  C   UNL     1       8.193   8.274  17.792  0.00  0.00    +0.000 C 
ATOM     24  C   UNL     1       8.106   9.607  17.877  0.00  0.00    +0.000 C 
BRANCH  24  25
ATOM     25  C   UNL     1       9.001  10.344  18.813  0.00  0.00    +0.000 C 
ATOM     26  O   UNL     1       9.245   9.947  19.945  0.00  0.00    +0.000 OA
BRANCH  25  27
ATOM     27  C   UNL     1       9.630  11.589  18.299  0.00  0.00    +0.000 A 
ATOM     28  C   UNL     1      10.894  11.560  17.690  0.00  0.00    +0.000 A 
ATOM     29  C   UNL     1      11.472  12.741  17.225  0.00  0.00    +0.000 A 
ATOM     30  C   UNL     1      10.782  13.940  17.355  0.00  0.00    +0.000 A 
ATOM     31  F   UNL     1      11.343  15.071  16.910  0.00  0.00    +0.000 F 
ATOM     32  C   UNL     1       9.516  13.981  17.932  0.00  0.00    +0.000 A 
ATOM     33  C   UNL     1       8.933  12.802  18.400  0.00  0.00    +0.000 A 
ENDBRANCH  25  27
ENDBRANCH  24  25
ENDBRANCH  21  23
ENDBRANCH   4  21
TORSDOF 8
ENDMDL
MODEL 5
REMARK VINA RESULT:      -8.8      1.104      1.236
REMARK  Name = 
REMARK  9 active torsions:
REMARK  status: ('A' for Active; 'I' for Inactive)
REMARK    1  A    between atoms: C_1  and  C_2
REMARK    2  A    between atoms: C_2  and  C_4
REMARK    3  A    between atoms: C_8  and  N_9
REMARK    4  A    between atoms: N_9  and  S_10
REMARK    5  A    between atoms: S_10  and  C_13
REMARK    6  A    between atoms: C_16  and  N_17
REMARK    7  A    between atoms: N_17  and  C_18
REMARK    8  A    between atoms: C_19  and  C_20
REMARK    9  A    between atoms: C_20  and  C_22
REMARK                            x       y       z     vdW  Elec       q    Type
REMARK                         _______ _______ _______ _____ _____    ______ ____
ROOT
ATOM      1  C   UNL     1       3.063   4.925  18.998  0.00  0.00    +0.000 A 
ATOM      2  C   UNL     1       2.736   5.680  20.124  0.00  0.00    +0.000 A 
ATOM      3  C   UNL     1       2.358   7.016  19.970  0.00  0.00    +0.000 A 
ATOM      4  C   UNL     1       2.289   7.613  18.704  0.00  0.00    +0.000 A 
ATOM      5  C   UNL     1       2.647   6.841  17.586  0.00  0.00    +0.000 A 
ATOM      6  C   UNL     1       3.043   5.506  17.729  0.00  0.00    +0.000 A 
ENDROOT
BRANCH   1   7
ATOM      7  S   UNL     1       3.571   3.233  19.198  0.00  0.00    +0.000 S 
ATOM      8  O   UNL     1       3.217   2.522  17.990  0.00  0.00    +0.000 OA
ATOM      9  O   UNL     1       3.119   2.778  20.498  0.00  0.00    +0.000 OA
BRANCH   7  10
ATOM     10  N   UNL     1       5.243   3.341  19.207  0.00  0.00    +0.000 N 
ATOM     11  H   UNL     1       5.748   2.554  19.609  0.00  0.00    +0.000 HD
BRANCH  10  16
ATOM     12  C   UNL     1       6.755   5.119  16.310  0.00  0.00    +0.000 A 
ATOM     13  C   UNL     1       7.303   6.233  16.960  0.00  0.00    +0.000 A 
ATOM     14  C   UNL     1       7.161   6.381  18.340  0.00  0.00    +0.000 A 
ATOM     15  C   UNL     1       6.469   5.420  19.076  0.00  0.00    +0.000 A 
ATOM     16  C   UNL     1       5.917   4.313  18.433  0.00  0.00    +0.000 A 
ATOM     17  C   UNL     1       6.062   4.154  17.055  0.00  0.00    +0.000 A 
BRANCH  12  19
ATOM     18  C   UNL     1       5.895   4.074  14.111  0.00  0.00    +0.000 C 
ATOM     19  C   UNL     1       6.907   4.924  14.838  0.00  0.00    +0.000 C 
ATOM     20  O   UNL     1       7.835   5.464  14.241  0.00  0.00    +0.000 OA
ENDBRANCH  12  19
ENDBRANCH  10  16
ENDBRANCH   7  10
ENDBRANCH   1   7
BRANCH   4  21
ATOM     21  N   UNL     1       1.987   8.976  18.530  0.00  0.00    +0.000 N 
ATOM     22  H   UNL     1       2.588   9.485  17.893  0.00  0.00    +0.000 HD
BRANCH  21  23
ATOM     23  C   UNL     1       0.959   9.667  19.120  0.00  0.00    +0.000 C 
ATOM     24  C   UNL     1       0.423  10.828  18.722  0.00  0.00    +0.000 C 
BRANCH  24  25
ATOM     25  C   UNL     1      -0.685  11.434  19.511  0.00  0.00    +0.000 C 
ATOM     26  O   UNL     1      -0.498  12.043  20.556  0.00  0.00    +0.000 OA
BRANCH  25  27
ATOM     27  C   UNL     1      -2.056  11.301  18.953  0.00  0.00    +0.000 A 
ATOM     28  C   UNL     1      -2.345  10.341  17.970  0.00  0.00    +0.000 A 
ATOM     29  C   UNL     1      -3.635  10.240  17.450  0.00  0.00    +0.000 A 
ATOM     30  C   UNL     1      -4.633  11.085  17.923  0.00  0.00    +0.000 A 
ATOM     31  F   UNL     1      -5.869  10.987  17.417  0.00  0.00    +0.000 F 
ATOM     32  C   UNL     1      -4.369  12.024  18.915  0.00  0.00    +0.000 A 
ATOM     33  C   UNL     1      -3.078  12.130  19.439  0.00  0.00    +0.000 A 
ENDBRANCH  25  27
ENDBRANCH  24  25
ENDBRANCH  21  23
ENDBRANCH   4  21
TORSDOF 8
ENDMDL
MODEL 6
REMARK VINA RESULT:      -8.8      1.270      2.382
REMARK  Name = 
REMARK  9 active torsions:
REMARK  status: ('A' for Active; 'I' for Inactive)
REMARK    1  A    between atoms: C_1  and  C_2
REMARK    2  A    between atoms: C_2  and  C_4
REMARK    3  A    between atoms: C_8  and  N_9
REMARK    4  A    between atoms: N_9  and  S_10
REMARK    5  A    between atoms: S_10  and  C_13
REMARK    6  A    between atoms: C_16  and  N_17
REMARK    7  A    between atoms: N_17  and  C_18
REMARK    8  A    between atoms: C_19  and  C_20
REMARK    9  A    between atoms: C_20  and  C_22
REMARK                            x       y       z     vdW  Elec       q    Type
REMARK                         _______ _______ _______ _____ _____    ______ ____
ROOT
ATOM      1  C   UNL     1       2.377   4.574  18.827  0.00  0.00    +0.000 A 
ATOM      2  C   UNL     1       2.643   5.799  18.217  0.00  0.00    +0.000 A 
ATOM      3  C   UNL     1       2.421   6.983  18.925  0.00  0.00    +0.000 A 
ATOM      4  C   UNL     1       1.945   6.966  20.243  0.00  0.00    +0.000 A 
ATOM      5  C   UNL     1       1.661   5.721  20.829  0.00  0.00    +0.000 A 
ATOM      6  C   UNL     1       1.864   4.529  20.124  0.00  0.00    +0.000 A 
ENDROOT
BRANCH   1   7
ATOM      7  S   UNL     1       2.633   3.070  17.914  0.00  0.00    +0.000 S 
ATOM      8  O   UNL     1       2.266   3.323  16.539  0.00  0.00    +0.000 OA
ATOM      9  O   UNL     1       2.037   1.982  18.664  0.00  0.00    +0.000 OA
BRANCH   7  10
ATOM     10  N   UNL     1       4.299   2.897  17.933  0.00  0.00    +0.000 N 
ATOM     11  H   UNL     1       4.665   2.047  18.355  0.00  0.00    +0.000 HD
BRANCH  10  16
ATOM     12  C   UNL     1       6.670   5.577  16.912  0.00  0.00    +0.000 A 
ATOM     13  C   UNL     1       6.703   5.366  15.527  0.00  0.00    +0.000 A 
ATOM     14  C   UNL     1       5.948   4.342  14.955  0.00  0.00    +0.000 A 
ATOM     15  C   UNL     1       5.159   3.524  15.761  0.00  0.00    +0.000 A 
ATOM     16  C   UNL     1       5.128   3.726  17.141  0.00  0.00    +0.000 A 
ATOM     17  C   UNL     1       5.874   4.751  17.720  0.00  0.00    +0.000 A 
BRANCH  12  19
ATOM     18  C   UNL     1       8.039   6.445  18.921  0.00  0.00    +0.000 C 
ATOM     19  C   UNL     1       7.454   6.675  17.551  0.00  0.00    +0.000 C 
ATOM     20  O   UNL     1       7.622   7.735  16.953  0.00  0.00    +0.000 OA
ENDBRANCH  12  19
ENDBRANCH  10  16
ENDBRANCH   7  10
ENDBRANCH   1   7
BRANCH   4  21
ATOM     21  N   UNL     1       1.641   8.144  20.949  0.00  0.00    +0.000 N 
ATOM     22  H   UNL     1       1.880   8.144  21.934  0.00  0.00    +0.000 HD
BRANCH  21  23
ATOM     23  C   UNL     1       1.074   9.282  20.434  0.00  0.00    +0.000 C 
ATOM     24  C   UNL     1       0.875   9.581  19.144  0.00  0.00    +0.000 C 
BRANCH  24  25
ATOM     25  C   UNL     1       0.254  10.886  18.781  0.00  0.00    +0.000 C 
ATOM     26  O   UNL     1       0.883  11.935  18.760  0.00  0.00    +0.000 OA
BRANCH  25  27
ATOM     27  C   UNL     1      -1.183  10.861  18.400  0.00  0.00    +0.000 A 
ATOM     28  C   UNL     1      -2.101  11.743  18.990  0.00  0.00    +0.000 A 
ATOM     29  C   UNL     1      -3.447  11.696  18.629  0.00  0.00    +0.000 A 
ATOM     30  C   UNL     1      -3.867  10.783  17.669  0.00  0.00    +0.000 A 
ATOM     31  F   UNL     1      -5.161  10.739  17.328  0.00  0.00    +0.000 F 
ATOM     32  C   UNL     1      -2.965   9.920  17.054  0.00  0.00    +0.000 A 
ATOM     33  C   UNL     1      -1.616   9.962  17.414  0.00  0.00    +0.000 A 
ENDBRANCH  25  27
ENDBRANCH  24  25
ENDBRANCH  21  23
ENDBRANCH   4  21
TORSDOF 8
ENDMDL
MODEL 7
REMARK VINA RESULT:      -8.7      2.345      2.972
REMARK  Name = 
REMARK  9 active torsions:
REMARK  status: ('A' for Active; 'I' for Inactive)
REMARK    1  A    between atoms: C_1  and  C_2
REMARK    2  A    between atoms: C_2  and  C_4
REMARK    3  A    between atoms: C_8  and  N_9
REMARK    4  A    between atoms: N_9  and  S_10
REMARK    5  A    between atoms: S_10  and  C_13
REMARK    6  A    between atoms: C_16  and  N_17
REMARK    7  A    between atoms: N_17  and  C_18
REMARK    8  A    between atoms: C_19  and  C_20
REMARK    9  A    between atoms: C_20  and  C_22
REMARK                            x       y       z     vdW  Elec       q    Type
REMARK                         _______ _______ _______ _____ _____    ______ ____
ROOT
ATOM      1  C   UNL     1       2.912   5.113  18.957  0.00  0.00    +0.000 A 
ATOM      2  C   UNL     1       2.468   5.738  20.121  0.00  0.00    +0.000 A 
ATOM      3  C   UNL     1       2.128   7.092  20.088  0.00  0.00    +0.000 A 
ATOM      4  C   UNL     1       2.213   7.837  18.904  0.00  0.00    +0.000 A 
ATOM      5  C   UNL     1       2.685   7.192  17.749  0.00  0.00    +0.000 A 
ATOM      6  C   UNL     1       3.044   5.840  17.773  0.00  0.00    +0.000 A 
ENDROOT
BRANCH   1   7
ATOM      7  S   UNL     1       3.371   3.396  19.007  0.00  0.00    +0.000 S 
ATOM      8  O   UNL     1       3.093   2.828  17.707  0.00  0.00    +0.000 OA
ATOM      9  O   UNL     1       2.817   2.817  20.215  0.00  0.00    +0.000 OA
BRANCH   7  10
ATOM     10  N   UNL     1       5.040   3.457  19.146  0.00  0.00    +0.000 N 
ATOM     11  H   UNL     1       5.488   2.671  19.613  0.00  0.00    +0.000 HD
BRANCH  10  16
ATOM     12  C   UNL     1       6.763   5.129  16.304  0.00  0.00    +0.000 A 
ATOM     13  C   UNL     1       7.361   6.205  16.974  0.00  0.00    +0.000 A 
ATOM     14  C   UNL     1       7.182   6.362  18.348  0.00  0.00    +0.000 A 
ATOM     15  C   UNL     1       6.404   5.450  19.059  0.00  0.00    +0.000 A 
ATOM     16  C   UNL     1       5.802   4.382  18.396  0.00  0.00    +0.000 A 
ATOM     17  C   UNL     1       5.982   4.212  17.024  0.00  0.00    +0.000 A 
BRANCH  12  19
ATOM     18  C   UNL     1       6.005   4.004  14.108  0.00  0.00    +0.000 C 
ATOM     19  C   UNL     1       6.951   4.924  14.838  0.00  0.00    +0.000 C 
ATOM     20  O   UNL     1       7.854   5.511  14.248  0.00  0.00    +0.000 OA
ENDBRANCH  12  19
ENDBRANCH  10  16
ENDBRANCH   7  10
ENDBRANCH   1   7
BRANCH   4  21
ATOM     21  N   UNL     1       1.950   9.218  18.863  0.00  0.00    +0.000 N 
ATOM     22  H   UNL     1       2.760   9.820  18.780  0.00  0.00    +0.000 HD
BRANCH  21  23
ATOM     23  C   UNL     1       0.716   9.817  18.906  0.00  0.00    +0.000 C 
ATOM     24  C   UNL     1       0.449  11.126  18.987  0.00  0.00    +0.000 C 
BRANCH  24  25
ATOM     25  C   UNL     1      -0.967  11.585  19.041  0.00  0.00    +0.000 C 
ATOM     26  O   UNL     1      -1.650  11.743  18.038  0.00  0.00    +0.000 OA
BRANCH  25  27
ATOM     27  C   UNL     1      -1.545  11.816  20.391  0.00  0.00    +0.000 A 
ATOM     28  C   UNL     1      -0.932  11.291  21.539  0.00  0.00    +0.000 A 
ATOM     29  C   UNL     1      -1.497  11.508  22.795  0.00  0.00    +0.000 A 
ATOM     30  C   UNL     1      -2.660  12.261  22.902  0.00  0.00    +0.000 A 
ATOM     31  F   UNL     1      -3.201  12.464  24.110  0.00  0.00    +0.000 F 
ATOM     32  C   UNL     1      -3.266  12.812  21.777  0.00  0.00    +0.000 A 
ATOM     33  C   UNL     1      -2.705  12.596  20.516  0.00  0.00    +0.000 A 
ENDBRANCH  25  27
ENDBRANCH  24  25
ENDBRANCH  21  23
ENDBRANCH   4  21
TORSDOF 8
ENDMDL
MODEL 8
REMARK VINA RESULT:      -8.6      2.581      3.357
REMARK  Name = 
REMARK  9 active torsions:
REMARK  status: ('A' for Active; 'I' for Inactive)
REMARK    1  A    between atoms: C_1  and  C_2
REMARK    2  A    between atoms: C_2  and  C_4
REMARK    3  A    between atoms: C_8  and  N_9
REMARK    4  A    between atoms: N_9  and  S_10
REMARK    5  A    between atoms: S_10  and  C_13
REMARK    6  A    between atoms: C_16  and  N_17
REMARK    7  A    between atoms: N_17  and  C_18
REMARK    8  A    between atoms: C_19  and  C_20
REMARK    9  A    between atoms: C_20  and  C_22
REMARK                            x       y       z     vdW  Elec       q    Type
REMARK                         _______ _______ _______ _____ _____    ______ ____
ROOT
ATOM      1  C   UNL     1       2.295   4.700  18.940  0.00  0.00    +0.000 A 
ATOM      2  C   UNL     1       1.858   4.695  20.264  0.00  0.00    +0.000 A 
ATOM      3  C   UNL     1       1.648   5.908  20.924  0.00  0.00    +0.000 A 
ATOM      4  C   UNL     1       1.858   7.135  20.279  0.00  0.00    +0.000 A 
ATOM      5  C   UNL     1       2.322   7.115  18.953  0.00  0.00    +0.000 A 
ATOM      6  C   UNL     1       2.552   5.906  18.286  0.00  0.00    +0.000 A 
ENDROOT
BRANCH   1   7
ATOM      7  S   UNL     1       2.589   3.155  18.111  0.00  0.00    +0.000 S 
ATOM      8  O   UNL     1       2.428   3.380  16.692  0.00  0.00    +0.000 OA
ATOM      9  O   UNL     1       1.836   2.124  18.800  0.00  0.00    +0.000 OA
BRANCH   7  10
ATOM     10  N   UNL     1       4.225   2.897  18.364  0.00  0.00    +0.000 N 
ATOM     11  H   UNL     1       4.500   1.960  18.649  0.00  0.00    +0.000 HD
BRANCH  10  16
ATOM     12  C   UNL     1       6.535   4.796  16.150  0.00  0.00    +0.000 A 
ATOM     13  C   UNL     1       7.136   5.645  17.088  0.00  0.00    +0.000 A 
ATOM     14  C   UNL     1       6.767   5.581  18.431  0.00  0.00    +0.000 A 
ATOM     15  C   UNL     1       5.795   4.671  18.844  0.00  0.00    +0.000 A 
ATOM     16  C   UNL     1       5.189   3.828  17.913  0.00  0.00    +0.000 A 
ATOM     17  C   UNL     1       5.558   3.881  16.570  0.00  0.00    +0.000 A 
BRANCH  12  19
ATOM     18  C   UNL     1       6.199   3.925  13.743  0.00  0.00    +0.000 C 
ATOM     19  C   UNL     1       6.922   4.829  14.709  0.00  0.00    +0.000 C 
ATOM     20  O   UNL     1       7.804   5.595  14.329  0.00  0.00    +0.000 OA
ENDBRANCH  12  19
ENDBRANCH  10  16
ENDBRANCH   7  10
ENDBRANCH   1   7
BRANCH   4  21
ATOM     21  N   UNL     1       1.728   8.367  20.944  0.00  0.00    +0.000 N 
ATOM     22  H   UNL     1       2.484   8.612  21.574  0.00  0.00    +0.000 HD
BRANCH  21  23
ATOM     23  C   UNL     1       0.699   9.264  20.811  0.00  0.00    +0.000 C 
ATOM     24  C   UNL     1       0.365   9.965  19.720  0.00  0.00    +0.000 C 
BRANCH  24  25
ATOM     25  C   UNL     1      -0.785  10.910  19.777  0.00  0.00    +0.000 C 
ATOM     26  O   UNL     1      -1.679  10.916  18.942  0.00  0.00    +0.000 OA
BRANCH  25  27
ATOM     27  C   UNL     1      -0.828  11.845  20.933  0.00  0.00    +0.000 A 
ATOM     28  C   UNL     1       0.029  12.954  20.995  0.00  0.00    +0.000 A 
ATOM     29  C   UNL     1      -0.018  13.812  22.094  0.00  0.00    +0.000 A 
ATOM     30  C   UNL     1      -0.929  13.569  23.115  0.00  0.00    +0.000 A 
ATOM     31  F   UNL     1      -0.968  14.394  24.169  0.00  0.00    +0.000 F 
ATOM     32  C   UNL     1      -1.804  12.489  23.055  0.00  0.00    +0.000 A 
ATOM     33  C   UNL     1      -1.760  11.625  21.958  0.00  0.00    +0.000 A 
ENDBRANCH  25  27
ENDBRANCH  24  25
ENDBRANCH  21  23
ENDBRANCH   4  21
TORSDOF 8
ENDMDL
MODEL 9
REMARK VINA RESULT:      -8.6      2.926      3.647
REMARK  Name = 
REMARK  9 active torsions:
REMARK  status: ('A' for Active; 'I' for Inactive)
REMARK    1  A    between atoms: C_1  and  C_2
REMARK    2  A    between atoms: C_2  and  C_4
REMARK    3  A    between atoms: C_8  and  N_9
REMARK    4  A    between atoms: N_9  and  S_10
REMARK    5  A    between atoms: S_10  and  C_13
REMARK    6  A    between atoms: C_16  and  N_17
REMARK    7  A    between atoms: N_17  and  C_18
REMARK    8  A    between atoms: C_19  and  C_20
REMARK    9  A    between atoms: C_20  and  C_22
REMARK                            x       y       z     vdW  Elec       q    Type
REMARK                         _______ _______ _______ _____ _____    ______ ____
ROOT
ATOM      1  C   UNL     1       2.274   4.524  18.858  0.00  0.00    +0.000 A 
ATOM      2  C   UNL     1       1.939   4.467  20.211  0.00  0.00    +0.000 A 
ATOM      3  C   UNL     1       1.750   5.654  20.923  0.00  0.00    +0.000 A 
ATOM      4  C   UNL     1       1.879   6.905  20.303  0.00  0.00    +0.000 A 
ATOM      5  C   UNL     1       2.241   6.938  18.946  0.00  0.00    +0.000 A 
ATOM      6  C   UNL     1       2.449   5.756  18.226  0.00  0.00    +0.000 A 
ENDROOT
BRANCH   1   7
ATOM      7  S   UNL     1       2.543   3.013  17.961  0.00  0.00    +0.000 S 
ATOM      8  O   UNL     1       2.322   3.289  16.559  0.00  0.00    +0.000 OA
ATOM      9  O   UNL     1       1.826   1.952  18.641  0.00  0.00    +0.000 OA
BRANCH   7  10
ATOM     10  N   UNL     1       4.189   2.758  18.136  0.00  0.00    +0.000 N 
ATOM     11  H   UNL     1       4.483   1.809  18.356  0.00  0.00    +0.000 HD
BRANCH  10  16
ATOM     12  C   UNL     1       6.478   4.733  15.967  0.00  0.00    +0.000 A 
ATOM     13  C   UNL     1       7.023   5.611  16.914  0.00  0.00    +0.000 A 
ATOM     14  C   UNL     1       6.623   5.539  18.249  0.00  0.00    +0.000 A 
ATOM     15  C   UNL     1       5.677   4.595  18.643  0.00  0.00    +0.000 A 
ATOM     16  C   UNL     1       5.128   3.724  17.703  0.00  0.00    +0.000 A 
ATOM     17  C   UNL     1       5.527   3.783  16.369  0.00  0.00    +0.000 A 
BRANCH  12  19
ATOM     18  C   UNL     1       6.162   3.916  13.539  0.00  0.00    +0.000 C 
ATOM     19  C   UNL     1       6.899   4.774  14.536  0.00  0.00    +0.000 C 
ATOM     20  O   UNL     1       7.821   5.508  14.190  0.00  0.00    +0.000 OA
ENDBRANCH  12  19
ENDBRANCH  10  16
ENDBRANCH   7  10
ENDBRANCH   1   7
BRANCH   4  21
ATOM     21  N   UNL     1       1.769   8.112  21.015  0.00  0.00    +0.000 N 
ATOM     22  H   UNL     1       2.342   8.189  21.848  0.00  0.00    +0.000 HD
BRANCH  21  23
ATOM     23  C   UNL     1       0.983   9.187  20.686  0.00  0.00    +0.000 C 
ATOM     24  C   UNL     1       0.069   9.794  21.453  0.00  0.00    +0.000 C 
BRANCH  24  25
ATOM     25  C   UNL     1      -0.702  10.945  20.907  0.00  0.00    +0.000 C 
ATOM     26  O   UNL     1      -1.042  11.017  19.733  0.00  0.00    +0.000 OA
BRANCH  25  27
ATOM     27  C   UNL     1      -1.084  12.013  21.868  0.00  0.00    +0.000 A 
ATOM     28  C   UNL     1      -2.226  11.884  22.673  0.00  0.00    +0.000 A 
ATOM     29  C   UNL     1      -2.574  12.902  23.560  0.00  0.00    +0.000 A 
ATOM     30  C   UNL     1      -1.775  14.036  23.651  0.00  0.00    +0.000 A 
ATOM     31  F   UNL     1      -2.116  15.012  24.501  0.00  0.00    +0.000 F 
ATOM     32  C   UNL     1      -0.625  14.167  22.878  0.00  0.00    +0.000 A 
ATOM     33  C   UNL     1      -0.272  13.151  21.987  0.00  0.00    +0.000 A 
ENDBRANCH  25  27
ENDBRANCH  24  25
ENDBRANCH  21  23
ENDBRANCH   4  21
TORSDOF 8
ENDMDL
