MODEL 1
REMARK VINA RESULT:      -7.4      0.000      0.000
REMARK  Name = 
REMARK  4 active torsions:
REMARK  status: ('A' for Active; 'I' for Inactive)
REMARK    1  A    between atoms: C_1  and  C_2
REMARK    2  A    between atoms: C_5  and  S_6
REMARK    3  A    between atoms: S_6  and  C_9
REMARK    4  A    between atoms: C_9  and  C_10
REMARK                            x       y       z     vdW  Elec       q    Type
REMARK                         _______ _______ _______ _____ _____    ______ ____
ROOT
ATOM      1  S   UNL     1       5.638   5.544  18.369  0.00  0.00    +0.000 S 
ATOM      2  O   UNL     1       5.364   6.650  17.465  0.00  0.00    +0.000 OA
ATOM      3  O   UNL     1       5.964   5.803  19.760  0.00  0.00    +0.000 OA
ENDROOT
BRANCH   1   8
ATOM      4  C   UNL     1       0.579   2.189  18.689  0.00  0.00    +0.000 C 
ATOM      5  C   UNL     1       1.843   2.990  18.565  0.00  0.00    +0.000 A 
ATOM      6  C   UNL     1       3.057   2.495  19.058  0.00  0.00    +0.000 A 
ATOM      7  C   UNL     1       4.224   3.258  18.966  0.00  0.00    +0.000 A 
ATOM      8  C   UNL     1       4.177   4.520  18.370  0.00  0.00    +0.000 A 
ATOM      9  C   UNL     1       2.972   5.031  17.881  0.00  0.00    +0.000 A 
ATOM     10  C   UNL     1       1.810   4.262  17.976  0.00  0.00    +0.000 A 
ENDBRANCH   1   8
BRANCH   1  11
ATOM     11  C   UNL     1       6.899   4.501  17.648  0.00  0.00    +0.000 C 
BRANCH  11  12
ATOM     12  C   UNL     1       6.821   4.412  16.161  0.00  0.00    +0.000 A 
ATOM     13  C   UNL     1       6.093   3.568  15.348  0.00  0.00    +0.000 A 
ATOM     14  N   UNL     1       6.412   3.913  14.062  0.00  0.00    +0.000 N 
ATOM     15  C   UNL     1       5.953   3.392  12.862  0.00  0.00    +0.000 A 
ATOM     16  C   UNL     1       6.420   3.893  11.712  0.00  0.00    +0.000 A 
ATOM     17  C   UNL     1       7.417   4.993  11.866  0.00  0.00    +0.000 A 
ATOM     18  N   UNL     1       7.858   5.490  12.981  0.00  0.00    +0.000 NA
ATOM     19  C   UNL     1       7.346   4.944  14.124  0.00  0.00    +0.000 A 
ATOM     20  N   UNL     1       7.605   5.243  15.384  0.00  0.00    +0.000 NA
ENDBRANCH  11  12
ENDBRANCH   1  11
TORSDOF 3
ENDMDL
MODEL 2
REMARK VINA RESULT:      -7.2      2.616      6.364
REMARK  Name = 
REMARK  4 active torsions:
REMARK  status: ('A' for Active; 'I' for Inactive)
REMARK    1  A    between atoms: C_1  and  C_2
REMARK    2  A    between atoms: C_5  and  S_6
REMARK    3  A    between atoms: S_6  and  C_9
REMARK    4  A    between atoms: C_9  and  C_10
REMARK                            x       y       z     vdW  Elec       q    Type
REMARK                         _______ _______ _______ _____ _____    ______ ____
ROOT
ATOM      1  S   UNL     1       6.350   6.088  16.668  0.00  0.00    +0.000 S 
ATOM      2  O   UNL     1       7.626   6.785  16.696  0.00  0.00    +0.000 OA
ATOM      3  O   UNL     1       5.109   6.836  16.767  0.00  0.00    +0.000 OA
ENDROOT
BRANCH   1   8
ATOM      4  C   UNL     1       6.303   2.810  11.549  0.00  0.00    +0.000 C 
ATOM      5  C   UNL     1       6.298   3.663  12.785  0.00  0.00    +0.000 A 
ATOM      6  C   UNL     1       7.394   4.478  13.097  0.00  0.00    +0.000 A 
ATOM      7  C   UNL     1       7.396   5.248  14.263  0.00  0.00    +0.000 A 
ATOM      8  C   UNL     1       6.291   5.207  15.118  0.00  0.00    +0.000 A 
ATOM      9  C   UNL     1       5.195   4.392  14.824  0.00  0.00    +0.000 A 
ATOM     10  C   UNL     1       5.200   3.627  13.656  0.00  0.00    +0.000 A 
ENDBRANCH   1   8
BRANCH   1  11
ATOM     11  C   UNL     1       6.365   4.796  17.902  0.00  0.00    +0.000 C 
BRANCH  11  12
ATOM     12  C   UNL     1       5.027   4.529  18.505  0.00  0.00    +0.000 A 
ATOM     13  C   UNL     1       4.349   5.181  19.515  0.00  0.00    +0.000 A 
ATOM     14  N   UNL     1       3.170   4.505  19.675  0.00  0.00    +0.000 N 
ATOM     15  C   UNL     1       2.117   4.750  20.545  0.00  0.00    +0.000 A 
ATOM     16  C   UNL     1       1.054   3.937  20.525  0.00  0.00    +0.000 A 
ATOM     17  C   UNL     1       1.131   2.824  19.534  0.00  0.00    +0.000 A 
ATOM     18  N   UNL     1       2.109   2.582  18.716  0.00  0.00    +0.000 NA
ATOM     19  C   UNL     1       3.168   3.444  18.775  0.00  0.00    +0.000 A 
ATOM     20  N   UNL     1       4.287   3.444  18.074  0.00  0.00    +0.000 NA
ENDBRANCH  11  12
ENDBRANCH   1  11
TORSDOF 3
ENDMDL
MODEL 3
REMARK VINA RESULT:      -7.2      3.439      4.860
REMARK  Name = 
REMARK  4 active torsions:
REMARK  status: ('A' for Active; 'I' for Inactive)
REMARK    1  A    between atoms: C_1  and  C_2
REMARK    2  A    between atoms: C_5  and  S_6
REMARK    3  A    between atoms: S_6  and  C_9
REMARK    4  A    between atoms: C_9  and  C_10
REMARK                            x       y       z     vdW  Elec       q    Type
REMARK                         _______ _______ _______ _____ _____    ______ ____
ROOT
ATOM      1  S   UNL     1       2.079   3.104  18.112  0.00  0.00    +0.000 S 
ATOM      2  O   UNL     1       1.161   2.207  18.796  0.00  0.00    +0.000 OA
ATOM      3  O   UNL     1       1.884   3.416  16.707  0.00  0.00    +0.000 OA
ENDROOT
BRANCH   1   8
ATOM      4  C   UNL     1       1.525   8.417  21.012  0.00  0.00    +0.000 C 
ATOM      5  C   UNL     1       1.715   7.106  20.306  0.00  0.00    +0.000 A 
ATOM      6  C   UNL     1       2.117   7.067  18.964  0.00  0.00    +0.000 A 
ATOM      7  C   UNL     1       2.265   5.845  18.304  0.00  0.00    +0.000 A 
ATOM      8  C   UNL     1       2.016   4.654  18.992  0.00  0.00    +0.000 A 
ATOM      9  C   UNL     1       1.606   4.678  20.327  0.00  0.00    +0.000 A 
ATOM     10  C   UNL     1       1.462   5.904  20.981  0.00  0.00    +0.000 A 
ENDBRANCH   1   8
BRANCH   1  11
ATOM     11  C   UNL     1       3.752   2.528  18.366  0.00  0.00    +0.000 C 
BRANCH  11  12
ATOM     12  C   UNL     1       4.778   3.606  18.257  0.00  0.00    +0.000 A 
ATOM     13  C   UNL     1       5.170   4.367  17.174  0.00  0.00    +0.000 A 
ATOM     14  N   UNL     1       6.160   5.194  17.633  0.00  0.00    +0.000 N 
ATOM     15  C   UNL     1       6.887   6.167  16.963  0.00  0.00    +0.000 A 
ATOM     16  C   UNL     1       7.823   6.854  17.628  0.00  0.00    +0.000 A 
ATOM     17  C   UNL     1       7.980   6.476  19.063  0.00  0.00    +0.000 A 
ATOM     18  N   UNL     1       7.310   5.568  19.703  0.00  0.00    +0.000 NA
ATOM     19  C   UNL     1       6.364   4.898  18.978  0.00  0.00    +0.000 A 
ATOM     20  N   UNL     1       5.543   3.937  19.359  0.00  0.00    +0.000 NA
ENDBRANCH  11  12
ENDBRANCH   1  11
TORSDOF 3
ENDMDL
MODEL 4
REMARK VINA RESULT:      -7.2      2.690      6.264
REMARK  Name = 
REMARK  4 active torsions:
REMARK  status: ('A' for Active; 'I' for Inactive)
REMARK    1  A    between atoms: C_1  and  C_2
REMARK    2  A    between atoms: C_5  and  S_6
REMARK    3  A    between atoms: S_6  and  C_9
REMARK    4  A    between atoms: C_9  and  C_10
REMARK                            x       y       z     vdW  Elec       q    Type
REMARK                         _______ _______ _______ _____ _____    ______ ____
ROOT
ATOM      1  S   UNL     1       6.283   6.508  17.182  0.00  0.00    +0.000 S 
ATOM      2  O   UNL     1       7.524   7.262  17.091  0.00  0.00    +0.000 OA
ATOM      3  O   UNL     1       5.009   7.204  17.207  0.00  0.00    +0.000 OA
ENDROOT
BRANCH   1   8
ATOM      4  C   UNL     1       6.034   3.098  12.156  0.00  0.00    +0.000 C 
ATOM      5  C   UNL     1       6.107   3.896  13.426  0.00  0.00    +0.000 A 
ATOM      6  C   UNL     1       5.003   3.979  14.284  0.00  0.00    +0.000 A 
ATOM      7  C   UNL     1       5.067   4.746  15.450  0.00  0.00    +0.000 A 
ATOM      8  C   UNL     1       6.246   5.428  15.763  0.00  0.00    +0.000 A 
ATOM      9  C   UNL     1       7.352   5.361  14.913  0.00  0.00    +0.000 A 
ATOM     10  C   UNL     1       7.280   4.591  13.749  0.00  0.00    +0.000 A 
ENDBRANCH   1   8
BRANCH   1  11
ATOM     11  C   UNL     1       6.379   5.393  18.575  0.00  0.00    +0.000 C 
BRANCH  11  12
ATOM     12  C   UNL     1       5.053   4.870  19.015  0.00  0.00    +0.000 A 
ATOM     13  C   UNL     1       4.009   5.498  19.661  0.00  0.00    +0.000 A 
ATOM     14  N   UNL     1       3.043   4.544  19.834  0.00  0.00    +0.000 N 
ATOM     15  C   UNL     1       1.787   4.645  20.414  0.00  0.00    +0.000 A 
ATOM     16  C   UNL     1       1.009   3.558  20.477  0.00  0.00    +0.000 A 
ATOM     17  C   UNL     1       1.608   2.321  19.895  0.00  0.00    +0.000 A 
ATOM     18  N   UNL     1       2.781   2.210  19.351  0.00  0.00    +0.000 NA
ATOM     19  C   UNL     1       3.533   3.351  19.310  0.00  0.00    +0.000 A 
ATOM     20  N   UNL     1       4.747   3.536  18.824  0.00  0.00    +0.000 NA
ENDBRANCH  11  12
ENDBRANCH   1  11
TORSDOF 3
ENDMDL
MODEL 5
REMARK VINA RESULT:      -7.2      2.719      6.320
REMARK  Name = 
REMARK  4 active torsions:
REMARK  status: ('A' for Active; 'I' for Inactive)
REMARK    1  A    between atoms: C_1  and  C_2
REMARK    2  A    between atoms: C_5  and  S_6
REMARK    3  A    between atoms: S_6  and  C_9
REMARK    4  A    between atoms: C_9  and  C_10
REMARK                            x       y       z     vdW  Elec       q    Type
REMARK                         _______ _______ _______ _____ _____    ______ ____
ROOT
ATOM      1  S   UNL     1       6.319   6.045  16.654  0.00  0.00    +0.000 S 
ATOM      2  O   UNL     1       7.578   6.773  16.695  0.00  0.00    +0.000 OA
ATOM      3  O   UNL     1       5.059   6.760  16.756  0.00  0.00    +0.000 OA
ENDROOT
BRANCH   1   8
ATOM      4  C   UNL     1       6.369   2.821  11.500  0.00  0.00    +0.000 C 
ATOM      5  C   UNL     1       6.340   3.661  12.745  0.00  0.00    +0.000 A 
ATOM      6  C   UNL     1       7.425   4.480  13.081  0.00  0.00    +0.000 A 
ATOM      7  C   UNL     1       7.405   5.238  14.256  0.00  0.00    +0.000 A 
ATOM      8  C   UNL     1       6.289   5.180  15.094  0.00  0.00    +0.000 A 
ATOM      9  C   UNL     1       5.203   4.360  14.776  0.00  0.00    +0.000 A 
ATOM     10  C   UNL     1       5.231   3.607  13.600  0.00  0.00    +0.000 A 
ENDBRANCH   1   8
BRANCH   1  11
ATOM     11  C   UNL     1       6.362   4.739  17.874  0.00  0.00    +0.000 C 
BRANCH  11  12
ATOM     12  C   UNL     1       5.018   4.375  18.407  0.00  0.00    +0.000 A 
ATOM     13  C   UNL     1       4.137   3.384  18.025  0.00  0.00    +0.000 A 
ATOM     14  N   UNL     1       3.047   3.511  18.843  0.00  0.00    +0.000 N 
ATOM     15  C   UNL     1       1.882   2.761  18.894  0.00  0.00    +0.000 A 
ATOM     16  C   UNL     1       0.938   3.082  19.787  0.00  0.00    +0.000 A 
ATOM     17  C   UNL     1       1.265   4.253  20.652  0.00  0.00    +0.000 A 
ATOM     18  N   UNL     1       2.349   4.966  20.616  0.00  0.00    +0.000 NA
ATOM     19  C   UNL     1       3.280   4.593  19.688  0.00  0.00    +0.000 A 
ATOM     20  N   UNL     1       4.460   5.125  19.426  0.00  0.00    +0.000 NA
ENDBRANCH  11  12
ENDBRANCH   1  11
TORSDOF 3
ENDMDL
MODEL 6
REMARK VINA RESULT:      -7.2      1.489      1.605
REMARK  Name = 
REMARK  4 active torsions:
REMARK  status: ('A' for Active; 'I' for Inactive)
REMARK    1  A    between atoms: C_1  and  C_2
REMARK    2  A    between atoms: C_5  and  S_6
REMARK    3  A    between atoms: S_6  and  C_9
REMARK    4  A    between atoms: C_9  and  C_10
REMARK                            x       y       z     vdW  Elec       q    Type
REMARK                         _______ _______ _______ _____ _____    ______ ____
ROOT
ATOM      1  S   UNL     1       6.654   5.193  18.751  0.00  0.00    +0.000 S 
ATOM      2  O   UNL     1       7.163   5.949  19.885  0.00  0.00    +0.000 OA
ATOM      3  O   UNL     1       7.349   4.002  18.298  0.00  0.00    +0.000 OA
ENDROOT
BRANCH   1   8
ATOM      4  C   UNL     1       1.116   3.474  20.574  0.00  0.00    +0.000 C 
ATOM      5  C   UNL     1       2.470   3.888  20.073  0.00  0.00    +0.000 A 
ATOM      6  C   UNL     1       3.462   2.934  19.816  0.00  0.00    +0.000 A 
ATOM      7  C   UNL     1       4.729   3.327  19.377  0.00  0.00    +0.000 A 
ATOM      8  C   UNL     1       5.001   4.684  19.186  0.00  0.00    +0.000 A 
ATOM      9  C   UNL     1       4.024   5.649  19.446  0.00  0.00    +0.000 A 
ATOM     10  C   UNL     1       2.760   5.247  19.883  0.00  0.00    +0.000 A 
ENDBRANCH   1   8
BRANCH   1  11
ATOM     11  C   UNL     1       6.417   6.304  17.370  0.00  0.00    +0.000 C 
BRANCH  11  12
ATOM     12  C   UNL     1       6.318   5.609  16.054  0.00  0.00    +0.000 A 
ATOM     13  C   UNL     1       5.317   4.816  15.530  0.00  0.00    +0.000 A 
ATOM     14  N   UNL     1       5.754   4.427  14.292  0.00  0.00    +0.000 N 
ATOM     15  C   UNL     1       5.130   3.637  13.338  0.00  0.00    +0.000 A 
ATOM     16  C   UNL     1       5.764   3.383  12.187  0.00  0.00    +0.000 A 
ATOM     17  C   UNL     1       7.116   4.003  12.064  0.00  0.00    +0.000 A 
ATOM     18  N   UNL     1       7.712   4.743  12.947  0.00  0.00    +0.000 NA
ATOM     19  C   UNL     1       7.020   4.973  14.103  0.00  0.00    +0.000 A 
ATOM     20  N   UNL     1       7.371   5.678  15.163  0.00  0.00    +0.000 NA
ENDBRANCH  11  12
ENDBRANCH   1  11
TORSDOF 3
ENDMDL
MODEL 7
REMARK VINA RESULT:      -7.1      0.163      1.092
REMARK  Name = 
REMARK  4 active torsions:
REMARK  status: ('A' for Active; 'I' for Inactive)
REMARK    1  A    between atoms: C_1  and  C_2
REMARK    2  A    between atoms: C_5  and  S_6
REMARK    3  A    between atoms: S_6  and  C_9
REMARK    4  A    between atoms: C_9  and  C_10
REMARK                            x       y       z     vdW  Elec       q    Type
REMARK                         _______ _______ _______ _____ _____    ______ ____
ROOT
ATOM      1  S   UNL     1       5.593   5.607  18.389  0.00  0.00    +0.000 S 
ATOM      2  O   UNL     1       5.316   6.639  17.402  0.00  0.00    +0.000 OA
ATOM      3  O   UNL     1       6.018   5.974  19.729  0.00  0.00    +0.000 OA
ENDROOT
BRANCH   1   8
ATOM      4  C   UNL     1       0.545   2.236  18.714  0.00  0.00    +0.000 C 
ATOM      5  C   UNL     1       1.773   3.099  18.675  0.00  0.00    +0.000 A 
ATOM      6  C   UNL     1       1.771   4.318  17.985  0.00  0.00    +0.000 A 
ATOM      7  C   UNL     1       2.925   5.103  17.928  0.00  0.00    +0.000 A 
ATOM      8  C   UNL     1       4.087   4.669  18.572  0.00  0.00    +0.000 A 
ATOM      9  C   UNL     1       4.107   3.451  19.257  0.00  0.00    +0.000 A 
ATOM     10  C   UNL     1       2.948   2.673  19.310  0.00  0.00    +0.000 A 
ENDBRANCH   1   8
BRANCH   1  11
ATOM     11  C   UNL     1       6.753   4.436  17.698  0.00  0.00    +0.000 C 
BRANCH  11  12
ATOM     12  C   UNL     1       6.733   4.384  16.207  0.00  0.00    +0.000 A 
ATOM     13  C   UNL     1       6.017   3.579  15.345  0.00  0.00    +0.000 A 
ATOM     14  N   UNL     1       6.396   3.947  14.082  0.00  0.00    +0.000 N 
ATOM     15  C   UNL     1       5.972   3.467  12.852  0.00  0.00    +0.000 A 
ATOM     16  C   UNL     1       6.497   3.984  11.734  0.00  0.00    +0.000 A 
ATOM     17  C   UNL     1       7.514   5.053  11.954  0.00  0.00    +0.000 A 
ATOM     18  N   UNL     1       7.922   5.512  13.098  0.00  0.00    +0.000 NA
ATOM     19  C   UNL     1       7.351   4.951  14.207  0.00  0.00    +0.000 A 
ATOM     20  N   UNL     1       7.568   5.214  15.482  0.00  0.00    +0.000 NA
ENDBRANCH  11  12
ENDBRANCH   1  11
TORSDOF 3
ENDMDL
MODEL 8
REMARK VINA RESULT:      -7.1      2.745      6.277
REMARK  Name = 
REMARK  4 active torsions:
REMARK  status: ('A' for Active; 'I' for Inactive)
REMARK    1  A    between atoms: C_1  and  C_2
REMARK    2  A    between atoms: C_5  and  S_6
REMARK    3  A    between atoms: S_6  and  C_9
REMARK    4  A    between atoms: C_9  and  C_10
REMARK                            x       y       z     vdW  Elec       q    Type
REMARK                         _______ _______ _______ _____ _____    ______ ____
ROOT
ATOM      1  S   UNL     1       6.398   6.173  16.780  0.00  0.00    +0.000 S 
ATOM      2  O   UNL     1       7.658   6.898  16.741  0.00  0.00    +0.000 OA
ATOM      3  O   UNL     1       5.140   6.899  16.809  0.00  0.00    +0.000 OA
ENDROOT
BRANCH   1   8
ATOM      4  C   UNL     1       6.118   2.943  11.639  0.00  0.00    +0.000 C 
ATOM      5  C   UNL     1       6.204   3.697  12.935  0.00  0.00    +0.000 A 
ATOM      6  C   UNL     1       5.156   3.648  13.863  0.00  0.00    +0.000 A 
ATOM      7  C   UNL     1       5.229   4.374  15.054  0.00  0.00    +0.000 A 
ATOM      8  C   UNL     1       6.362   5.147  15.322  0.00  0.00    +0.000 A 
ATOM      9  C   UNL     1       7.412   5.212  14.402  0.00  0.00    +0.000 A 
ATOM     10  C   UNL     1       7.331   4.482  13.214  0.00  0.00    +0.000 A 
ENDBRANCH   1   8
BRANCH   1  11
ATOM     11  C   UNL     1       6.440   5.005  18.133  0.00  0.00    +0.000 C 
BRANCH  11  12
ATOM     12  C   UNL     1       5.088   4.590  18.607  0.00  0.00    +0.000 A 
ATOM     13  C   UNL     1       4.305   3.508  18.256  0.00  0.00    +0.000 A 
ATOM     14  N   UNL     1       3.154   3.624  18.987  0.00  0.00    +0.000 N 
ATOM     15  C   UNL     1       2.041   2.798  19.027  0.00  0.00    +0.000 A 
ATOM     16  C   UNL     1       1.016   3.123  19.825  0.00  0.00    +0.000 A 
ATOM     17  C   UNL     1       1.201   4.383  20.603  0.00  0.00    +0.000 A 
ATOM     18  N   UNL     1       2.234   5.167  20.574  0.00  0.00    +0.000 NA
ATOM     19  C   UNL     1       3.253   4.787  19.746  0.00  0.00    +0.000 A 
ATOM     20  N   UNL     1       4.410   5.379  19.516  0.00  0.00    +0.000 NA
ENDBRANCH  11  12
ENDBRANCH   1  11
TORSDOF 3
ENDMDL
MODEL 9
REMARK VINA RESULT:      -7.1      3.623      6.592
REMARK  Name = 
REMARK  4 active torsions:
REMARK  status: ('A' for Active; 'I' for Inactive)
REMARK    1  A    between atoms: C_1  and  C_2
REMARK    2  A    between atoms: C_5  and  S_6
REMARK    3  A    between atoms: S_6  and  C_9
REMARK    4  A    between atoms: C_9  and  C_10
REMARK                            x       y       z     vdW  Elec       q    Type
REMARK                         _______ _______ _______ _____ _____    ______ ____
ROOT
ATOM      1  S   UNL     1       4.956   4.369  19.065  0.00  0.00    +0.000 S 
ATOM      2  O   UNL     1       5.239   3.055  19.622  0.00  0.00    +0.000 OA
ATOM      3  O   UNL     1       5.470   5.562  19.715  0.00  0.00    +0.000 OA
ENDROOT
BRANCH   1   8
ATOM      4  C   UNL     1       7.117   4.704  13.394  0.00  0.00    +0.000 C 
ATOM      5  C   UNL     1       6.590   4.568  14.793  0.00  0.00    +0.000 A 
ATOM      6  C   UNL     1       5.248   4.236  15.025  0.00  0.00    +0.000 A 
ATOM      7  C   UNL     1       4.756   4.139  16.329  0.00  0.00    +0.000 A 
ATOM      8  C   UNL     1       5.614   4.367  17.408  0.00  0.00    +0.000 A 
ATOM      9  C   UNL     1       6.952   4.706  17.193  0.00  0.00    +0.000 A 
ATOM     10  C   UNL     1       7.436   4.801  15.886  0.00  0.00    +0.000 A 
ENDBRANCH   1   8
BRANCH   1  11
ATOM     11  C   UNL     1       3.191   4.534  18.832  0.00  0.00    +0.000 C 
BRANCH  11  12
ATOM     12  C   UNL     1       2.699   5.936  18.965  0.00  0.00    +0.000 A 
ATOM     13  C   UNL     1       2.080   6.575  20.020  0.00  0.00    +0.000 A 
ATOM     14  N   UNL     1       1.831   7.852  19.595  0.00  0.00    +0.000 N 
ATOM     15  C   UNL     1       1.241   8.912  20.266  0.00  0.00    +0.000 A 
ATOM     16  C   UNL     1       1.095  10.083  19.634  0.00  0.00    +0.000 A 
ATOM     17  C   UNL     1       1.604  10.108  18.231  0.00  0.00    +0.000 A 
ATOM     18  N   UNL     1       2.157   9.124  17.590  0.00  0.00    +0.000 NA
ATOM     19  C   UNL     1       2.283   7.952  18.282  0.00  0.00    +0.000 A 
ATOM     20  N   UNL     1       2.798   6.801  17.892  0.00  0.00    +0.000 NA
ENDBRANCH  11  12
ENDBRANCH   1  11
TORSDOF 3
ENDMDL
