MODEL 1
REMARK VINA RESULT:      -6.5      0.000      0.000
REMARK  Name = 
REMARK  19 active torsions:
REMARK  status: ('A' for Active; 'I' for Inactive)
REMARK    1  A    between atoms: C_1  and  O_2
REMARK    2  A    between atoms: O_2  and  C_3
REMARK    3  A    between atoms: C_5  and  O_6
REMARK    4  A    between atoms: O_6  and  C_7
REMARK    5  A    between atoms: C_8  and  C_9
REMARK    6  A    between atoms: C_9  and  C_11
REMARK    7  A    between atoms: C_11  and  C_12
REMARK    8  A    between atoms: C_12  and  C_13
REMARK    9  A    between atoms: C_12  and  C_14
REMARK   10  A    between atoms: C_15  and  O_16
REMARK   11  A    between atoms: O_16  and  C_17
REMARK   12  A    between atoms: C_17  and  C_18
REMARK   13  A    between atoms: C_18  and  O_19
REMARK   14  A    between atoms: C_18  and  C_20
REMARK   15  A    between atoms: C_20  and  N_21
REMARK   16  A    between atoms: N_21  and  C_22
REMARK   17  A    between atoms: C_22  and  C_23
REMARK   18  A    between atoms: C_22  and  C_24
REMARK   19  A    between atoms: C_22  and  C_25
REMARK                            x       y       z     vdW  Elec       q    Type
REMARK                         _______ _______ _______ _____ _____    ______ ____
ROOT
ATOM      1  C   UNL     1       5.670   5.644  17.596  0.00  0.00    +0.000 A 
ATOM      2  C   UNL     1       5.407   4.285  17.541  0.00  0.00    +0.000 A 
ATOM      3  C   UNL     1       4.094   3.781  17.653  0.00  0.00    +0.000 A 
ATOM      4  C   UNL     1       3.003   4.691  17.819  0.00  0.00    +0.000 A 
ATOM      5  C   UNL     1       3.272   6.095  17.819  0.00  0.00    +0.000 A 
ATOM      6  C   UNL     1       4.609   6.538  17.726  0.00  0.00    +0.000 A 
ENDROOT
BRANCH   1   8
ATOM      7  C   UNL     1       7.385   7.357  17.325  0.00  0.00    +0.000 C 
ATOM      8  O   UNL     1       6.964   6.055  17.511  0.00  0.00    +0.000 OA
ENDBRANCH   1   8
BRANCH   3   9
ATOM      9  O   UNL     1       3.876   2.441  17.570  0.00  0.00    +0.000 OA
ATOM     10  C   UNL     1       4.002   1.534  18.611  0.00  0.00    +0.000 C 
ENDBRANCH   3   9
BRANCH   4  11
ATOM     11  C   UNL     1       1.568   4.220  17.956  0.00  0.00    +0.000 C 
ATOM     12  O   UNL     1       0.813   4.348  17.004  0.00  0.00    +0.000 OA
BRANCH  11  13
ATOM     13  C   UNL     1       0.951   3.642  19.218  0.00  0.00    +0.000 C 
BRANCH  13  14
ATOM     14  C   UNL     1       1.825   3.891  20.475  0.00  0.00    +0.000 C 
ATOM     15  C   UNL     1       1.690   5.336  20.988  0.00  0.00    +0.000 C 
ATOM     16  C   UNL     1       1.418   2.924  21.598  0.00  0.00    +0.000 C 
ENDBRANCH  13  14
ENDBRANCH  11  13
ENDBRANCH   4  11
BRANCH   5  17
ATOM     17  O   UNL     1       2.238   6.991  17.907  0.00  0.00    +0.000 OA
BRANCH  17  18
ATOM     18  C   UNL     1       2.225   8.179  18.632  0.00  0.00    +0.000 C 
BRANCH  18  19
ATOM     19  C   UNL     1       1.329   9.276  18.008  0.00  0.00    +0.000 C 
BRANCH  19  20
ATOM     20  O   UNL     1       2.094  10.345  17.508  0.00  0.00    +0.000 OA
ATOM     21  H   UNL     1       2.847   9.967  16.983  0.00  0.00    +0.000 HD
ENDBRANCH  19  20
BRANCH  19  22
ATOM     22  C   UNL     1       0.346   9.749  19.105  0.00  0.00    +0.000 C 
BRANCH  22  23
ATOM     23  N   UNL     1       1.000  10.234  20.336  0.00  0.00    +0.000 NA
ATOM     24  H   UNL     1       0.910  11.278  20.367  0.00  0.00    +0.000 HD
BRANCH  23  25
ATOM     25  C   UNL     1       0.436   9.654  21.598  0.00  0.00    +0.000 C 
ATOM     26  C   UNL     1       1.560   9.222  22.568  0.00  0.00    +0.000 C 
ATOM     27  C   UNL     1      -0.398  10.740  22.311  0.00  0.00    +0.000 C 
ATOM     28  C   UNL     1      -0.495   8.451  21.315  0.00  0.00    +0.000 C 
ENDBRANCH  23  25
ENDBRANCH  22  23
ENDBRANCH  19  22
ENDBRANCH  18  19
ENDBRANCH  17  18
ENDBRANCH   5  17
TORSDOF 12
ENDMDL
MODEL 2
REMARK VINA RESULT:      -6.2      2.395      5.529
REMARK  Name = 
REMARK  19 active torsions:
REMARK  status: ('A' for Active; 'I' for Inactive)
REMARK    1  A    between atoms: C_1  and  O_2
REMARK    2  A    between atoms: O_2  and  C_3
REMARK    3  A    between atoms: C_5  and  O_6
REMARK    4  A    between atoms: O_6  and  C_7
REMARK    5  A    between atoms: C_8  and  C_9
REMARK    6  A    between atoms: C_9  and  C_11
REMARK    7  A    between atoms: C_11  and  C_12
REMARK    8  A    between atoms: C_12  and  C_13
REMARK    9  A    between atoms: C_12  and  C_14
REMARK   10  A    between atoms: C_15  and  O_16
REMARK   11  A    between atoms: O_16  and  C_17
REMARK   12  A    between atoms: C_17  and  C_18
REMARK   13  A    between atoms: C_18  and  O_19
REMARK   14  A    between atoms: C_18  and  C_20
REMARK   15  A    between atoms: C_20  and  N_21
REMARK   16  A    between atoms: N_21  and  C_22
REMARK   17  A    between atoms: C_22  and  C_23
REMARK   18  A    between atoms: C_22  and  C_24
REMARK   19  A    between atoms: C_22  and  C_25
REMARK                            x       y       z     vdW  Elec       q    Type
REMARK                         _______ _______ _______ _____ _____    ______ ____
ROOT
ATOM      1  C   UNL     1       6.147   4.476  15.145  0.00  0.00    +0.000 A 
ATOM      2  C   UNL     1       6.547   5.640  15.781  0.00  0.00    +0.000 A 
ATOM      3  C   UNL     1       5.797   6.203  16.834  0.00  0.00    +0.000 A 
ATOM      4  C   UNL     1       4.595   5.557  17.265  0.00  0.00    +0.000 A 
ATOM      5  C   UNL     1       4.215   4.327  16.644  0.00  0.00    +0.000 A 
ATOM      6  C   UNL     1       4.994   3.825  15.580  0.00  0.00    +0.000 A 
ENDROOT
BRANCH   1   8
ATOM      7  C   UNL     1       7.497   4.779  13.137  0.00  0.00    +0.000 C 
ATOM      8  O   UNL     1       6.905   4.008  14.117  0.00  0.00    +0.000 OA
ENDBRANCH   1   8
BRANCH   3   9
ATOM      9  O   UNL     1       6.238   7.333  17.448  0.00  0.00    +0.000 OA
ATOM     10  C   UNL     1       7.563   7.717  17.583  0.00  0.00    +0.000 C 
ENDBRANCH   3   9
BRANCH   4  11
ATOM     11  C   UNL     1       3.733   6.110  18.383  0.00  0.00    +0.000 C 
ATOM     12  O   UNL     1       4.102   5.963  19.539  0.00  0.00    +0.000 OA
BRANCH  11  13
ATOM     13  C   UNL     1       2.391   6.798  18.198  0.00  0.00    +0.000 C 
BRANCH  13  14
ATOM     14  C   UNL     1       2.401   8.266  18.697  0.00  0.00    +0.000 C 
ATOM     15  C   UNL     1       1.763   9.222  17.674  0.00  0.00    +0.000 C 
ATOM     16  C   UNL     1       1.636   8.374  20.025  0.00  0.00    +0.000 C 
ENDBRANCH  13  14
ENDBRANCH  11  13
ENDBRANCH   4  11
BRANCH   5  17
ATOM     17  O   UNL     1       3.106   3.651  17.085  0.00  0.00    +0.000 OA
BRANCH  17  18
ATOM     18  C   UNL     1       3.031   2.301  17.414  0.00  0.00    +0.000 C 
BRANCH  18  19
ATOM     19  C   UNL     1       4.093   1.855  18.449  0.00  0.00    +0.000 C 
BRANCH  19  20
ATOM     20  O   UNL     1       4.447   0.504  18.276  0.00  0.00    +0.000 OA
ATOM     21  H   UNL     1       5.058   0.443  17.496  0.00  0.00    +0.000 HD
ENDBRANCH  19  20
BRANCH  19  22
ATOM     22  C   UNL     1       3.503   2.110  19.856  0.00  0.00    +0.000 C 
BRANCH  22  23
ATOM     23  N   UNL     1       2.924   3.456  20.036  0.00  0.00    +0.000 NA
ATOM     24  H   UNL     1       2.949   3.950  19.112  0.00  0.00    +0.000 HD
BRANCH  23  25
ATOM     25  C   UNL     1       1.519   3.453  20.556  0.00  0.00    +0.000 C 
ATOM     26  C   UNL     1       0.981   4.892  20.726  0.00  0.00    +0.000 C 
ATOM     27  C   UNL     1       0.614   2.740  19.529  0.00  0.00    +0.000 C 
ATOM     28  C   UNL     1       1.402   2.695  21.899  0.00  0.00    +0.000 C 
ENDBRANCH  23  25
ENDBRANCH  22  23
ENDBRANCH  19  22
ENDBRANCH  18  19
ENDBRANCH  17  18
ENDBRANCH   5  17
TORSDOF 12
ENDMDL
MODEL 3
REMARK VINA RESULT:      -6.1      3.666      7.263
REMARK  Name = 
REMARK  19 active torsions:
REMARK  status: ('A' for Active; 'I' for Inactive)
REMARK    1  A    between atoms: C_1  and  O_2
REMARK    2  A    between atoms: O_2  and  C_3
REMARK    3  A    between atoms: C_5  and  O_6
REMARK    4  A    between atoms: O_6  and  C_7
REMARK    5  A    between atoms: C_8  and  C_9
REMARK    6  A    between atoms: C_9  and  C_11
REMARK    7  A    between atoms: C_11  and  C_12
REMARK    8  A    between atoms: C_12  and  C_13
REMARK    9  A    between atoms: C_12  and  C_14
REMARK   10  A    between atoms: C_15  and  O_16
REMARK   11  A    between atoms: O_16  and  C_17
REMARK   12  A    between atoms: C_17  and  C_18
REMARK   13  A    between atoms: C_18  and  O_19
REMARK   14  A    between atoms: C_18  and  C_20
REMARK   15  A    between atoms: C_20  and  N_21
REMARK   16  A    between atoms: N_21  and  C_22
REMARK   17  A    between atoms: C_22  and  C_23
REMARK   18  A    between atoms: C_22  and  C_24
REMARK   19  A    between atoms: C_22  and  C_25
REMARK                            x       y       z     vdW  Elec       q    Type
REMARK                         _______ _______ _______ _____ _____    ______ ____
ROOT
ATOM      1  C   UNL     1       2.221   7.992  18.627  0.00  0.00    +0.000 A 
ATOM      2  C   UNL     1       2.031   7.112  19.680  0.00  0.00    +0.000 A 
ATOM      3  C   UNL     1       2.887   6.009  19.885  0.00  0.00    +0.000 A 
ATOM      4  C   UNL     1       3.983   5.793  18.991  0.00  0.00    +0.000 A 
ATOM      5  C   UNL     1       4.208   6.734  17.939  0.00  0.00    +0.000 A 
ATOM      6  C   UNL     1       3.305   7.806  17.771  0.00  0.00    +0.000 A 
ENDROOT
BRANCH   1   8
ATOM      7  C   UNL     1       1.667  10.325  18.181  0.00  0.00    +0.000 C 
ATOM      8  O   UNL     1       1.339   9.016  18.474  0.00  0.00    +0.000 OA
ENDBRANCH   1   8
BRANCH   3   9
ATOM      9  O   UNL     1       2.680   5.183  20.945  0.00  0.00    +0.000 OA
ATOM     10  C   UNL     1       1.666   4.245  21.054  0.00  0.00    +0.000 C 
ENDBRANCH   3   9
BRANCH   4  11
ATOM     11  C   UNL     1       4.935   4.623  19.145  0.00  0.00    +0.000 C 
ATOM     12  O   UNL     1       6.069   4.837  19.546  0.00  0.00    +0.000 OA
BRANCH  11  13
ATOM     13  C   UNL     1       4.621   3.182  18.781  0.00  0.00    +0.000 C 
BRANCH  13  14
ATOM     14  C   UNL     1       3.181   3.008  18.233  0.00  0.00    +0.000 C 
ATOM     15  C   UNL     1       3.111   3.263  16.717  0.00  0.00    +0.000 C 
ATOM     16  C   UNL     1       2.677   1.585  18.522  0.00  0.00    +0.000 C 
ENDBRANCH  13  14
ENDBRANCH  11  13
ENDBRANCH   4  11
BRANCH   5  17
ATOM     17  O   UNL     1       5.292   6.590  17.111  0.00  0.00    +0.000 OA
BRANCH  17  18
ATOM     18  C   UNL     1       5.268   6.260  15.760  0.00  0.00    +0.000 C 
BRANCH  18  19
ATOM     19  C   UNL     1       6.123   5.017  15.410  0.00  0.00    +0.000 C 
BRANCH  19  20
ATOM     20  O   UNL     1       7.478   5.355  15.234  0.00  0.00    +0.000 OA
ATOM     21  H   UNL     1       8.024   4.733  15.783  0.00  0.00    +0.000 HD
ENDBRANCH  19  20
BRANCH  19  22
ATOM     22  C   UNL     1       5.525   4.390  14.129  0.00  0.00    +0.000 C 
BRANCH  22  23
ATOM     23  N   UNL     1       6.324   3.283  13.566  0.00  0.00    +0.000 NA
ATOM     24  H   UNL     1       5.961   2.383  13.961  0.00  0.00    +0.000 HD
BRANCH  23  25
ATOM     25  C   UNL     1       6.299   3.210  12.069  0.00  0.00    +0.000 C 
ATOM     26  C   UNL     1       6.857   1.859  11.565  0.00  0.00    +0.000 C 
ATOM     27  C   UNL     1       4.835   3.312  11.594  0.00  0.00    +0.000 C 
ATOM     28  C   UNL     1       7.091   4.370  11.422  0.00  0.00    +0.000 C 
ENDBRANCH  23  25
ENDBRANCH  22  23
ENDBRANCH  19  22
ENDBRANCH  18  19
ENDBRANCH  17  18
ENDBRANCH   5  17
TORSDOF 12
ENDMDL
MODEL 4
REMARK VINA RESULT:      -6.1      1.300      1.750
REMARK  Name = 
REMARK  19 active torsions:
REMARK  status: ('A' for Active; 'I' for Inactive)
REMARK    1  A    between atoms: C_1  and  O_2
REMARK    2  A    between atoms: O_2  and  C_3
REMARK    3  A    between atoms: C_5  and  O_6
REMARK    4  A    between atoms: O_6  and  C_7
REMARK    5  A    between atoms: C_8  and  C_9
REMARK    6  A    between atoms: C_9  and  C_11
REMARK    7  A    between atoms: C_11  and  C_12
REMARK    8  A    between atoms: C_12  and  C_13
REMARK    9  A    between atoms: C_12  and  C_14
REMARK   10  A    between atoms: C_15  and  O_16
REMARK   11  A    between atoms: O_16  and  C_17
REMARK   12  A    between atoms: C_17  and  C_18
REMARK   13  A    between atoms: C_18  and  O_19
REMARK   14  A    between atoms: C_18  and  C_20
REMARK   15  A    between atoms: C_20  and  N_21
REMARK   16  A    between atoms: N_21  and  C_22
REMARK   17  A    between atoms: C_22  and  C_23
REMARK   18  A    between atoms: C_22  and  C_24
REMARK   19  A    between atoms: C_22  and  C_25
REMARK                            x       y       z     vdW  Elec       q    Type
REMARK                         _______ _______ _______ _____ _____    ______ ____
ROOT
ATOM      1  C   UNL     1       5.545   5.251  16.970  0.00  0.00    +0.000 A 
ATOM      2  C   UNL     1       5.199   3.910  17.011  0.00  0.00    +0.000 A 
ATOM      3  C   UNL     1       3.901   3.491  17.368  0.00  0.00    +0.000 A 
ATOM      4  C   UNL     1       2.910   4.471  17.691  0.00  0.00    +0.000 A 
ATOM      5  C   UNL     1       3.254   5.855  17.595  0.00  0.00    +0.000 A 
ATOM      6  C   UNL     1       4.576   6.212  17.254  0.00  0.00    +0.000 A 
ENDROOT
BRANCH   1   8
ATOM      7  C   UNL     1       7.566   5.016  15.626  0.00  0.00    +0.000 C 
ATOM      8  O   UNL     1       6.824   5.579  16.646  0.00  0.00    +0.000 OA
ENDBRANCH   1   8
BRANCH   3   9
ATOM      9  O   UNL     1       3.596   2.166  17.372  0.00  0.00    +0.000 OA
ATOM     10  C   UNL     1       3.732   1.307  18.451  0.00  0.00    +0.000 C 
ENDBRANCH   3   9
BRANCH   4  11
ATOM     11  C   UNL     1       1.497   4.093  18.094  0.00  0.00    +0.000 C 
ATOM     12  O   UNL     1       0.604   4.186  17.265  0.00  0.00    +0.000 OA
BRANCH  11  13
ATOM     13  C   UNL     1       1.069   3.655  19.484  0.00  0.00    +0.000 C 
BRANCH  13  14
ATOM     14  C   UNL     1       2.057   4.121  20.585  0.00  0.00    +0.000 C 
ATOM     15  C   UNL     1       1.765   5.561  21.044  0.00  0.00    +0.000 C 
ATOM     16  C   UNL     1       1.969   3.184  21.800  0.00  0.00    +0.000 C 
ENDBRANCH  13  14
ENDBRANCH  11  13
ENDBRANCH   4  11
BRANCH   5  17
ATOM     17  O   UNL     1       2.304   6.816  17.831  0.00  0.00    +0.000 OA
BRANCH  17  18
ATOM     18  C   UNL     1       2.497   8.039  18.464  0.00  0.00    +0.000 C 
BRANCH  18  19
ATOM     19  C   UNL     1       1.423   9.096  18.112  0.00  0.00    +0.000 C 
BRANCH  19  20
ATOM     20  O   UNL     1       1.950  10.119  17.301  0.00  0.00    +0.000 OA
ATOM     21  H   UNL     1       2.011  10.945  17.848  0.00  0.00    +0.000 HD
ENDBRANCH  19  20
BRANCH  19  22
ATOM     22  C   UNL     1       0.872   9.658  19.444  0.00  0.00    +0.000 C 
BRANCH  22  23
ATOM     23  N   UNL     1      -0.436  10.333  19.323  0.00  0.00    +0.000 NA
ATOM     24  H   UNL     1      -1.130   9.810  19.907  0.00  0.00    +0.000 HD
BRANCH  23  25
ATOM     25  C   UNL     1      -0.423  11.771  19.742  0.00  0.00    +0.000 C 
ATOM     26  C   UNL     1      -0.510  12.712  18.519  0.00  0.00    +0.000 C 
ATOM     27  C   UNL     1      -1.663  12.040  20.621  0.00  0.00    +0.000 C 
ATOM     28  C   UNL     1       0.834  12.120  20.574  0.00  0.00    +0.000 C 
ENDBRANCH  23  25
ENDBRANCH  22  23
ENDBRANCH  19  22
ENDBRANCH  18  19
ENDBRANCH  17  18
ENDBRANCH   5  17
TORSDOF 12
ENDMDL
MODEL 5
REMARK VINA RESULT:      -6.0      1.858      4.464
REMARK  Name = 
REMARK  19 active torsions:
REMARK  status: ('A' for Active; 'I' for Inactive)
REMARK    1  A    between atoms: C_1  and  O_2
REMARK    2  A    between atoms: O_2  and  C_3
REMARK    3  A    between atoms: C_5  and  O_6
REMARK    4  A    between atoms: O_6  and  C_7
REMARK    5  A    between atoms: C_8  and  C_9
REMARK    6  A    between atoms: C_9  and  C_11
REMARK    7  A    between atoms: C_11  and  C_12
REMARK    8  A    between atoms: C_12  and  C_13
REMARK    9  A    between atoms: C_12  and  C_14
REMARK   10  A    between atoms: C_15  and  O_16
REMARK   11  A    between atoms: O_16  and  C_17
REMARK   12  A    between atoms: C_17  and  C_18
REMARK   13  A    between atoms: C_18  and  O_19
REMARK   14  A    between atoms: C_18  and  C_20
REMARK   15  A    between atoms: C_20  and  N_21
REMARK   16  A    between atoms: N_21  and  C_22
REMARK   17  A    between atoms: C_22  and  C_23
REMARK   18  A    between atoms: C_22  and  C_24
REMARK   19  A    between atoms: C_22  and  C_25
REMARK                            x       y       z     vdW  Elec       q    Type
REMARK                         _______ _______ _______ _____ _____    ______ ____
ROOT
ATOM      1  C   UNL     1       2.294   3.668  17.632  0.00  0.00    +0.000 A 
ATOM      2  C   UNL     1       3.375   3.255  16.869  0.00  0.00    +0.000 A 
ATOM      3  C   UNL     1       4.421   4.138  16.531  0.00  0.00    +0.000 A 
ATOM      4  C   UNL     1       4.375   5.492  16.989  0.00  0.00    +0.000 A 
ATOM      5  C   UNL     1       3.287   5.899  17.822  0.00  0.00    +0.000 A 
ATOM      6  C   UNL     1       2.258   4.977  18.108  0.00  0.00    +0.000 A 
ENDROOT
BRANCH   1   8
ATOM      7  C   UNL     1       0.759   2.513  19.135  0.00  0.00    +0.000 C 
ATOM      8  O   UNL     1       1.307   2.769  17.894  0.00  0.00    +0.000 OA
ENDBRANCH   1   8
BRANCH   3   9
ATOM      9  O   UNL     1       5.476   3.686  15.801  0.00  0.00    +0.000 OA
ATOM     10  C   UNL     1       5.717   3.969  14.465  0.00  0.00    +0.000 C 
ENDBRANCH   3   9
BRANCH   4  11
ATOM     11  C   UNL     1       5.459   6.498  16.656  0.00  0.00    +0.000 C 
ATOM     12  O   UNL     1       5.347   7.170  15.642  0.00  0.00    +0.000 OA
BRANCH  11  13
ATOM     13  C   UNL     1       6.732   6.713  17.457  0.00  0.00    +0.000 C 
BRANCH  13  14
ATOM     14  C   UNL     1       7.077   5.503  18.362  0.00  0.00    +0.000 C 
ATOM     15  C   UNL     1       7.910   4.447  17.613  0.00  0.00    +0.000 C 
ATOM     16  C   UNL     1       7.865   5.976  19.594  0.00  0.00    +0.000 C 
ENDBRANCH  13  14
ENDBRANCH  11  13
ENDBRANCH   4  11
BRANCH   5  17
ATOM     17  O   UNL     1       3.254   7.171  18.333  0.00  0.00    +0.000 OA
BRANCH  17  18
ATOM     18  C   UNL     1       2.119   7.926  18.615  0.00  0.00    +0.000 C 
BRANCH  18  19
ATOM     19  C   UNL     1       1.951   8.255  20.118  0.00  0.00    +0.000 C 
BRANCH  19  20
ATOM     20  O   UNL     1       1.719   7.094  20.878  0.00  0.00    +0.000 OA
ATOM     21  H   UNL     1       1.593   7.365  21.825  0.00  0.00    +0.000 HD
ENDBRANCH  19  20
BRANCH  19  22
ATOM     22  C   UNL     1       0.778   9.256  20.244  0.00  0.00    +0.000 C 
BRANCH  22  23
ATOM     23  N   UNL     1       1.009  10.548  19.567  0.00  0.00    +0.000 NA
ATOM     24  H   UNL     1       1.591  10.372  18.714  0.00  0.00    +0.000 HD
BRANCH  23  25
ATOM     25  C   UNL     1      -0.247  11.262  19.169  0.00  0.00    +0.000 C 
ATOM     26  C   UNL     1      -1.062  10.436  18.148  0.00  0.00    +0.000 C 
ATOM     27  C   UNL     1      -1.128  11.448  20.422  0.00  0.00    +0.000 C 
ATOM     28  C   UNL     1       0.047  12.663  18.583  0.00  0.00    +0.000 C 
ENDBRANCH  23  25
ENDBRANCH  22  23
ENDBRANCH  19  22
ENDBRANCH  18  19
ENDBRANCH  17  18
ENDBRANCH   5  17
TORSDOF 12
ENDMDL
MODEL 6
REMARK VINA RESULT:      -5.9      1.646      2.024
REMARK  Name = 
REMARK  19 active torsions:
REMARK  status: ('A' for Active; 'I' for Inactive)
REMARK    1  A    between atoms: C_1  and  O_2
REMARK    2  A    between atoms: O_2  and  C_3
REMARK    3  A    between atoms: C_5  and  O_6
REMARK    4  A    between atoms: O_6  and  C_7
REMARK    5  A    between atoms: C_8  and  C_9
REMARK    6  A    between atoms: C_9  and  C_11
REMARK    7  A    between atoms: C_11  and  C_12
REMARK    8  A    between atoms: C_12  and  C_13
REMARK    9  A    between atoms: C_12  and  C_14
REMARK   10  A    between atoms: C_15  and  O_16
REMARK   11  A    between atoms: O_16  and  C_17
REMARK   12  A    between atoms: C_17  and  C_18
REMARK   13  A    between atoms: C_18  and  O_19
REMARK   14  A    between atoms: C_18  and  C_20
REMARK   15  A    between atoms: C_20  and  N_21
REMARK   16  A    between atoms: N_21  and  C_22
REMARK   17  A    between atoms: C_22  and  C_23
REMARK   18  A    between atoms: C_22  and  C_24
REMARK   19  A    between atoms: C_22  and  C_25
REMARK                            x       y       z     vdW  Elec       q    Type
REMARK                         _______ _______ _______ _____ _____    ______ ____
ROOT
ATOM      1  C   UNL     1       5.630   5.206  17.579  0.00  0.00    +0.000 A 
ATOM      2  C   UNL     1       5.259   3.873  17.511  0.00  0.00    +0.000 A 
ATOM      3  C   UNL     1       3.916   3.471  17.672  0.00  0.00    +0.000 A 
ATOM      4  C   UNL     1       2.909   4.459  17.905  0.00  0.00    +0.000 A 
ATOM      5  C   UNL     1       3.288   5.837  17.920  0.00  0.00    +0.000 A 
ATOM      6  C   UNL     1       4.650   6.177  17.776  0.00  0.00    +0.000 A 
ENDROOT
BRANCH   1   8
ATOM      7  C   UNL     1       7.995   4.618  17.480  0.00  0.00    +0.000 C 
ATOM      8  O   UNL     1       6.947   5.517  17.444  0.00  0.00    +0.000 OA
ENDBRANCH   1   8
BRANCH   3   9
ATOM      9  O   UNL     1       3.590   2.154  17.573  0.00  0.00    +0.000 OA
ATOM     10  C   UNL     1       3.778   1.197  18.558  0.00  0.00    +0.000 C 
ENDBRANCH   3   9
BRANCH   4  11
ATOM     11  C   UNL     1       1.449   4.099  18.098  0.00  0.00    +0.000 C 
ATOM     12  O   UNL     1       0.673   4.268  17.169  0.00  0.00    +0.000 OA
BRANCH  11  13
ATOM     13  C   UNL     1       0.834   3.588  19.390  0.00  0.00    +0.000 C 
BRANCH  13  14
ATOM     14  C   UNL     1       1.831   3.625  20.578  0.00  0.00    +0.000 C 
ATOM     15  C   UNL     1       1.962   5.039  21.171  0.00  0.00    +0.000 C 
ATOM     16  C   UNL     1       1.368   2.662  21.682  0.00  0.00    +0.000 C 
ENDBRANCH  13  14
ENDBRANCH  11  13
ENDBRANCH   4  11
BRANCH   5  17
ATOM     17  O   UNL     1       2.332   6.809  18.072  0.00  0.00    +0.000 OA
BRANCH  17  18
ATOM     18  C   UNL     1       2.476   8.167  17.803  0.00  0.00    +0.000 C 
BRANCH  18  19
ATOM     19  C   UNL     1       1.858   9.083  18.887  0.00  0.00    +0.000 C 
BRANCH  19  20
ATOM     20  O   UNL     1       1.482   8.352  20.029  0.00  0.00    +0.000 OA
ATOM     21  H   UNL     1       0.907   7.597  19.736  0.00  0.00    +0.000 HD
ENDBRANCH  19  20
BRANCH  19  22
ATOM     22  C   UNL     1       0.644   9.799  18.250  0.00  0.00    +0.000 C 
BRANCH  22  23
ATOM     23  N   UNL     1       0.800  11.262  18.125  0.00  0.00    +0.000 NA
ATOM     24  H   UNL     1       0.544  11.538  17.147  0.00  0.00    +0.000 HD
BRANCH  23  25
ATOM     25  C   UNL     1      -0.031  12.050  19.092  0.00  0.00    +0.000 C 
ATOM     26  C   UNL     1      -0.502  13.385  18.469  0.00  0.00    +0.000 C 
ATOM     27  C   UNL     1      -1.293  11.233  19.440  0.00  0.00    +0.000 C 
ATOM     28  C   UNL     1       0.729  12.334  20.409  0.00  0.00    +0.000 C 
ENDBRANCH  23  25
ENDBRANCH  22  23
ENDBRANCH  19  22
ENDBRANCH  18  19
ENDBRANCH  17  18
ENDBRANCH   5  17
TORSDOF 12
ENDMDL
MODEL 7
REMARK VINA RESULT:      -5.9      1.820      4.409
REMARK  Name = 
REMARK  19 active torsions:
REMARK  status: ('A' for Active; 'I' for Inactive)
REMARK    1  A    between atoms: C_1  and  O_2
REMARK    2  A    between atoms: O_2  and  C_3
REMARK    3  A    between atoms: C_5  and  O_6
REMARK    4  A    between atoms: O_6  and  C_7
REMARK    5  A    between atoms: C_8  and  C_9
REMARK    6  A    between atoms: C_9  and  C_11
REMARK    7  A    between atoms: C_11  and  C_12
REMARK    8  A    between atoms: C_12  and  C_13
REMARK    9  A    between atoms: C_12  and  C_14
REMARK   10  A    between atoms: C_15  and  O_16
REMARK   11  A    between atoms: O_16  and  C_17
REMARK   12  A    between atoms: C_17  and  C_18
REMARK   13  A    between atoms: C_18  and  O_19
REMARK   14  A    between atoms: C_18  and  C_20
REMARK   15  A    between atoms: C_20  and  N_21
REMARK   16  A    between atoms: N_21  and  C_22
REMARK   17  A    between atoms: C_22  and  C_23
REMARK   18  A    between atoms: C_22  and  C_24
REMARK   19  A    between atoms: C_22  and  C_25
REMARK                            x       y       z     vdW  Elec       q    Type
REMARK                         _______ _______ _______ _____ _____    ______ ____
ROOT
ATOM      1  C   UNL     1       2.898   3.420  17.969  0.00  0.00    +0.000 A 
ATOM      2  C   UNL     1       3.951   3.010  17.167  0.00  0.00    +0.000 A 
ATOM      3  C   UNL     1       4.838   3.936  16.581  0.00  0.00    +0.000 A 
ATOM      4  C   UNL     1       4.656   5.335  16.822  0.00  0.00    +0.000 A 
ATOM      5  C   UNL     1       3.603   5.750  17.695  0.00  0.00    +0.000 A 
ATOM      6  C   UNL     1       2.733   4.778  18.234  0.00  0.00    +0.000 A 
ENDROOT
BRANCH   1   8
ATOM      7  C   UNL     1       1.317   2.590  19.631  0.00  0.00    +0.000 C 
ATOM      8  O   UNL     1       2.066   2.471  18.476  0.00  0.00    +0.000 OA
ENDBRANCH   1   8
BRANCH   3   9
ATOM      9  O   UNL     1       5.874   3.491  15.820  0.00  0.00    +0.000 OA
ATOM     10  C   UNL     1       6.025   3.699  14.458  0.00  0.00    +0.000 C 
ENDBRANCH   3   9
BRANCH   4  11
ATOM     11  C   UNL     1       5.565   6.387  16.217  0.00  0.00    +0.000 C 
ATOM     12  O   UNL     1       5.119   7.119  15.346  0.00  0.00    +0.000 OA
BRANCH  11  13
ATOM     13  C   UNL     1       7.031   6.583  16.562  0.00  0.00    +0.000 C 
BRANCH  13  14
ATOM     14  C   UNL     1       7.236   7.142  17.994  0.00  0.00    +0.000 C 
ATOM     15  C   UNL     1       7.861   6.095  18.933  0.00  0.00    +0.000 C 
ATOM     16  C   UNL     1       8.148   8.378  17.949  0.00  0.00    +0.000 C 
ENDBRANCH  13  14
ENDBRANCH  11  13
ENDBRANCH   4  11
BRANCH   5  17
ATOM     17  O   UNL     1       3.449   7.078  18.000  0.00  0.00    +0.000 OA
BRANCH  17  18
ATOM     18  C   UNL     1       2.254   7.737  18.270  0.00  0.00    +0.000 C 
BRANCH  18  19
ATOM     19  C   UNL     1       2.110   8.180  19.746  0.00  0.00    +0.000 C 
BRANCH  19  20
ATOM     20  O   UNL     1       1.812   7.091  20.586  0.00  0.00    +0.000 OA
ATOM     21  H   UNL     1       0.825   6.986  20.616  0.00  0.00    +0.000 HD
ENDBRANCH  19  20
BRANCH  19  22
ATOM     22  C   UNL     1       0.999   9.256  19.800  0.00  0.00    +0.000 C 
BRANCH  22  23
ATOM     23  N   UNL     1       0.943  10.007  21.070  0.00  0.00    +0.000 NA
ATOM     24  H   UNL     1       1.904  10.368  21.281  0.00  0.00    +0.000 HD
BRANCH  23  25
ATOM     25  C   UNL     1      -0.023  11.152  21.061  0.00  0.00    +0.000 C 
ATOM     26  C   UNL     1      -0.806  11.235  22.392  0.00  0.00    +0.000 C 
ATOM     27  C   UNL     1       0.771  12.467  20.910  0.00  0.00    +0.000 C 
ATOM     28  C   UNL     1      -1.018  11.060  19.881  0.00  0.00    +0.000 C 
ENDBRANCH  23  25
ENDBRANCH  22  23
ENDBRANCH  19  22
ENDBRANCH  18  19
ENDBRANCH  17  18
ENDBRANCH   5  17
TORSDOF 12
ENDMDL
MODEL 8
REMARK VINA RESULT:      -5.8      1.923      4.614
REMARK  Name = 
REMARK  19 active torsions:
REMARK  status: ('A' for Active; 'I' for Inactive)
REMARK    1  A    between atoms: C_1  and  O_2
REMARK    2  A    between atoms: O_2  and  C_3
REMARK    3  A    between atoms: C_5  and  O_6
REMARK    4  A    between atoms: O_6  and  C_7
REMARK    5  A    between atoms: C_8  and  C_9
REMARK    6  A    between atoms: C_9  and  C_11
REMARK    7  A    between atoms: C_11  and  C_12
REMARK    8  A    between atoms: C_12  and  C_13
REMARK    9  A    between atoms: C_12  and  C_14
REMARK   10  A    between atoms: C_15  and  O_16
REMARK   11  A    between atoms: O_16  and  C_17
REMARK   12  A    between atoms: C_17  and  C_18
REMARK   13  A    between atoms: C_18  and  O_19
REMARK   14  A    between atoms: C_18  and  C_20
REMARK   15  A    between atoms: C_20  and  N_21
REMARK   16  A    between atoms: N_21  and  C_22
REMARK   17  A    between atoms: C_22  and  C_23
REMARK   18  A    between atoms: C_22  and  C_24
REMARK   19  A    between atoms: C_22  and  C_25
REMARK                            x       y       z     vdW  Elec       q    Type
REMARK                         _______ _______ _______ _____ _____    ______ ____
ROOT
ATOM      1  C   UNL     1       3.069   3.242  17.762  0.00  0.00    +0.000 A 
ATOM      2  C   UNL     1       4.115   2.924  16.910  0.00  0.00    +0.000 A 
ATOM      3  C   UNL     1       4.946   3.921  16.358  0.00  0.00    +0.000 A 
ATOM      4  C   UNL     1       4.713   5.294  16.685  0.00  0.00    +0.000 A 
ATOM      5  C   UNL     1       3.668   5.612  17.607  0.00  0.00    +0.000 A 
ATOM      6  C   UNL     1       2.855   4.574  18.110  0.00  0.00    +0.000 A 
ENDROOT
BRANCH   1   8
ATOM      7  C   UNL     1       1.593   2.239  19.425  0.00  0.00    +0.000 C 
ATOM      8  O   UNL     1       2.291   2.231  18.233  0.00  0.00    +0.000 OA
ENDBRANCH   1   8
BRANCH   3   9
ATOM      9  O   UNL     1       5.978   3.565  15.546  0.00  0.00    +0.000 OA
ATOM     10  C   UNL     1       6.008   3.705  14.167  0.00  0.00    +0.000 C 
ENDBRANCH   3   9
BRANCH   4  11
ATOM     11  C   UNL     1       5.559   6.418  16.121  0.00  0.00    +0.000 C 
ATOM     12  O   UNL     1       5.078   7.143  15.263  0.00  0.00    +0.000 OA
BRANCH  11  13
ATOM     13  C   UNL     1       7.006   6.696  16.490  0.00  0.00    +0.000 C 
BRANCH  13  14
ATOM     14  C   UNL     1       7.165   7.172  17.957  0.00  0.00    +0.000 C 
ATOM     15  C   UNL     1       7.662   6.042  18.875  0.00  0.00    +0.000 C 
ATOM     16  C   UNL     1       8.159   8.343  18.025  0.00  0.00    +0.000 C 
ENDBRANCH  13  14
ENDBRANCH  11  13
ENDBRANCH   4  11
BRANCH   5  17
ATOM     17  O   UNL     1       3.467   6.913  17.993  0.00  0.00    +0.000 OA
BRANCH  17  18
ATOM     18  C   UNL     1       2.270   7.479  18.419  0.00  0.00    +0.000 C 
BRANCH  18  19
ATOM     19  C   UNL     1       2.219   7.750  19.942  0.00  0.00    +0.000 C 
BRANCH  19  20
ATOM     20  O   UNL     1       1.893   6.586  20.663  0.00  0.00    +0.000 OA
ATOM     21  H   UNL     1       1.146   6.804  21.280  0.00  0.00    +0.000 HD
ENDBRANCH  19  20
BRANCH  19  22
ATOM     22  C   UNL     1       1.179   8.871  20.179  0.00  0.00    +0.000 C 
BRANCH  22  23
ATOM     23  N   UNL     1       0.788   9.602  18.957  0.00  0.00    +0.000 NA
ATOM     24  H   UNL     1      -0.150   9.250  18.649  0.00  0.00    +0.000 HD
BRANCH  23  25
ATOM     25  C   UNL     1       0.724  11.089  19.129  0.00  0.00    +0.000 C 
ATOM     26  C   UNL     1      -0.581  11.667  18.535  0.00  0.00    +0.000 C 
ATOM     27  C   UNL     1       0.728  11.413  20.638  0.00  0.00    +0.000 C 
ATOM     28  C   UNL     1       1.941  11.797  18.488  0.00  0.00    +0.000 C 
ENDBRANCH  23  25
ENDBRANCH  22  23
ENDBRANCH  19  22
ENDBRANCH  18  19
ENDBRANCH  17  18
ENDBRANCH   5  17
TORSDOF 12
ENDMDL
MODEL 9
REMARK VINA RESULT:      -5.8      1.775      4.466
REMARK  Name = 
REMARK  19 active torsions:
REMARK  status: ('A' for Active; 'I' for Inactive)
REMARK    1  A    between atoms: C_1  and  O_2
REMARK    2  A    between atoms: O_2  and  C_3
REMARK    3  A    between atoms: C_5  and  O_6
REMARK    4  A    between atoms: O_6  and  C_7
REMARK    5  A    between atoms: C_8  and  C_9
REMARK    6  A    between atoms: C_9  and  C_11
REMARK    7  A    between atoms: C_11  and  C_12
REMARK    8  A    between atoms: C_12  and  C_13
REMARK    9  A    between atoms: C_12  and  C_14
REMARK   10  A    between atoms: C_15  and  O_16
REMARK   11  A    between atoms: O_16  and  C_17
REMARK   12  A    between atoms: C_17  and  C_18
REMARK   13  A    between atoms: C_18  and  O_19
REMARK   14  A    between atoms: C_18  and  C_20
REMARK   15  A    between atoms: C_20  and  N_21
REMARK   16  A    between atoms: N_21  and  C_22
REMARK   17  A    between atoms: C_22  and  C_23
REMARK   18  A    between atoms: C_22  and  C_24
REMARK   19  A    between atoms: C_22  and  C_25
REMARK                            x       y       z     vdW  Elec       q    Type
REMARK                         _______ _______ _______ _____ _____    ______ ____
ROOT
ATOM      1  C   UNL     1       2.691   3.781  18.533  0.00  0.00    +0.000 A 
ATOM      2  C   UNL     1       3.923   3.424  18.007  0.00  0.00    +0.000 A 
ATOM      3  C   UNL     1       4.757   4.367  17.372  0.00  0.00    +0.000 A 
ATOM      4  C   UNL     1       4.330   5.729  17.271  0.00  0.00    +0.000 A 
ATOM      5  C   UNL     1       3.084   6.105  17.864  0.00  0.00    +0.000 A 
ATOM      6  C   UNL     1       2.283   5.112  18.466  0.00  0.00    +0.000 A 
ENDROOT
BRANCH   1   8
ATOM      7  C   UNL     1       0.635   2.487  18.745  0.00  0.00    +0.000 C 
ATOM      8  O   UNL     1       1.928   2.812  19.105  0.00  0.00    +0.000 OA
ENDBRANCH   1   8
BRANCH   3   9
ATOM      9  O   UNL     1       5.969   3.981  16.891  0.00  0.00    +0.000 OA
ATOM     10  C   UNL     1       6.245   3.636  15.577  0.00  0.00    +0.000 C 
ENDBRANCH   3   9
BRANCH   4  11
ATOM     11  C   UNL     1       5.169   6.794  16.593  0.00  0.00    +0.000 C 
ATOM     12  O   UNL     1       5.264   6.782  15.375  0.00  0.00    +0.000 OA
BRANCH  11  13
ATOM     13  C   UNL     1       5.970   7.867  17.310  0.00  0.00    +0.000 C 
BRANCH  13  14
ATOM     14  C   UNL     1       7.469   7.495  17.454  0.00  0.00    +0.000 C 
ATOM     15  C   UNL     1       8.324   8.709  17.857  0.00  0.00    +0.000 C 
ATOM     16  C   UNL     1       7.637   6.394  18.513  0.00  0.00    +0.000 C 
ENDBRANCH  13  14
ENDBRANCH  11  13
ENDBRANCH   4  11
BRANCH   5  17
ATOM     17  O   UNL     1       2.683   7.416  17.843  0.00  0.00    +0.000 OA
BRANCH  17  18
ATOM     18  C   UNL     1       2.075   8.117  18.880  0.00  0.00    +0.000 C 
BRANCH  18  19
ATOM     19  C   UNL     1       1.262   9.345  18.404  0.00  0.00    +0.000 C 
BRANCH  19  20
ATOM     20  O   UNL     1       1.941  10.056  17.398  0.00  0.00    +0.000 OA
ATOM     21  H   UNL     1       2.910  10.050  17.616  0.00  0.00    +0.000 HD
ENDBRANCH  19  20
BRANCH  19  22
ATOM     22  C   UNL     1       0.998  10.233  19.644  0.00  0.00    +0.000 C 
BRANCH  22  23
ATOM     23  N   UNL     1       0.754  11.655  19.330  0.00  0.00    +0.000 NA
ATOM     24  H   UNL     1       0.860  11.787  18.296  0.00  0.00    +0.000 HD
BRANCH  23  25
ATOM     25  C   UNL     1      -0.595  12.152  19.753  0.00  0.00    +0.000 C 
ATOM     26  C   UNL     1      -1.685  11.755  18.731  0.00  0.00    +0.000 C 
ATOM     27  C   UNL     1      -0.964  11.494  21.100  0.00  0.00    +0.000 C 
ATOM     28  C   UNL     1      -0.609  13.685  19.954  0.00  0.00    +0.000 C 
ENDBRANCH  23  25
ENDBRANCH  22  23
ENDBRANCH  19  22
ENDBRANCH  18  19
ENDBRANCH  17  18
ENDBRANCH   5  17
TORSDOF 12
ENDMDL
