MODEL 1
REMARK VINA RESULT:      -8.6      0.000      0.000
REMARK  Name = 
REMARK  6 active torsions:
REMARK  status: ('A' for Active; 'I' for Inactive)
REMARK    1  A    between atoms: C_12  and  C_13
REMARK    2  A    between atoms: C_13  and  C_14
REMARK    3  A    between atoms: C_14  and  C_15
REMARK    4  A    between atoms: C_15  and  C_16
REMARK    5  A    between atoms: C_16  and  N_17
REMARK    6  A    between atoms: N_20  and  C_21
REMARK                            x       y       z     vdW  Elec       q    Type
REMARK                         _______ _______ _______ _____ _____    ______ ____
ROOT
ATOM      1  C   UNL     1       8.970  10.826  17.924  0.00  0.00    +0.000 C 
ENDROOT
BRANCH   1  13
ATOM      2  O   UNL     1      11.433  12.067  17.658  0.00  0.00    +0.000 OA
ATOM      3  C   UNL     1      10.559  12.265  18.489  0.00  0.00    +0.000 C 
ATOM      4  N   UNL     1      10.844  12.303  19.882  0.00  0.00    +0.000 N 
ATOM      5  C   UNL     1      10.254  13.544  20.087  0.00  0.00    +0.000 C 
ATOM      6  C   UNL     1      10.359  14.251  21.375  0.00  0.00    +0.000 C 
ATOM      7  C   UNL     1       9.614  15.374  21.466  0.00  0.00    +0.000 C 
ATOM      8  C   UNL     1       8.746  15.730  20.348  0.00  0.00    +0.000 C 
ATOM      9  C   UNL     1       8.359  14.805  19.436  0.00  0.00    +0.000 C 
ATOM     10  C   UNL     1       7.608  15.210  18.213  0.00  0.00    +0.000 C 
ATOM     11  C   UNL     1       6.953  13.975  17.666  0.00  0.00    +0.000 C 
ATOM     12  C   UNL     1       8.032  12.970  17.193  0.00  0.00    +0.000 C 
ATOM     13  C   UNL     1       8.954  12.389  18.276  0.00  0.00    +0.000 C 
ATOM     14  C   UNL     1       8.806  13.325  19.577  0.00  0.00    +0.000 C 
ATOM     15  H   UNL     1      10.384  11.603  20.431  0.00  0.00    +0.000 HD
ENDBRANCH   1  13
BRANCH   1  16
ATOM     16  C   UNL     1       8.784   9.514  18.745  0.00  0.00    +0.000 C 
BRANCH  16  17
ATOM     17  C   UNL     1       7.981   8.554  17.808  0.00  0.00    +0.000 C 
BRANCH  17  18
ATOM     18  C   UNL     1       7.930   7.094  18.212  0.00  0.00    +0.000 C 
BRANCH  18  19
ATOM     19  N   UNL     1       7.344   6.255  17.139  0.00  0.00    +0.000 NA
ATOM     20  C   UNL     1       7.268   4.845  17.578  0.00  0.00    +0.000 C 
ATOM     21  C   UNL     1       6.331   4.612  18.786  0.00  0.00    +0.000 C 
ATOM     22  N   UNL     1       5.008   5.226  18.595  0.00  0.00    +0.000 N 
ATOM     23  C   UNL     1       4.954   6.557  17.961  0.00  0.00    +0.000 C 
ATOM     24  C   UNL     1       5.950   6.649  16.783  0.00  0.00    +0.000 C 
BRANCH  22  25
ATOM     25  C   UNL     1       3.866   4.434  18.455  0.00  0.00    +0.000 A 
ATOM     26  C   UNL     1       3.925   3.099  18.864  0.00  0.00    +0.000 A 
ATOM     27  C   UNL     1       2.804   2.252  18.720  0.00  0.00    +0.000 A 
ATOM     28  C   UNL     1       1.648   2.749  18.125  0.00  0.00    +0.000 A 
ATOM     29  C   UNL     1       1.582   4.065  17.719  0.00  0.00    +0.000 A 
ATOM     30  C   UNL     1       2.687   4.907  17.877  0.00  0.00    +0.000 A 
ENDBRANCH  22  25
ENDBRANCH  18  19
ENDBRANCH  17  18
ENDBRANCH  16  17
ENDBRANCH   1  16
TORSDOF 6
ENDMDL
MODEL 2
REMARK VINA RESULT:      -8.5      1.550      2.378
REMARK  Name = 
REMARK  6 active torsions:
REMARK  status: ('A' for Active; 'I' for Inactive)
REMARK    1  A    between atoms: C_12  and  C_13
REMARK    2  A    between atoms: C_13  and  C_14
REMARK    3  A    between atoms: C_14  and  C_15
REMARK    4  A    between atoms: C_15  and  C_16
REMARK    5  A    between atoms: C_16  and  N_17
REMARK    6  A    between atoms: N_20  and  C_21
REMARK                            x       y       z     vdW  Elec       q    Type
REMARK                         _______ _______ _______ _____ _____    ______ ____
ROOT
ATOM      1  C   UNL     1       9.279  10.951  18.379  0.00  0.00    +0.000 C 
ENDROOT
BRANCH   1  13
ATOM      2  O   UNL     1       7.843  13.056  17.289  0.00  0.00    +0.000 OA
ATOM      3  C   UNL     1       8.963  13.062  17.780  0.00  0.00    +0.000 C 
ATOM      4  N   UNL     1      10.072  13.652  17.111  0.00  0.00    +0.000 N 
ATOM      5  C   UNL     1      10.431  14.466  18.179  0.00  0.00    +0.000 C 
ATOM      6  C   UNL     1      11.479  15.493  18.053  0.00  0.00    +0.000 C 
ATOM      7  C   UNL     1      11.816  16.101  19.211  0.00  0.00    +0.000 C 
ATOM      8  C   UNL     1      11.187  15.648  20.448  0.00  0.00    +0.000 C 
ATOM      9  C   UNL     1      10.616  14.422  20.539  0.00  0.00    +0.000 C 
ATOM     10  C   UNL     1       9.837  14.032  21.748  0.00  0.00    +0.000 C 
ATOM     11  C   UNL     1       9.733  12.535  21.746  0.00  0.00    +0.000 C 
ATOM     12  C   UNL     1       8.898  12.066  20.530  0.00  0.00    +0.000 C 
ATOM     13  C   UNL     1       9.487  12.347  19.140  0.00  0.00    +0.000 C 
ATOM     14  C   UNL     1      10.645  13.448  19.329  0.00  0.00    +0.000 C 
ATOM     15  H   UNL     1      10.817  13.023  16.885  0.00  0.00    +0.000 HD
ENDBRANCH   1  13
BRANCH   1  16
ATOM     16  C   UNL     1       8.905   9.505  18.822  0.00  0.00    +0.000 C 
BRANCH  16  17
ATOM     17  C   UNL     1       8.307   8.827  17.547  0.00  0.00    +0.000 C 
BRANCH  17  18
ATOM     18  C   UNL     1       7.016   8.053  17.729  0.00  0.00    +0.000 C 
BRANCH  18  19
ATOM     19  N   UNL     1       7.026   6.791  16.952  0.00  0.00    +0.000 NA
ATOM     20  C   UNL     1       7.349   5.651  17.837  0.00  0.00    +0.000 C 
ATOM     21  C   UNL     1       6.299   5.397  18.944  0.00  0.00    +0.000 C 
ATOM     22  N   UNL     1       4.929   5.343  18.414  0.00  0.00    +0.000 N 
ATOM     23  C   UNL     1       4.561   6.308  17.360  0.00  0.00    +0.000 C 
ATOM     24  C   UNL     1       5.707   6.471  16.336  0.00  0.00    +0.000 C 
BRANCH  22  25
ATOM     25  C   UNL     1       4.202   4.150  18.432  0.00  0.00    +0.000 A 
ATOM     26  C   UNL     1       3.135   4.003  17.543  0.00  0.00    +0.000 A 
ATOM     27  C   UNL     1       2.356   2.825  17.541  0.00  0.00    +0.000 A 
ATOM     28  C   UNL     1       2.634   1.824  18.467  0.00  0.00    +0.000 A 
ATOM     29  C   UNL     1       3.685   1.961  19.348  0.00  0.00    +0.000 A 
ATOM     30  C   UNL     1       4.466   3.121  19.338  0.00  0.00    +0.000 A 
ENDBRANCH  22  25
ENDBRANCH  18  19
ENDBRANCH  17  18
ENDBRANCH  16  17
ENDBRANCH   1  16
TORSDOF 6
ENDMDL
MODEL 3
REMARK VINA RESULT:      -8.5      1.519      2.321
REMARK  Name = 
REMARK  6 active torsions:
REMARK  status: ('A' for Active; 'I' for Inactive)
REMARK    1  A    between atoms: C_12  and  C_13
REMARK    2  A    between atoms: C_13  and  C_14
REMARK    3  A    between atoms: C_14  and  C_15
REMARK    4  A    between atoms: C_15  and  C_16
REMARK    5  A    between atoms: C_16  and  N_17
REMARK    6  A    between atoms: N_20  and  C_21
REMARK                            x       y       z     vdW  Elec       q    Type
REMARK                         _______ _______ _______ _____ _____    ______ ____
ROOT
ATOM      1  C   UNL     1       8.853  11.004  18.204  0.00  0.00    +0.000 C 
ENDROOT
BRANCH   1  13
ATOM      2  O   UNL     1       9.397  11.733  20.822  0.00  0.00    +0.000 OA
ATOM      3  C   UNL     1       9.245  12.447  19.841  0.00  0.00    +0.000 C 
ATOM      4  N   UNL     1       8.365  13.565  19.858  0.00  0.00    +0.000 N 
ATOM      5  C   UNL     1       9.323  14.471  19.419  0.00  0.00    +0.000 C 
ATOM      6  C   UNL     1       9.058  15.919  19.374  0.00  0.00    +0.000 C 
ATOM      7  C   UNL     1      10.029  16.654  18.790  0.00  0.00    +0.000 C 
ATOM      8  C   UNL     1      11.176  15.963  18.210  0.00  0.00    +0.000 C 
ATOM      9  C   UNL     1      11.112  14.649  17.878  0.00  0.00    +0.000 C 
ATOM     10  C   UNL     1      12.332  13.914  17.439  0.00  0.00    +0.000 C 
ATOM     11  C   UNL     1      11.872  12.671  16.735  0.00  0.00    +0.000 C 
ATOM     12  C   UNL     1      11.145  11.737  17.733  0.00  0.00    +0.000 C 
ATOM     13  C   UNL     1       9.836  12.263  18.340  0.00  0.00    +0.000 C 
ATOM     14  C   UNL     1       9.795  13.850  18.079  0.00  0.00    +0.000 C 
ATOM     15  H   UNL     1       7.605  13.519  19.208  0.00  0.00    +0.000 HD
ENDBRANCH   1  13
BRANCH   1  16
ATOM     16  C   UNL     1       8.892   9.523  18.689  0.00  0.00    +0.000 C 
BRANCH  16  17
ATOM     17  C   UNL     1       7.960   8.745  17.705  0.00  0.00    +0.000 C 
BRANCH  17  18
ATOM     18  C   UNL     1       7.785   7.261  17.963  0.00  0.00    +0.000 C 
BRANCH  18  19
ATOM     19  N   UNL     1       7.108   6.590  16.827  0.00  0.00    +0.000 NA
ATOM     20  C   UNL     1       7.157   5.122  17.001  0.00  0.00    +0.000 C 
ATOM     21  C   UNL     1       6.391   4.611  18.244  0.00  0.00    +0.000 C 
ATOM     22  N   UNL     1       5.028   5.155  18.325  0.00  0.00    +0.000 N 
ATOM     23  C   UNL     1       4.830   6.571  17.961  0.00  0.00    +0.000 C 
ATOM     24  C   UNL     1       5.664   6.943  16.714  0.00  0.00    +0.000 C 
BRANCH  22  25
ATOM     25  C   UNL     1       3.917   4.322  18.173  0.00  0.00    +0.000 A 
ATOM     26  C   UNL     1       2.642   4.880  18.293  0.00  0.00    +0.000 A 
ATOM     27  C   UNL     1       1.488   4.074  18.171  0.00  0.00    +0.000 A 
ATOM     28  C   UNL     1       1.634   2.704  17.972  0.00  0.00    +0.000 A 
ATOM     29  C   UNL     1       2.888   2.145  17.852  0.00  0.00    +0.000 A 
ATOM     30  C   UNL     1       4.029   2.947  17.956  0.00  0.00    +0.000 A 
ENDBRANCH  22  25
ENDBRANCH  18  19
ENDBRANCH  17  18
ENDBRANCH  16  17
ENDBRANCH   1  16
TORSDOF 6
ENDMDL
MODEL 4
REMARK VINA RESULT:      -8.5      1.479      2.216
REMARK  Name = 
REMARK  6 active torsions:
REMARK  status: ('A' for Active; 'I' for Inactive)
REMARK    1  A    between atoms: C_12  and  C_13
REMARK    2  A    between atoms: C_13  and  C_14
REMARK    3  A    between atoms: C_14  and  C_15
REMARK    4  A    between atoms: C_15  and  C_16
REMARK    5  A    between atoms: C_16  and  N_17
REMARK    6  A    between atoms: N_20  and  C_21
REMARK                            x       y       z     vdW  Elec       q    Type
REMARK                         _______ _______ _______ _____ _____    ______ ____
ROOT
ATOM      1  C   UNL     1       9.187  10.585  18.332  0.00  0.00    +0.000 C 
ENDROOT
BRANCH   1  13
ATOM      2  O   UNL     1       7.863  12.723  17.167  0.00  0.00    +0.000 OA
ATOM      3  C   UNL     1       8.999  12.675  17.618  0.00  0.00    +0.000 C 
ATOM      4  N   UNL     1      10.119  13.144  16.877  0.00  0.00    +0.000 N 
ATOM      5  C   UNL     1      10.577  13.989  17.880  0.00  0.00    +0.000 C 
ATOM      6  C   UNL     1      11.689  14.928  17.657  0.00  0.00    +0.000 C 
ATOM      7  C   UNL     1      12.113  15.576  18.764  0.00  0.00    +0.000 C 
ATOM      8  C   UNL     1      11.502  15.242  20.046  0.00  0.00    +0.000 C 
ATOM      9  C   UNL     1      10.849  14.068  20.231  0.00  0.00    +0.000 C 
ATOM     10  C   UNL     1      10.092  13.807  21.488  0.00  0.00    +0.000 C 
ATOM     11  C   UNL     1       9.882  12.323  21.580  0.00  0.00    +0.000 C 
ATOM     12  C   UNL     1       8.970  11.847  20.424  0.00  0.00    +0.000 C 
ATOM     13  C   UNL     1       9.523  12.003  18.999  0.00  0.00    +0.000 C 
ATOM     14  C   UNL     1      10.763  13.027  19.082  0.00  0.00    +0.000 C 
ATOM     15  H   UNL     1      10.809  12.450  16.664  0.00  0.00    +0.000 HD
ENDBRANCH   1  13
BRANCH   1  16
ATOM     16  C   UNL     1       7.886   9.757  18.111  0.00  0.00    +0.000 C 
BRANCH  16  17
ATOM     17  C   UNL     1       8.365   8.389  17.525  0.00  0.00    +0.000 C 
BRANCH  17  18
ATOM     18  C   UNL     1       7.837   7.137  18.199  0.00  0.00    +0.000 C 
BRANCH  18  19
ATOM     19  N   UNL     1       7.353   6.150  17.204  0.00  0.00    +0.000 NA
ATOM     20  C   UNL     1       7.269   4.808  17.819  0.00  0.00    +0.000 C 
ATOM     21  C   UNL     1       6.242   4.708  18.972  0.00  0.00    +0.000 C 
ATOM     22  N   UNL     1       4.928   5.254  18.600  0.00  0.00    +0.000 N 
ATOM     23  C   UNL     1       4.901   6.489  17.793  0.00  0.00    +0.000 C 
ATOM     24  C   UNL     1       5.986   6.454  16.693  0.00  0.00    +0.000 C 
BRANCH  22  25
ATOM     25  C   UNL     1       3.815   4.418  18.479  0.00  0.00    +0.000 A 
ATOM     26  C   UNL     1       3.930   3.089  18.892  0.00  0.00    +0.000 A 
ATOM     27  C   UNL     1       2.841   2.199  18.767  0.00  0.00    +0.000 A 
ATOM     28  C   UNL     1       1.658   2.649  18.186  0.00  0.00    +0.000 A 
ATOM     29  C   UNL     1       1.537   3.959  17.776  0.00  0.00    +0.000 A 
ATOM     30  C   UNL     1       2.611   4.844  17.916  0.00  0.00    +0.000 A 
ENDBRANCH  22  25
ENDBRANCH  18  19
ENDBRANCH  17  18
ENDBRANCH  16  17
ENDBRANCH   1  16
TORSDOF 6
ENDMDL
MODEL 5
REMARK VINA RESULT:      -8.1      6.651     10.655
REMARK  Name = 
REMARK  6 active torsions:
REMARK  status: ('A' for Active; 'I' for Inactive)
REMARK    1  A    between atoms: C_12  and  C_13
REMARK    2  A    between atoms: C_13  and  C_14
REMARK    3  A    between atoms: C_14  and  C_15
REMARK    4  A    between atoms: C_15  and  C_16
REMARK    5  A    between atoms: C_16  and  N_17
REMARK    6  A    between atoms: N_20  and  C_21
REMARK                            x       y       z     vdW  Elec       q    Type
REMARK                         _______ _______ _______ _____ _____    ______ ____
ROOT
ATOM      1  C   UNL     1       2.730   7.565  17.855  0.00  0.00    +0.000 C 
ENDROOT
BRANCH   1  13
ATOM      2  O   UNL     1       5.358   6.714  18.066  0.00  0.00    +0.000 OA
ATOM      3  C   UNL     1       4.344   6.048  17.916  0.00  0.00    +0.000 C 
ATOM      4  N   UNL     1       4.247   5.049  16.907  0.00  0.00    +0.000 N 
ATOM      5  C   UNL     1       3.861   4.040  17.780  0.00  0.00    +0.000 C 
ATOM      6  C   UNL     1       3.745   2.638  17.344  0.00  0.00    +0.000 C 
ATOM      7  C   UNL     1       3.222   1.800  18.265  0.00  0.00    +0.000 C 
ATOM      8  C   UNL     1       2.768   2.354  19.536  0.00  0.00    +0.000 C 
ATOM      9  C   UNL     1       2.477   3.672  19.665  0.00  0.00    +0.000 C 
ATOM     10  C   UNL     1       2.171   4.258  21.002  0.00  0.00    +0.000 C 
ATOM     11  C   UNL     1       1.472   5.565  20.764  0.00  0.00    +0.000 C 
ATOM     12  C   UNL     1       2.434   6.560  20.072  0.00  0.00    +0.000 C 
ATOM     13  C   UNL     1       2.907   6.190  18.658  0.00  0.00    +0.000 C 
ATOM     14  C   UNL     1       2.590   4.627  18.445  0.00  0.00    +0.000 C 
ATOM     15  H   UNL     1       3.535   5.206  16.220  0.00  0.00    +0.000 HD
ENDBRANCH   1  13
BRANCH   1  16
ATOM     16  C   UNL     1       1.543   8.543  17.602  0.00  0.00    +0.000 C 
BRANCH  16  17
ATOM     17  C   UNL     1       2.079   9.953  18.010  0.00  0.00    +0.000 C 
BRANCH  17  18
ATOM     18  C   UNL     1       1.207  10.769  18.945  0.00  0.00    +0.000 C 
BRANCH  18  19
ATOM     19  N   UNL     1      -0.118  10.132  19.143  0.00  0.00    +0.000 NA
ATOM     20  C   UNL     1      -0.287   9.741  20.560  0.00  0.00    +0.000 C 
ATOM     21  C   UNL     1      -0.296  10.934  21.545  0.00  0.00    +0.000 C 
ATOM     22  N   UNL     1      -1.222  11.998  21.127  0.00  0.00    +0.000 N 
ATOM     23  C   UNL     1      -1.290  12.324  19.690  0.00  0.00    +0.000 C 
ATOM     24  C   UNL     1      -1.257  11.041  18.829  0.00  0.00    +0.000 C 
BRANCH  22  25
ATOM     25  C   UNL     1      -2.367  12.283  21.875  0.00  0.00    +0.000 A 
ATOM     26  C   UNL     1      -3.447  12.896  21.236  0.00  0.00    +0.000 A 
ATOM     27  C   UNL     1      -4.617  13.225  21.955  0.00  0.00    +0.000 A 
ATOM     28  C   UNL     1      -4.668  12.972  23.323  0.00  0.00    +0.000 A 
ATOM     29  C   UNL     1      -3.607  12.367  23.961  0.00  0.00    +0.000 A 
ATOM     30  C   UNL     1      -2.455  12.026  23.244  0.00  0.00    +0.000 A 
ENDBRANCH  22  25
ENDBRANCH  18  19
ENDBRANCH  17  18
ENDBRANCH  16  17
ENDBRANCH   1  16
TORSDOF 6
ENDMDL
MODEL 6
REMARK VINA RESULT:      -8.1      1.532      2.204
REMARK  Name = 
REMARK  6 active torsions:
REMARK  status: ('A' for Active; 'I' for Inactive)
REMARK    1  A    between atoms: C_12  and  C_13
REMARK    2  A    between atoms: C_13  and  C_14
REMARK    3  A    between atoms: C_14  and  C_15
REMARK    4  A    between atoms: C_15  and  C_16
REMARK    5  A    between atoms: C_16  and  N_17
REMARK    6  A    between atoms: N_20  and  C_21
REMARK                            x       y       z     vdW  Elec       q    Type
REMARK                         _______ _______ _______ _____ _____    ______ ____
ROOT
ATOM      1  C   UNL     1       9.058  10.443  18.857  0.00  0.00    +0.000 C 
ENDROOT
BRANCH   1  13
ATOM      2  O   UNL     1       9.772  11.190  21.428  0.00  0.00    +0.000 OA
ATOM      3  C   UNL     1       9.437  11.896  20.488  0.00  0.00    +0.000 C 
ATOM      4  N   UNL     1       8.436  12.898  20.622  0.00  0.00    +0.000 N 
ATOM      5  C   UNL     1       9.229  13.922  20.116  0.00  0.00    +0.000 C 
ATOM      6  C   UNL     1       8.789  15.327  20.139  0.00  0.00    +0.000 C 
ATOM      7  C   UNL     1       9.602  16.184  19.483  0.00  0.00    +0.000 C 
ATOM      8  C   UNL     1      10.759  15.647  18.775  0.00  0.00    +0.000 C 
ATOM      9  C   UNL     1      10.820  14.341  18.414  0.00  0.00    +0.000 C 
ATOM     10  C   UNL     1      12.069  13.767  17.837  0.00  0.00    +0.000 C 
ATOM     11  C   UNL     1      11.692  12.489  17.146  0.00  0.00    +0.000 C 
ATOM     12  C   UNL     1      11.187  11.457  18.184  0.00  0.00    +0.000 C 
ATOM     13  C   UNL     1       9.892  11.810  18.931  0.00  0.00    +0.000 C 
ATOM     14  C   UNL     1       9.635  13.384  18.720  0.00  0.00    +0.000 C 
ATOM     15  H   UNL     1       7.625  12.770  20.048  0.00  0.00    +0.000 HD
ENDBRANCH   1  13
BRANCH   1  16
ATOM     16  C   UNL     1       8.213   9.731  17.758  0.00  0.00    +0.000 C 
BRANCH  16  17
ATOM     17  C   UNL     1       8.209   8.220  18.158  0.00  0.00    +0.000 C 
BRANCH  17  18
ATOM     18  C   UNL     1       7.462   7.274  17.237  0.00  0.00    +0.000 C 
BRANCH  18  19
ATOM     19  N   UNL     1       7.606   5.866  17.677  0.00  0.00    +0.000 NA
ATOM     20  C   UNL     1       6.962   5.675  18.995  0.00  0.00    +0.000 C 
ATOM     21  C   UNL     1       5.432   5.909  18.987  0.00  0.00    +0.000 C 
ATOM     22  N   UNL     1       4.760   5.173  17.906  0.00  0.00    +0.000 N 
ATOM     23  C   UNL     1       5.428   5.117  16.593  0.00  0.00    +0.000 C 
ATOM     24  C   UNL     1       6.949   4.895  16.755  0.00  0.00    +0.000 C 
BRANCH  22  25
ATOM     25  C   UNL     1       3.887   4.121  18.195  0.00  0.00    +0.000 A 
ATOM     26  C   UNL     1       4.390   2.997  18.854  0.00  0.00    +0.000 A 
ATOM     27  C   UNL     1       3.552   1.898  19.146  0.00  0.00    +0.000 A 
ATOM     28  C   UNL     1       2.224   1.926  18.731  0.00  0.00    +0.000 A 
ATOM     29  C   UNL     1       1.719   3.031  18.080  0.00  0.00    +0.000 A 
ATOM     30  C   UNL     1       2.546   4.126  17.807  0.00  0.00    +0.000 A 
ENDBRANCH  22  25
ENDBRANCH  18  19
ENDBRANCH  17  18
ENDBRANCH  16  17
ENDBRANCH   1  16
TORSDOF 6
ENDMDL
MODEL 7
REMARK VINA RESULT:      -8.1      1.238      1.590
REMARK  Name = 
REMARK  6 active torsions:
REMARK  status: ('A' for Active; 'I' for Inactive)
REMARK    1  A    between atoms: C_12  and  C_13
REMARK    2  A    between atoms: C_13  and  C_14
REMARK    3  A    between atoms: C_14  and  C_15
REMARK    4  A    between atoms: C_15  and  C_16
REMARK    5  A    between atoms: C_16  and  N_17
REMARK    6  A    between atoms: N_20  and  C_21
REMARK                            x       y       z     vdW  Elec       q    Type
REMARK                         _______ _______ _______ _____ _____    ______ ____
ROOT
ATOM      1  C   UNL     1       9.241  10.518  18.750  0.00  0.00    +0.000 C 
ENDROOT
BRANCH   1  13
ATOM      2  O   UNL     1      11.583  11.335  19.984  0.00  0.00    +0.000 OA
ATOM      3  C   UNL     1      10.430  11.648  20.241  0.00  0.00    +0.000 C 
ATOM      4  N   UNL     1       9.915  11.588  21.566  0.00  0.00    +0.000 N 
ATOM      5  C   UNL     1       9.465  12.903  21.575  0.00  0.00    +0.000 C 
ATOM      6  C   UNL     1       8.940  13.536  22.796  0.00  0.00    +0.000 C 
ATOM      7  C   UNL     1       8.409  14.764  22.613  0.00  0.00    +0.000 C 
ATOM      8  C   UNL     1       8.339  15.301  21.258  0.00  0.00    +0.000 C 
ATOM      9  C   UNL     1       8.400  14.488  20.175  0.00  0.00    +0.000 C 
ATOM     10  C   UNL     1       8.491  15.056  18.800  0.00  0.00    +0.000 C 
ATOM     11  C   UNL     1       8.092  13.969  17.844  0.00  0.00    +0.000 C 
ATOM     12  C   UNL     1       9.122  12.815  17.898  0.00  0.00    +0.000 C 
ATOM     13  C   UNL     1       9.228  12.048  19.225  0.00  0.00    +0.000 C 
ATOM     14  C   UNL     1       8.513  12.949  20.352  0.00  0.00    +0.000 C 
ATOM     15  H   UNL     1       9.148  10.957  21.697  0.00  0.00    +0.000 HD
ENDBRANCH   1  13
BRANCH   1  16
ATOM     16  C   UNL     1       8.583   9.727  17.579  0.00  0.00    +0.000 C 
BRANCH  16  17
ATOM     17  C   UNL     1       8.212   8.334  18.183  0.00  0.00    +0.000 C 
BRANCH  17  18
ATOM     18  C   UNL     1       7.170   7.524  17.437  0.00  0.00    +0.000 C 
BRANCH  18  19
ATOM     19  N   UNL     1       7.334   6.071  17.684  0.00  0.00    +0.000 NA
ATOM     20  C   UNL     1       6.693   5.698  18.964  0.00  0.00    +0.000 C 
ATOM     21  C   UNL     1       5.160   5.908  18.984  0.00  0.00    +0.000 C 
ATOM     22  N   UNL     1       4.498   5.313  17.814  0.00  0.00    +0.000 N 
ATOM     23  C   UNL     1       5.167   5.443  16.506  0.00  0.00    +0.000 C 
ATOM     24  C   UNL     1       6.691   5.223  16.640  0.00  0.00    +0.000 C 
BRANCH  22  25
ATOM     25  C   UNL     1       3.641   4.219  17.958  0.00  0.00    +0.000 A 
ATOM     26  C   UNL     1       2.267   4.455  18.057  0.00  0.00    +0.000 A 
ATOM     27  C   UNL     1       1.363   3.383  18.228  0.00  0.00    +0.000 A 
ATOM     28  C   UNL     1       1.858   2.087  18.341  0.00  0.00    +0.000 A 
ATOM     29  C   UNL     1       3.212   1.846  18.244  0.00  0.00    +0.000 A 
ATOM     30  C   UNL     1       4.105   2.906  18.058  0.00  0.00    +0.000 A 
ENDBRANCH  22  25
ENDBRANCH  18  19
ENDBRANCH  17  18
ENDBRANCH  16  17
ENDBRANCH   1  16
TORSDOF 6
ENDMDL
MODEL 8
REMARK VINA RESULT:      -8.0      6.701     10.872
REMARK  Name = 
REMARK  6 active torsions:
REMARK  status: ('A' for Active; 'I' for Inactive)
REMARK    1  A    between atoms: C_12  and  C_13
REMARK    2  A    between atoms: C_13  and  C_14
REMARK    3  A    between atoms: C_14  and  C_15
REMARK    4  A    between atoms: C_15  and  C_16
REMARK    5  A    between atoms: C_16  and  N_17
REMARK    6  A    between atoms: N_20  and  C_21
REMARK                            x       y       z     vdW  Elec       q    Type
REMARK                         _______ _______ _______ _____ _____    ______ ____
ROOT
ATOM      1  C   UNL     1       2.629   7.622  17.759  0.00  0.00    +0.000 C 
ENDROOT
BRANCH   1  13
ATOM      2  O   UNL     1       5.199   6.592  17.882  0.00  0.00    +0.000 OA
ATOM      3  C   UNL     1       4.134   5.995  17.817  0.00  0.00    +0.000 C 
ATOM      4  N   UNL     1       3.913   4.959  16.867  0.00  0.00    +0.000 N 
ATOM      5  C   UNL     1       3.505   4.024  17.810  0.00  0.00    +0.000 C 
ATOM      6  C   UNL     1       3.267   2.615  17.452  0.00  0.00    +0.000 C 
ATOM      7  C   UNL     1       2.737   1.862  18.441  0.00  0.00    +0.000 C 
ATOM      8  C   UNL     1       2.392   2.509  19.703  0.00  0.00    +0.000 C 
ATOM      9  C   UNL     1       2.201   3.849  19.779  0.00  0.00    +0.000 C 
ATOM     10  C   UNL     1       2.009   4.518  21.097  0.00  0.00    +0.000 C 
ATOM     11  C   UNL     1       1.392   5.860  20.827  0.00  0.00    +0.000 C 
ATOM     12  C   UNL     1       2.383   6.748  20.037  0.00  0.00    +0.000 C 
ATOM     13  C   UNL     1       2.753   6.277  18.622  0.00  0.00    +0.000 C 
ATOM     14  C   UNL     1       2.315   4.733  18.506  0.00  0.00    +0.000 C 
ATOM     15  H   UNL     1       3.178   5.135  16.210  0.00  0.00    +0.000 HD
ENDBRANCH   1  13
BRANCH   1  16
ATOM     16  C   UNL     1       2.427   9.130  18.098  0.00  0.00    +0.000 C 
BRANCH  16  17
ATOM     17  C   UNL     1       0.911   9.408  17.842  0.00  0.00    +0.000 C 
BRANCH  17  18
ATOM     18  C   UNL     1       0.094   9.876  19.031  0.00  0.00    +0.000 C 
BRANCH  18  19
ATOM     19  N   UNL     1       0.518  11.223  19.483  0.00  0.00    +0.000 NA
ATOM     20  C   UNL     1      -0.590  12.188  19.316  0.00  0.00    +0.000 C 
ATOM     21  C   UNL     1      -1.831  11.878  20.185  0.00  0.00    +0.000 C 
ATOM     22  N   UNL     1      -1.482  11.640  21.594  0.00  0.00    +0.000 N 
ATOM     23  C   UNL     1      -0.263  10.862  21.878  0.00  0.00    +0.000 C 
ATOM     24  C   UNL     1       0.886  11.267  20.927  0.00  0.00    +0.000 C 
BRANCH  22  25
ATOM     25  C   UNL     1      -1.884  12.535  22.589  0.00  0.00    +0.000 A 
ATOM     26  C   UNL     1      -3.174  12.416  23.114  0.00  0.00    +0.000 A 
ATOM     27  C   UNL     1      -3.634  13.312  24.104  0.00  0.00    +0.000 A 
ATOM     28  C   UNL     1      -2.803  14.346  24.524  0.00  0.00    +0.000 A 
ATOM     29  C   UNL     1      -1.529  14.471  24.012  0.00  0.00    +0.000 A 
ATOM     30  C   UNL     1      -1.069  13.573  23.043  0.00  0.00    +0.000 A 
ENDBRANCH  22  25
ENDBRANCH  18  19
ENDBRANCH  17  18
ENDBRANCH  16  17
ENDBRANCH   1  16
TORSDOF 6
ENDMDL
MODEL 9
REMARK VINA RESULT:      -8.0      2.165     10.195
REMARK  Name = 
REMARK  6 active torsions:
REMARK  status: ('A' for Active; 'I' for Inactive)
REMARK    1  A    between atoms: C_12  and  C_13
REMARK    2  A    between atoms: C_13  and  C_14
REMARK    3  A    between atoms: C_14  and  C_15
REMARK    4  A    between atoms: C_15  and  C_16
REMARK    5  A    between atoms: C_16  and  N_17
REMARK    6  A    between atoms: N_20  and  C_21
REMARK                            x       y       z     vdW  Elec       q    Type
REMARK                         _______ _______ _______ _____ _____    ______ ____
ROOT
ATOM      1  C   UNL     1       6.926   6.432  17.597  0.00  0.00    +0.000 C 
ENDROOT
BRANCH   1  13
ATOM      2  O   UNL     1       6.670   5.205  20.069  0.00  0.00    +0.000 OA
ATOM      3  C   UNL     1       6.055   4.987  19.035  0.00  0.00    +0.000 C 
ATOM      4  N   UNL     1       5.900   3.670  18.518  0.00  0.00    +0.000 N 
ATOM      5  C   UNL     1       4.516   3.745  18.425  0.00  0.00    +0.000 C 
ATOM      6  C   UNL     1       3.697   2.571  18.079  0.00  0.00    +0.000 C 
ATOM      7  C   UNL     1       2.386   2.833  17.885  0.00  0.00    +0.000 C 
ATOM      8  C   UNL     1       1.931   4.218  17.961  0.00  0.00    +0.000 C 
ATOM      9  C   UNL     1       2.796   5.251  17.811  0.00  0.00    +0.000 C 
ATOM     10  C   UNL     1       2.354   6.655  18.050  0.00  0.00    +0.000 C 
ATOM     11  C   UNL     1       3.356   7.554  17.386  0.00  0.00    +0.000 C 
ATOM     12  C   UNL     1       4.732   7.415  18.081  0.00  0.00    +0.000 C 
ATOM     13  C   UNL     1       5.419   6.045  17.981  0.00  0.00    +0.000 C 
ATOM     14  C   UNL     1       4.298   4.985  17.521  0.00  0.00    +0.000 C 
ATOM     15  H   UNL     1       6.302   3.517  17.614  0.00  0.00    +0.000 HD
ENDBRANCH   1  13
BRANCH   1  16
ATOM     16  C   UNL     1       7.619   7.700  17.013  0.00  0.00    +0.000 C 
BRANCH  16  17
ATOM     17  C   UNL     1       8.224   8.443  18.248  0.00  0.00    +0.000 C 
BRANCH  17  18
ATOM     18  C   UNL     1       8.227   9.958  18.197  0.00  0.00    +0.000 C 
BRANCH  18  19
ATOM     19  N   UNL     1       9.603  10.501  18.294  0.00  0.00    +0.000 NA
ATOM     20  C   UNL     1       9.645  11.881  17.764  0.00  0.00    +0.000 C 
ATOM     21  C   UNL     1       8.790  12.889  18.568  0.00  0.00    +0.000 C 
ATOM     22  N   UNL     1       9.054  12.819  20.012  0.00  0.00    +0.000 N 
ATOM     23  C   UNL     1       9.245  11.486  20.613  0.00  0.00    +0.000 C 
ATOM     24  C   UNL     1      10.103  10.585  19.696  0.00  0.00    +0.000 C 
BRANCH  22  25
ATOM     25  C   UNL     1       9.666  13.885  20.679  0.00  0.00    +0.000 A 
ATOM     26  C   UNL     1       9.172  14.263  21.929  0.00  0.00    +0.000 A 
ATOM     27  C   UNL     1       9.742  15.349  22.630  0.00  0.00    +0.000 A 
ATOM     28  C   UNL     1      10.776  16.070  22.042  0.00  0.00    +0.000 A 
ATOM     29  C   UNL     1      11.269  15.704  20.808  0.00  0.00    +0.000 A 
ATOM     30  C   UNL     1      10.716  14.618  20.122  0.00  0.00    +0.000 A 
ENDBRANCH  22  25
ENDBRANCH  18  19
ENDBRANCH  17  18
ENDBRANCH  16  17
ENDBRANCH   1  16
TORSDOF 6
ENDMDL
