MODEL 1
REMARK VINA RESULT:      -6.7      0.000      0.000
REMARK  Name = 
REMARK  7 active torsions:
REMARK  status: ('A' for Active; 'I' for Inactive)
REMARK    1  A    between atoms: O_1  and  C_2
REMARK    2  A    between atoms: C_7  and  C_8
REMARK    3  A    between atoms: C_8  and  C_9
REMARK    4  A    between atoms: C_9  and  C_10
REMARK    5  A    between atoms: C_10  and  S_11
REMARK    6  A    between atoms: S_11  and  C_12
REMARK    7  A    between atoms: C_12  and  C_13
REMARK                            x       y       z     vdW  Elec       q    Type
REMARK                         _______ _______ _______ _____ _____    ______ ____
ROOT
ATOM      1  C   UNL     1       5.616   4.578  18.521  0.00  0.00    +0.000 A 
ATOM      2  C   UNL     1       6.873   5.203  18.571  0.00  0.00    +0.000 A 
ATOM      3  C   UNL     1       7.582   5.447  17.395  0.00  0.00    +0.000 A 
ATOM      4  C   UNL     1       7.014   5.052  16.200  0.00  0.00    +0.000 A 
ATOM      5  C   UNL     1       5.772   4.441  16.145  0.00  0.00    +0.000 A 
ATOM      6  C   UNL     1       5.036   4.195  17.303  0.00  0.00    +0.000 A 
ATOM      7  C   UNL     1       5.436   4.142  14.733  0.00  0.00    +0.000 C 
ATOM      8  C   UNL     1       6.656   4.728  14.022  0.00  0.00    +0.000 C 
ATOM      9  O   UNL     1       7.613   5.231  14.987  0.00  0.00    +0.000 OA
ENDROOT
BRANCH   1  10
ATOM     10  O   UNL     1       4.930   4.340  19.680  0.00  0.00    +0.000 OA
ATOM     11  H   UNL     1       5.548   3.981  20.337  0.00  0.00    +0.000 HD
ENDBRANCH   1  10
BRANCH   6  12
ATOM     12  C   UNL     1       3.666   3.573  17.229  0.00  0.00    +0.000 C 
BRANCH  12  13
ATOM     13  C   UNL     1       3.597   2.185  17.879  0.00  0.00    +0.000 C 
BRANCH  13  14
ATOM     14  C   UNL     1       2.663   2.146  19.096  0.00  0.00    +0.000 C 
BRANCH  14  15
ATOM     15  S   UNL     1       1.354   3.405  18.906  0.00  0.00    +0.000 S 
BRANCH  15  16
ATOM     16  C   UNL     1       1.704   4.469  20.337  0.00  0.00    +0.000 C 
BRANCH  16  17
ATOM     17  C   UNL     1       1.836   5.897  19.883  0.00  0.00    +0.000 A 
ATOM     18  C   UNL     1       2.258   6.229  18.592  0.00  0.00    +0.000 A 
ATOM     19  C   UNL     1       2.318   7.567  18.207  0.00  0.00    +0.000 A 
ATOM     20  C   UNL     1       1.949   8.533  19.127  0.00  0.00    +0.000 A 
ATOM     21  N   UNL     1       1.524   8.253  20.378  0.00  0.00    +0.000 NA
ATOM     22  C   UNL     1       1.468   6.947  20.721  0.00  0.00    +0.000 A 
ENDBRANCH  16  17
ENDBRANCH  15  16
ENDBRANCH  14  15
ENDBRANCH  13  14
ENDBRANCH  12  13
ENDBRANCH   6  12
TORSDOF 7
ENDMDL
MODEL 2
REMARK VINA RESULT:      -6.5      2.908      6.652
REMARK  Name = 
REMARK  7 active torsions:
REMARK  status: ('A' for Active; 'I' for Inactive)
REMARK    1  A    between atoms: O_1  and  C_2
REMARK    2  A    between atoms: C_7  and  C_8
REMARK    3  A    between atoms: C_8  and  C_9
REMARK    4  A    between atoms: C_9  and  C_10
REMARK    5  A    between atoms: C_10  and  S_11
REMARK    6  A    between atoms: S_11  and  C_12
REMARK    7  A    between atoms: C_12  and  C_13
REMARK                            x       y       z     vdW  Elec       q    Type
REMARK                         _______ _______ _______ _____ _____    ______ ____
ROOT
ATOM      1  C   UNL     1       2.672   8.014  18.090  0.00  0.00    +0.000 A 
ATOM      2  C   UNL     1       2.198   9.261  17.651  0.00  0.00    +0.000 A 
ATOM      3  C   UNL     1       1.325  10.001  18.449  0.00  0.00    +0.000 A 
ATOM      4  C   UNL     1       0.946   9.466  19.666  0.00  0.00    +0.000 A 
ATOM      5  C   UNL     1       1.416   8.239  20.105  0.00  0.00    +0.000 A 
ATOM      6  C   UNL     1       2.297   7.484  19.334  0.00  0.00    +0.000 A 
ATOM      7  C   UNL     1       0.837   7.943  21.437  0.00  0.00    +0.000 C 
ATOM      8  C   UNL     1       0.023   9.214  21.681  0.00  0.00    +0.000 C 
ATOM      9  O   UNL     1       0.095  10.092  20.530  0.00  0.00    +0.000 OA
ENDROOT
BRANCH   1  10
ATOM     10  O   UNL     1       3.524   7.295  17.298  0.00  0.00    +0.000 OA
ATOM     11  H   UNL     1       4.283   7.015  17.834  0.00  0.00    +0.000 HD
ENDBRANCH   1  10
BRANCH   6  12
ATOM     12  C   UNL     1       2.839   6.173  19.841  0.00  0.00    +0.000 C 
BRANCH  12  13
ATOM     13  C   UNL     1       1.972   4.969  19.451  0.00  0.00    +0.000 C 
BRANCH  13  14
ATOM     14  C   UNL     1       2.789   3.684  19.275  0.00  0.00    +0.000 C 
BRANCH  14  15
ATOM     15  S   UNL     1       3.444   3.600  17.572  0.00  0.00    +0.000 S 
BRANCH  15  16
ATOM     16  C   UNL     1       5.154   4.149  17.843  0.00  0.00    +0.000 C 
BRANCH  16  17
ATOM     17  C   UNL     1       5.829   4.368  16.518  0.00  0.00    +0.000 A 
ATOM     18  C   UNL     1       5.346   3.799  15.336  0.00  0.00    +0.000 A 
ATOM     19  C   UNL     1       5.982   4.073  14.126  0.00  0.00    +0.000 A 
ATOM     20  C   UNL     1       7.082   4.914  14.138  0.00  0.00    +0.000 A 
ATOM     21  N   UNL     1       7.572   5.493  15.255  0.00  0.00    +0.000 NA
ATOM     22  C   UNL     1       6.930   5.216  16.412  0.00  0.00    +0.000 A 
ENDBRANCH  16  17
ENDBRANCH  15  16
ENDBRANCH  14  15
ENDBRANCH  13  14
ENDBRANCH  12  13
ENDBRANCH   6  12
TORSDOF 7
ENDMDL
MODEL 3
REMARK VINA RESULT:      -6.5      3.019      5.831
REMARK  Name = 
REMARK  7 active torsions:
REMARK  status: ('A' for Active; 'I' for Inactive)
REMARK    1  A    between atoms: O_1  and  C_2
REMARK    2  A    between atoms: C_7  and  C_8
REMARK    3  A    between atoms: C_8  and  C_9
REMARK    4  A    between atoms: C_9  and  C_10
REMARK    5  A    between atoms: C_10  and  S_11
REMARK    6  A    between atoms: S_11  and  C_12
REMARK    7  A    between atoms: C_12  and  C_13
REMARK                            x       y       z     vdW  Elec       q    Type
REMARK                         _______ _______ _______ _____ _____    ______ ____
ROOT
ATOM      1  C   UNL     1       1.893   2.642  19.529  0.00  0.00    +0.000 A 
ATOM      2  C   UNL     1       1.717   2.854  20.907  0.00  0.00    +0.000 A 
ATOM      3  C   UNL     1       1.734   4.149  21.425  0.00  0.00    +0.000 A 
ATOM      4  C   UNL     1       1.933   5.198  20.547  0.00  0.00    +0.000 A 
ATOM      5  C   UNL     1       2.101   4.994  19.187  0.00  0.00    +0.000 A 
ATOM      6  C   UNL     1       2.078   3.712  18.641  0.00  0.00    +0.000 A 
ATOM      7  C   UNL     1       2.288   6.302  18.517  0.00  0.00    +0.000 C 
ATOM      8  C   UNL     1       2.144   7.253  19.705  0.00  0.00    +0.000 C 
ATOM      9  O   UNL     1       1.974   6.506  20.935  0.00  0.00    +0.000 OA
ENDROOT
BRANCH   1  10
ATOM     10  O   UNL     1       1.880   1.368  19.032  0.00  0.00    +0.000 OA
ATOM     11  H   UNL     1       1.068   1.247  18.514  0.00  0.00    +0.000 HD
ENDBRANCH   1  10
BRANCH   6  12
ATOM     12  C   UNL     1       2.214   3.504  17.155  0.00  0.00    +0.000 C 
BRANCH  12  13
ATOM     13  C   UNL     1       3.651   3.187  16.719  0.00  0.00    +0.000 C 
BRANCH  13  14
ATOM     14  C   UNL     1       4.550   4.429  16.697  0.00  0.00    +0.000 C 
BRANCH  14  15
ATOM     15  S   UNL     1       5.235   4.664  15.021  0.00  0.00    +0.000 S 
BRANCH  15  16
ATOM     16  C   UNL     1       7.009   4.462  15.353  0.00  0.00    +0.000 C 
BRANCH  16  17
ATOM     17  C   UNL     1       7.363   5.156  16.640  0.00  0.00    +0.000 A 
ATOM     18  C   UNL     1       7.280   6.544  16.781  0.00  0.00    +0.000 A 
ATOM     19  C   UNL     1       7.574   7.132  18.010  0.00  0.00    +0.000 A 
ATOM     20  C   UNL     1       7.940   6.310  19.062  0.00  0.00    +0.000 A 
ATOM     21  N   UNL     1       8.020   4.966  18.970  0.00  0.00    +0.000 NA
ATOM     22  C   UNL     1       7.721   4.422  17.769  0.00  0.00    +0.000 A 
ENDBRANCH  16  17
ENDBRANCH  15  16
ENDBRANCH  14  15
ENDBRANCH  13  14
ENDBRANCH  12  13
ENDBRANCH   6  12
TORSDOF 7
ENDMDL
MODEL 4
REMARK VINA RESULT:      -6.4      3.110      4.029
REMARK  Name = 
REMARK  7 active torsions:
REMARK  status: ('A' for Active; 'I' for Inactive)
REMARK    1  A    between atoms: O_1  and  C_2
REMARK    2  A    between atoms: C_7  and  C_8
REMARK    3  A    between atoms: C_8  and  C_9
REMARK    4  A    between atoms: C_9  and  C_10
REMARK    5  A    between atoms: C_10  and  S_11
REMARK    6  A    between atoms: S_11  and  C_12
REMARK    7  A    between atoms: C_12  and  C_13
REMARK                            x       y       z     vdW  Elec       q    Type
REMARK                         _______ _______ _______ _____ _____    ______ ____
ROOT
ATOM      1  C   UNL     1       5.513   5.322  18.890  0.00  0.00    +0.000 A 
ATOM      2  C   UNL     1       6.849   4.920  19.052  0.00  0.00    +0.000 A 
ATOM      3  C   UNL     1       7.651   4.684  17.935  0.00  0.00    +0.000 A 
ATOM      4  C   UNL     1       7.089   4.853  16.685  0.00  0.00    +0.000 A 
ATOM      5  C   UNL     1       5.773   5.256  16.520  0.00  0.00    +0.000 A 
ATOM      6  C   UNL     1       4.953   5.508  17.618  0.00  0.00    +0.000 A 
ATOM      7  C   UNL     1       5.469   5.349  15.073  0.00  0.00    +0.000 C 
ATOM      8  C   UNL     1       6.828   4.989  14.473  0.00  0.00    +0.000 C 
ATOM      9  O   UNL     1       7.771   4.648  15.520  0.00  0.00    +0.000 OA
ENDROOT
BRANCH   1  10
ATOM     10  O   UNL     1       4.733   5.545  19.991  0.00  0.00    +0.000 OA
ATOM     11  H   UNL     1       5.311   5.653  20.763  0.00  0.00    +0.000 HD
ENDBRANCH   1  10
BRANCH   6  12
ATOM     12  C   UNL     1       3.538   5.990  17.429  0.00  0.00    +0.000 C 
BRANCH  12  13
ATOM     13  C   UNL     1       3.399   7.514  17.539  0.00  0.00    +0.000 C 
BRANCH  13  14
ATOM     14  C   UNL     1       2.236   7.939  18.444  0.00  0.00    +0.000 C 
BRANCH  14  15
ATOM     15  S   UNL     1       1.655   9.601  17.960  0.00  0.00    +0.000 S 
BRANCH  15  16
ATOM     16  C   UNL     1       0.488   9.953  19.307  0.00  0.00    +0.000 C 
BRANCH  16  17
ATOM     17  C   UNL     1      -0.805  10.464  18.733  0.00  0.00    +0.000 A 
ATOM     18  C   UNL     1      -1.330   9.972  17.535  0.00  0.00    +0.000 A 
ATOM     19  C   UNL     1      -2.556  10.446  17.071  0.00  0.00    +0.000 A 
ATOM     20  C   UNL     1      -3.221  11.397  17.827  0.00  0.00    +0.000 A 
ATOM     21  N   UNL     1      -2.754  11.888  18.994  0.00  0.00    +0.000 NA
ATOM     22  C   UNL     1      -1.567  11.404  19.423  0.00  0.00    +0.000 A 
ENDBRANCH  16  17
ENDBRANCH  15  16
ENDBRANCH  14  15
ENDBRANCH  13  14
ENDBRANCH  12  13
ENDBRANCH   6  12
TORSDOF 7
ENDMDL
MODEL 5
REMARK VINA RESULT:      -6.4      1.005      1.071
REMARK  Name = 
REMARK  7 active torsions:
REMARK  status: ('A' for Active; 'I' for Inactive)
REMARK    1  A    between atoms: O_1  and  C_2
REMARK    2  A    between atoms: C_7  and  C_8
REMARK    3  A    between atoms: C_8  and  C_9
REMARK    4  A    between atoms: C_9  and  C_10
REMARK    5  A    between atoms: C_10  and  S_11
REMARK    6  A    between atoms: S_11  and  C_12
REMARK    7  A    between atoms: C_12  and  C_13
REMARK                            x       y       z     vdW  Elec       q    Type
REMARK                         _______ _______ _______ _____ _____    ______ ____
ROOT
ATOM      1  C   UNL     1       5.762   5.399  18.540  0.00  0.00    +0.000 A 
ATOM      2  C   UNL     1       6.704   6.414  18.300  0.00  0.00    +0.000 A 
ATOM      3  C   UNL     1       7.334   6.507  17.058  0.00  0.00    +0.000 A 
ATOM      4  C   UNL     1       7.005   5.576  16.092  0.00  0.00    +0.000 A 
ATOM      5  C   UNL     1       6.072   4.578  16.323  0.00  0.00    +0.000 A 
ATOM      6  C   UNL     1       5.420   4.467  17.549  0.00  0.00    +0.000 A 
ATOM      7  C   UNL     1       5.936   3.746  15.103  0.00  0.00    +0.000 C 
ATOM      8  C   UNL     1       6.894   4.470  14.157  0.00  0.00    +0.000 C 
ATOM      9  O   UNL     1       7.557   5.561  14.844  0.00  0.00    +0.000 OA
ENDROOT
BRANCH   1  10
ATOM     10  O   UNL     1       5.154   5.314  19.762  0.00  0.00    +0.000 OA
ATOM     11  H   UNL     1       4.695   6.150  19.939  0.00  0.00    +0.000 HD
ENDBRANCH   1  10
BRANCH   6  12
ATOM     12  C   UNL     1       4.373   3.408  17.774  0.00  0.00    +0.000 C 
BRANCH  12  13
ATOM     13  C   UNL     1       4.567   2.636  19.086  0.00  0.00    +0.000 C 
BRANCH  13  14
ATOM     14  C   UNL     1       3.330   1.819  19.480  0.00  0.00    +0.000 C 
BRANCH  14  15
ATOM     15  S   UNL     1       1.927   2.268  18.401  0.00  0.00    +0.000 S 
BRANCH  15  16
ATOM     16  C   UNL     1       1.008   3.388  19.497  0.00  0.00    +0.000 C 
BRANCH  16  17
ATOM     17  C   UNL     1       1.557   4.782  19.369  0.00  0.00    +0.000 A 
ATOM     18  C   UNL     1       1.827   5.361  18.126  0.00  0.00    +0.000 A 
ATOM     19  C   UNL     1       2.291   6.674  18.062  0.00  0.00    +0.000 A 
ATOM     20  C   UNL     1       2.467   7.368  19.247  0.00  0.00    +0.000 A 
ATOM     21  N   UNL     1       2.206   6.849  20.465  0.00  0.00    +0.000 NA
ATOM     22  C   UNL     1       1.749   5.577  20.497  0.00  0.00    +0.000 A 
ENDBRANCH  16  17
ENDBRANCH  15  16
ENDBRANCH  14  15
ENDBRANCH  13  14
ENDBRANCH  12  13
ENDBRANCH   6  12
TORSDOF 7
ENDMDL
MODEL 6
REMARK VINA RESULT:      -6.4      3.298      6.071
REMARK  Name = 
REMARK  7 active torsions:
REMARK  status: ('A' for Active; 'I' for Inactive)
REMARK    1  A    between atoms: O_1  and  C_2
REMARK    2  A    between atoms: C_7  and  C_8
REMARK    3  A    between atoms: C_8  and  C_9
REMARK    4  A    between atoms: C_9  and  C_10
REMARK    5  A    between atoms: C_10  and  S_11
REMARK    6  A    between atoms: S_11  and  C_12
REMARK    7  A    between atoms: C_12  and  C_13
REMARK                            x       y       z     vdW  Elec       q    Type
REMARK                         _______ _______ _______ _____ _____    ______ ____
ROOT
ATOM      1  C   UNL     1       1.945   5.745  20.230  0.00  0.00    +0.000 A 
ATOM      2  C   UNL     1       1.457   4.721  21.059  0.00  0.00    +0.000 A 
ATOM      3  C   UNL     1       1.419   3.405  20.600  0.00  0.00    +0.000 A 
ATOM      4  C   UNL     1       1.866   3.151  19.317  0.00  0.00    +0.000 A 
ATOM      5  C   UNL     1       2.354   4.156  18.499  0.00  0.00    +0.000 A 
ATOM      6  C   UNL     1       2.415   5.478  18.935  0.00  0.00    +0.000 A 
ATOM      7  C   UNL     1       2.757   3.573  17.197  0.00  0.00    +0.000 C 
ATOM      8  C   UNL     1       2.465   2.094  17.446  0.00  0.00    +0.000 C 
ATOM      9  O   UNL     1       1.873   1.907  18.756  0.00  0.00    +0.000 OA
ENDROOT
BRANCH   1  10
ATOM     10  O   UNL     1       1.975   7.033  20.688  0.00  0.00    +0.000 OA
ATOM     11  H   UNL     1       1.140   7.217  21.148  0.00  0.00    +0.000 HD
ENDBRANCH   1  10
BRANCH   6  12
ATOM     12  C   UNL     1       2.990   6.556  18.055  0.00  0.00    +0.000 C 
BRANCH  12  13
ATOM     13  C   UNL     1       4.432   6.272  17.615  0.00  0.00    +0.000 C 
BRANCH  13  14
ATOM     14  C   UNL     1       5.380   6.049  18.801  0.00  0.00    +0.000 C 
BRANCH  14  15
ATOM     15  S   UNL     1       7.112   6.164  18.234  0.00  0.00    +0.000 S 
BRANCH  15  16
ATOM     16  C   UNL     1       7.363   4.486  17.586  0.00  0.00    +0.000 C 
BRANCH  16  17
ATOM     17  C   UNL     1       7.059   4.463  16.113  0.00  0.00    +0.000 A 
ATOM     18  C   UNL     1       6.032   3.678  15.580  0.00  0.00    +0.000 A 
ATOM     19  C   UNL     1       5.762   3.730  14.214  0.00  0.00    +0.000 A 
ATOM     20  C   UNL     1       6.526   4.572  13.423  0.00  0.00    +0.000 A 
ATOM     21  N   UNL     1       7.517   5.354  13.901  0.00  0.00    +0.000 NA
ATOM     22  C   UNL     1       7.752   5.290  15.231  0.00  0.00    +0.000 A 
ENDBRANCH  16  17
ENDBRANCH  15  16
ENDBRANCH  14  15
ENDBRANCH  13  14
ENDBRANCH  12  13
ENDBRANCH   6  12
TORSDOF 7
ENDMDL
MODEL 7
REMARK VINA RESULT:      -6.4      1.519      2.004
REMARK  Name = 
REMARK  7 active torsions:
REMARK  status: ('A' for Active; 'I' for Inactive)
REMARK    1  A    between atoms: O_1  and  C_2
REMARK    2  A    between atoms: C_7  and  C_8
REMARK    3  A    between atoms: C_8  and  C_9
REMARK    4  A    between atoms: C_9  and  C_10
REMARK    5  A    between atoms: C_10  and  S_11
REMARK    6  A    between atoms: S_11  and  C_12
REMARK    7  A    between atoms: C_12  and  C_13
REMARK                            x       y       z     vdW  Elec       q    Type
REMARK                         _______ _______ _______ _____ _____    ______ ____
ROOT
ATOM      1  C   UNL     1       5.838   4.720  18.818  0.00  0.00    +0.000 A 
ATOM      2  C   UNL     1       6.984   5.532  18.789  0.00  0.00    +0.000 A 
ATOM      3  C   UNL     1       7.595   5.840  17.573  0.00  0.00    +0.000 A 
ATOM      4  C   UNL     1       7.042   5.321  16.418  0.00  0.00    +0.000 A 
ATOM      5  C   UNL     1       5.909   4.525  16.442  0.00  0.00    +0.000 A 
ATOM      6  C   UNL     1       5.272   4.209  17.641  0.00  0.00    +0.000 A 
ATOM      7  C   UNL     1       5.562   4.128  15.056  0.00  0.00    +0.000 C 
ATOM      8  C   UNL     1       6.643   4.869  14.270  0.00  0.00    +0.000 C 
ATOM      9  O   UNL     1       7.553   5.547  15.173  0.00  0.00    +0.000 OA
ENDROOT
BRANCH   1  10
ATOM     10  O   UNL     1       5.249   4.420  20.015  0.00  0.00    +0.000 OA
ATOM     11  H   UNL     1       4.389   4.007  19.842  0.00  0.00    +0.000 HD
ENDBRANCH   1  10
BRANCH   6  12
ATOM     12  C   UNL     1       4.013   3.382  17.652  0.00  0.00    +0.000 C 
BRANCH  12  13
ATOM     13  C   UNL     1       2.740   4.215  17.453  0.00  0.00    +0.000 C 
BRANCH  13  14
ATOM     14  C   UNL     1       2.162   4.737  18.775  0.00  0.00    +0.000 C 
BRANCH  14  15
ATOM     15  S   UNL     1       2.454   6.534  18.907  0.00  0.00    +0.000 S 
BRANCH  15  16
ATOM     16  C   UNL     1       1.803   6.858  20.572  0.00  0.00    +0.000 C 
BRANCH  16  17
ATOM     17  C   UNL     1       1.438   8.312  20.697  0.00  0.00    +0.000 A 
ATOM     18  C   UNL     1       1.189   9.113  19.578  0.00  0.00    +0.000 A 
ATOM     19  C   UNL     1       0.808  10.442  19.752  0.00  0.00    +0.000 A 
ATOM     20  C   UNL     1       0.685  10.928  21.042  0.00  0.00    +0.000 A 
ATOM     21  N   UNL     1       0.904  10.184  22.147  0.00  0.00    +0.000 NA
ATOM     22  C   UNL     1       1.263   8.896  21.949  0.00  0.00    +0.000 A 
ENDBRANCH  16  17
ENDBRANCH  15  16
ENDBRANCH  14  15
ENDBRANCH  13  14
ENDBRANCH  12  13
ENDBRANCH   6  12
TORSDOF 7
ENDMDL
MODEL 8
REMARK VINA RESULT:      -6.4      2.903      5.497
REMARK  Name = 
REMARK  7 active torsions:
REMARK  status: ('A' for Active; 'I' for Inactive)
REMARK    1  A    between atoms: O_1  and  C_2
REMARK    2  A    between atoms: C_7  and  C_8
REMARK    3  A    between atoms: C_8  and  C_9
REMARK    4  A    between atoms: C_9  and  C_10
REMARK    5  A    between atoms: C_10  and  S_11
REMARK    6  A    between atoms: S_11  and  C_12
REMARK    7  A    between atoms: C_12  and  C_13
REMARK                            x       y       z     vdW  Elec       q    Type
REMARK                         _______ _______ _______ _____ _____    ______ ____
ROOT
ATOM      1  C   UNL     1       3.921   4.695  17.395  0.00  0.00    +0.000 A 
ATOM      2  C   UNL     1       3.906   3.320  17.107  0.00  0.00    +0.000 A 
ATOM      3  C   UNL     1       3.168   2.444  17.905  0.00  0.00    +0.000 A 
ATOM      4  C   UNL     1       2.469   2.972  18.973  0.00  0.00    +0.000 A 
ATOM      5  C   UNL     1       2.476   4.328  19.257  0.00  0.00    +0.000 A 
ATOM      6  C   UNL     1       3.195   5.227  18.471  0.00  0.00    +0.000 A 
ATOM      7  C   UNL     1       1.637   4.581  20.452  0.00  0.00    +0.000 C 
ATOM      8  C   UNL     1       1.129   3.170  20.746  0.00  0.00    +0.000 C 
ATOM      9  O   UNL     1       1.717   2.217  19.827  0.00  0.00    +0.000 OA
ENDROOT
BRANCH   1  10
ATOM     10  O   UNL     1       4.651   5.544  16.610  0.00  0.00    +0.000 OA
ATOM     11  H   UNL     1       4.886   5.082  15.789  0.00  0.00    +0.000 HD
ENDBRANCH   1  10
BRANCH   6  12
ATOM     12  C   UNL     1       3.159   6.705  18.759  0.00  0.00    +0.000 C 
BRANCH  12  13
ATOM     13  C   UNL     1       2.022   7.435  18.033  0.00  0.00    +0.000 C 
BRANCH  13  14
ATOM     14  C   UNL     1       2.239   8.951  17.967  0.00  0.00    +0.000 C 
BRANCH  14  15
ATOM     15  S   UNL     1       0.641   9.811  18.173  0.00  0.00    +0.000 S 
BRANCH  15  16
ATOM     16  C   UNL     1       1.083  11.041  19.435  0.00  0.00    +0.000 C 
BRANCH  16  17
ATOM     17  C   UNL     1       0.417  10.688  20.737  0.00  0.00    +0.000 A 
ATOM     18  C   UNL     1       0.741   9.527  21.445  0.00  0.00    +0.000 A 
ATOM     19  C   UNL     1       0.129   9.272  22.671  0.00  0.00    +0.000 A 
ATOM     20  C   UNL     1      -0.788  10.191  23.152  0.00  0.00    +0.000 A 
ATOM     21  N   UNL     1      -1.119  11.328  22.505  0.00  0.00    +0.000 NA
ATOM     22  C   UNL     1      -0.503  11.555  21.323  0.00  0.00    +0.000 A 
ENDBRANCH  16  17
ENDBRANCH  15  16
ENDBRANCH  14  15
ENDBRANCH  13  14
ENDBRANCH  12  13
ENDBRANCH   6  12
TORSDOF 7
ENDMDL
MODEL 9
REMARK VINA RESULT:      -6.3      3.585      6.621
REMARK  Name = 
REMARK  7 active torsions:
REMARK  status: ('A' for Active; 'I' for Inactive)
REMARK    1  A    between atoms: O_1  and  C_2
REMARK    2  A    between atoms: C_7  and  C_8
REMARK    3  A    between atoms: C_8  and  C_9
REMARK    4  A    between atoms: C_9  and  C_10
REMARK    5  A    between atoms: C_10  and  S_11
REMARK    6  A    between atoms: S_11  and  C_12
REMARK    7  A    between atoms: C_12  and  C_13
REMARK                            x       y       z     vdW  Elec       q    Type
REMARK                         _______ _______ _______ _____ _____    ______ ____
ROOT
ATOM      1  C   UNL     1       2.045   5.988  20.042  0.00  0.00    +0.000 A 
ATOM      2  C   UNL     1       1.207   5.139  20.784  0.00  0.00    +0.000 A 
ATOM      3  C   UNL     1       1.009   3.819  20.379  0.00  0.00    +0.000 A 
ATOM      4  C   UNL     1       1.653   3.387  19.236  0.00  0.00    +0.000 A 
ATOM      5  C   UNL     1       2.485   4.218  18.504  0.00  0.00    +0.000 A 
ATOM      6  C   UNL     1       2.710   5.538  18.891  0.00  0.00    +0.000 A 
ATOM      7  C   UNL     1       3.026   3.470  17.345  0.00  0.00    +0.000 C 
ATOM      8  C   UNL     1       2.407   2.092  17.582  0.00  0.00    +0.000 C 
ATOM      9  O   UNL     1       1.533   2.121  18.738  0.00  0.00    +0.000 OA
ENDROOT
BRANCH   1  10
ATOM     10  O   UNL     1       2.229   7.282  20.444  0.00  0.00    +0.000 OA
ATOM     11  H   UNL     1       1.412   7.777  20.276  0.00  0.00    +0.000 HD
ENDBRANCH   1  10
BRANCH   6  12
ATOM     12  C   UNL     1       3.653   6.420  18.116  0.00  0.00    +0.000 C 
BRANCH  12  13
ATOM     13  C   UNL     1       5.129   6.066  18.334  0.00  0.00    +0.000 C 
BRANCH  13  14
ATOM     14  C   UNL     1       6.052   6.701  17.286  0.00  0.00    +0.000 C 
BRANCH  14  15
ATOM     15  S   UNL     1       7.319   5.492  16.769  0.00  0.00    +0.000 S 
BRANCH  15  16
ATOM     16  C   UNL     1       6.287   4.283  15.888  0.00  0.00    +0.000 C 
BRANCH  16  17
ATOM     17  C   UNL     1       6.583   4.347  14.415  0.00  0.00    +0.000 A 
ATOM     18  C   UNL     1       7.479   5.277  13.877  0.00  0.00    +0.000 A 
ATOM     19  C   UNL     1       7.752   5.262  12.511  0.00  0.00    +0.000 A 
ATOM     20  C   UNL     1       7.123   4.313  11.724  0.00  0.00    +0.000 A 
ATOM     21  N   UNL     1       6.262   3.391  12.206  0.00  0.00    +0.000 NA
ATOM     22  C   UNL     1       6.022   3.423  13.535  0.00  0.00    +0.000 A 
ENDBRANCH  16  17
ENDBRANCH  15  16
ENDBRANCH  14  15
ENDBRANCH  13  14
ENDBRANCH  12  13
ENDBRANCH   6  12
TORSDOF 7
ENDMDL
