MODEL 1
REMARK VINA RESULT:      -7.5      0.000      0.000
REMARK  Name = 
REMARK  5 active torsions:
REMARK  status: ('A' for Active; 'I' for Inactive)
REMARK    1  A    between atoms: C_1  and  C_2
REMARK    2  A    between atoms: C_4  and  O_5
REMARK    3  A    between atoms: O_5  and  C_6
REMARK    4  A    between atoms: C_6  and  C_7
REMARK    5  A    between atoms: C_12  and  C_13
REMARK                            x       y       z     vdW  Elec       q    Type
REMARK                         _______ _______ _______ _____ _____    ______ ____
ROOT
ATOM      1  C   UNL     1       1.515   3.075  20.918  0.00  0.00    +0.000 C 
ATOM      2  C   UNL     1       2.483   3.983  20.221  0.00  0.00    +0.000 A 
ATOM      3  C   UNL     1       3.733   3.518  19.818  0.00  0.00    +0.000 A 
ATOM      4  C   UNL     1       4.606   4.392  19.179  0.00  0.00    +0.000 A 
ATOM      5  C   UNL     1       4.202   5.701  18.947  0.00  0.00    +0.000 A 
ATOM      6  C   UNL     1       2.927   6.076  19.345  0.00  0.00    +0.000 A 
ATOM      7  N   UNL     1       2.067   5.250  19.998  0.00  0.00    +0.000 NA
ENDROOT
BRANCH   6   8
ATOM      8  C   UNL     1       2.417   7.451  19.027  0.00  0.00    +0.000 C 
ATOM      9  O   UNL     1       2.812   8.037  18.019  0.00  0.00    +0.000 OA
ATOM     10  N   UNL     1       1.567   7.966  19.982  0.00  0.00    +0.000 N 
ATOM     11  C   UNL     1       1.056   9.260  19.957  0.00  0.00    +0.000 A 
ATOM     12  C   UNL     1       0.601   9.845  18.778  0.00  0.00    +0.000 A 
ATOM     13  C   UNL     1       0.127  11.154  18.819  0.00  0.00    +0.000 A 
ATOM     14  C   UNL     1       0.161  11.849  20.019  0.00  0.00    +0.000 A 
ATOM     15  C   UNL     1       0.614  11.181  21.145  0.00  0.00    +0.000 A 
ATOM     16  N   UNL     1       1.016   9.890  21.149  0.00  0.00    +0.000 NA
ATOM     17  H   UNL     1       1.587   7.522  20.894  0.00  0.00    +0.000 HD
ENDBRANCH   6   8
BRANCH   4  18
ATOM     18  O   UNL     1       5.877   4.096  18.768  0.00  0.00    +0.000 OA
BRANCH  18  19
ATOM     19  C   UNL     1       6.616   5.146  18.137  0.00  0.00    +0.000 C 
BRANCH  19  20
ATOM     20  C   UNL     1       7.180   4.600  16.832  0.00  0.00    +0.000 C 
ATOM     21  C   UNL     1       6.187   3.985  15.837  0.00  0.00    +0.000 C 
ATOM     22  C   UNL     1       6.885   4.881  14.815  0.00  0.00    +0.000 C 
ATOM     23  O   UNL     1       7.477   5.673  15.882  0.00  0.00    +0.000 OA
ENDBRANCH  19  20
ENDBRANCH  18  19
ENDBRANCH   4  18
TORSDOF 4
ENDMDL
MODEL 2
REMARK VINA RESULT:      -7.4      1.784      2.522
REMARK  Name = 
REMARK  5 active torsions:
REMARK  status: ('A' for Active; 'I' for Inactive)
REMARK    1  A    between atoms: C_1  and  C_2
REMARK    2  A    between atoms: C_4  and  O_5
REMARK    3  A    between atoms: O_5  and  C_6
REMARK    4  A    between atoms: C_6  and  C_7
REMARK    5  A    between atoms: C_12  and  C_13
REMARK                            x       y       z     vdW  Elec       q    Type
REMARK                         _______ _______ _______ _____ _____    ______ ____
ROOT
ATOM      1  C   UNL     1       2.506   1.924  17.895  0.00  0.00    +0.000 C 
ATOM      2  C   UNL     1       2.962   3.351  17.968  0.00  0.00    +0.000 A 
ATOM      3  C   UNL     1       3.935   3.834  17.096  0.00  0.00    +0.000 A 
ATOM      4  C   UNL     1       4.335   5.162  17.199  0.00  0.00    +0.000 A 
ATOM      5  C   UNL     1       3.744   5.974  18.158  0.00  0.00    +0.000 A 
ATOM      6  C   UNL     1       2.755   5.427  18.963  0.00  0.00    +0.000 A 
ATOM      7  N   UNL     1       2.367   4.126  18.903  0.00  0.00    +0.000 NA
ENDROOT
BRANCH   6   8
ATOM      8  C   UNL     1       2.023   6.295  19.945  0.00  0.00    +0.000 C 
ATOM      9  O   UNL     1       1.405   5.783  20.878  0.00  0.00    +0.000 OA
ATOM     10  N   UNL     1       2.066   7.639  19.643  0.00  0.00    +0.000 N 
ATOM     11  C   UNL     1       1.373   8.620  20.346  0.00  0.00    +0.000 A 
ATOM     12  C   UNL     1       1.297   8.609  21.736  0.00  0.00    +0.000 A 
ATOM     13  C   UNL     1       0.564   9.606  22.375  0.00  0.00    +0.000 A 
ATOM     14  C   UNL     1      -0.101  10.553  21.609  0.00  0.00    +0.000 A 
ATOM     15  C   UNL     1       0.047  10.497  20.233  0.00  0.00    +0.000 A 
ATOM     16  N   UNL     1       0.806   9.582  19.589  0.00  0.00    +0.000 NA
ATOM     17  H   UNL     1       2.325   7.882  18.693  0.00  0.00    +0.000 HD
ENDBRANCH   6   8
BRANCH   4  18
ATOM     18  O   UNL     1       5.308   5.764  16.448  0.00  0.00    +0.000 OA
BRANCH  18  19
ATOM     19  C   UNL     1       6.453   4.974  16.115  0.00  0.00    +0.000 C 
BRANCH  19  20
ATOM     20  C   UNL     1       7.557   5.311  17.110  0.00  0.00    +0.000 C 
ATOM     21  C   UNL     1       7.447   6.644  17.860  0.00  0.00    +0.000 C 
ATOM     22  C   UNL     1       7.707   5.796  19.104  0.00  0.00    +0.000 C 
ATOM     23  O   UNL     1       7.388   4.582  18.368  0.00  0.00    +0.000 OA
ENDBRANCH  19  20
ENDBRANCH  18  19
ENDBRANCH   4  18
TORSDOF 4
ENDMDL
MODEL 3
REMARK VINA RESULT:      -7.3      1.064      1.433
REMARK  Name = 
REMARK  5 active torsions:
REMARK  status: ('A' for Active; 'I' for Inactive)
REMARK    1  A    between atoms: C_1  and  C_2
REMARK    2  A    between atoms: C_4  and  O_5
REMARK    3  A    between atoms: O_5  and  C_6
REMARK    4  A    between atoms: C_6  and  C_7
REMARK    5  A    between atoms: C_12  and  C_13
REMARK                            x       y       z     vdW  Elec       q    Type
REMARK                         _______ _______ _______ _____ _____    ______ ____
ROOT
ATOM      1  C   UNL     1       1.296   3.095  21.134  0.00  0.00    +0.000 C 
ATOM      2  C   UNL     1       2.288   3.972  20.432  0.00  0.00    +0.000 A 
ATOM      3  C   UNL     1       3.532   3.478  20.048  0.00  0.00    +0.000 A 
ATOM      4  C   UNL     1       4.427   4.325  19.404  0.00  0.00    +0.000 A 
ATOM      5  C   UNL     1       4.050   5.638  19.148  0.00  0.00    +0.000 A 
ATOM      6  C   UNL     1       2.780   6.043  19.529  0.00  0.00    +0.000 A 
ATOM      7  N   UNL     1       1.898   5.244  20.186  0.00  0.00    +0.000 NA
ENDROOT
BRANCH   6   8
ATOM      8  C   UNL     1       2.299   7.422  19.185  0.00  0.00    +0.000 C 
ATOM      9  O   UNL     1       2.694   7.975  18.158  0.00  0.00    +0.000 OA
ATOM     10  N   UNL     1       1.475   7.980  20.138  0.00  0.00    +0.000 N 
ATOM     11  C   UNL     1       0.995   9.286  20.089  0.00  0.00    +0.000 A 
ATOM     12  C   UNL     1       0.538   9.854  18.903  0.00  0.00    +0.000 A 
ATOM     13  C   UNL     1       0.097  11.174  18.918  0.00  0.00    +0.000 A 
ATOM     14  C   UNL     1       0.164  11.896  20.101  0.00  0.00    +0.000 A 
ATOM     15  C   UNL     1       0.616  11.244  21.236  0.00  0.00    +0.000 A 
ATOM     16  N   UNL     1       0.987   9.944  21.266  0.00  0.00    +0.000 NA
ATOM     17  H   UNL     1       1.496   7.557  21.060  0.00  0.00    +0.000 HD
ENDBRANCH   6   8
BRANCH   4  18
ATOM     18  O   UNL     1       5.696   3.998  19.010  0.00  0.00    +0.000 OA
BRANCH  18  19
ATOM     19  C   UNL     1       6.054   4.302  17.658  0.00  0.00    +0.000 C 
BRANCH  19  20
ATOM     20  C   UNL     1       7.345   5.110  17.688  0.00  0.00    +0.000 C 
ATOM     21  C   UNL     1       7.225   6.635  17.574  0.00  0.00    +0.000 C 
ATOM     22  C   UNL     1       8.146   6.650  18.792  0.00  0.00    +0.000 C 
ATOM     23  O   UNL     1       7.863   5.247  19.050  0.00  0.00    +0.000 OA
ENDBRANCH  19  20
ENDBRANCH  18  19
ENDBRANCH   4  18
TORSDOF 4
ENDMDL
MODEL 4
REMARK VINA RESULT:      -7.2      1.312      1.599
REMARK  Name = 
REMARK  5 active torsions:
REMARK  status: ('A' for Active; 'I' for Inactive)
REMARK    1  A    between atoms: C_1  and  C_2
REMARK    2  A    between atoms: C_4  and  O_5
REMARK    3  A    between atoms: O_5  and  C_6
REMARK    4  A    between atoms: C_6  and  C_7
REMARK    5  A    between atoms: C_12  and  C_13
REMARK                            x       y       z     vdW  Elec       q    Type
REMARK                         _______ _______ _______ _____ _____    ______ ____
ROOT
ATOM      1  C   UNL     1       2.270   4.765  20.921  0.00  0.00    +0.000 C 
ATOM      2  C   UNL     1       2.704   5.604  19.756  0.00  0.00    +0.000 A 
ATOM      3  C   UNL     1       3.619   5.116  18.828  0.00  0.00    +0.000 A 
ATOM      4  C   UNL     1       4.000   5.926  17.763  0.00  0.00    +0.000 A 
ATOM      5  C   UNL     1       3.447   7.195  17.648  0.00  0.00    +0.000 A 
ATOM      6  C   UNL     1       2.513   7.594  18.594  0.00  0.00    +0.000 A 
ATOM      7  N   UNL     1       2.146   6.832  19.659  0.00  0.00    +0.000 NA
ENDROOT
BRANCH   6   8
ATOM      8  C   UNL     1       1.820   8.917  18.451  0.00  0.00    +0.000 C 
ATOM      9  O   UNL     1       1.938   9.566  17.412  0.00  0.00    +0.000 OA
ATOM     10  N   UNL     1       1.144   9.317  19.583  0.00  0.00    +0.000 N 
ATOM     11  C   UNL     1       0.518  10.553  19.723  0.00  0.00    +0.000 A 
ATOM     12  C   UNL     1      -0.226  11.118  18.692  0.00  0.00    +0.000 A 
ATOM     13  C   UNL     1      -0.803  12.370  18.890  0.00  0.00    +0.000 A 
ATOM     14  C   UNL     1      -0.584  13.034  20.089  0.00  0.00    +0.000 A 
ATOM     15  C   UNL     1       0.155  12.387  21.065  0.00  0.00    +0.000 A 
ATOM     16  N   UNL     1       0.669  11.144  20.926  0.00  0.00    +0.000 NA
ATOM     17  H   UNL     1       1.396   8.854  20.450  0.00  0.00    +0.000 HD
ENDBRANCH   6   8
BRANCH   4  18
ATOM     18  O   UNL     1       4.920   5.605  16.802  0.00  0.00    +0.000 OA
BRANCH  18  19
ATOM     19  C   UNL     1       6.160   5.050  17.250  0.00  0.00    +0.000 C 
BRANCH  19  20
ATOM     20  C   UNL     1       6.850   4.421  16.047  0.00  0.00    +0.000 C 
ATOM     21  C   UNL     1       5.978   4.080  14.831  0.00  0.00    +0.000 C 
ATOM     22  C   UNL     1       7.058   4.815  14.038  0.00  0.00    +0.000 C 
ATOM     23  O   UNL     1       7.572   5.420  15.257  0.00  0.00    +0.000 OA
ENDBRANCH  19  20
ENDBRANCH  18  19
ENDBRANCH   4  18
TORSDOF 4
ENDMDL
MODEL 5
REMARK VINA RESULT:      -7.2      1.372      2.022
REMARK  Name = 
REMARK  5 active torsions:
REMARK  status: ('A' for Active; 'I' for Inactive)
REMARK    1  A    between atoms: C_1  and  C_2
REMARK    2  A    between atoms: C_4  and  O_5
REMARK    3  A    between atoms: O_5  and  C_6
REMARK    4  A    between atoms: C_6  and  C_7
REMARK    5  A    between atoms: C_12  and  C_13
REMARK                            x       y       z     vdW  Elec       q    Type
REMARK                         _______ _______ _______ _____ _____    ______ ____
ROOT
ATOM      1  C   UNL     1       2.345   4.569  20.766  0.00  0.00    +0.000 C 
ATOM      2  C   UNL     1       2.781   5.453  19.637  0.00  0.00    +0.000 A 
ATOM      3  C   UNL     1       3.709   5.007  18.700  0.00  0.00    +0.000 A 
ATOM      4  C   UNL     1       4.092   5.859  17.669  0.00  0.00    +0.000 A 
ATOM      5  C   UNL     1       3.528   7.126  17.595  0.00  0.00    +0.000 A 
ATOM      6  C   UNL     1       2.582   7.482  18.545  0.00  0.00    +0.000 A 
ATOM      7  N   UNL     1       2.213   6.680  19.579  0.00  0.00    +0.000 NA
ENDROOT
BRANCH   6   8
ATOM      8  C   UNL     1       1.878   8.803  18.444  0.00  0.00    +0.000 C 
ATOM      9  O   UNL     1       1.988   9.484  17.425  0.00  0.00    +0.000 OA
ATOM     10  N   UNL     1       1.202   9.164  19.590  0.00  0.00    +0.000 N 
ATOM     11  C   UNL     1       0.567  10.390  19.768  0.00  0.00    +0.000 A 
ATOM     12  C   UNL     1      -0.184  10.980  18.756  0.00  0.00    +0.000 A 
ATOM     13  C   UNL     1      -0.770  12.221  18.993  0.00  0.00    +0.000 A 
ATOM     14  C   UNL     1      -0.554  12.850  20.210  0.00  0.00    +0.000 A 
ATOM     15  C   UNL     1       0.194  12.181  21.165  0.00  0.00    +0.000 A 
ATOM     16  N   UNL     1       0.718  10.947  20.988  0.00  0.00    +0.000 NA
ATOM     17  H   UNL     1       1.460   8.678  20.441  0.00  0.00    +0.000 HD
ENDBRANCH   6   8
BRANCH   4  18
ATOM     18  O   UNL     1       5.023   5.581  16.706  0.00  0.00    +0.000 OA
BRANCH  18  19
ATOM     19  C   UNL     1       5.830   4.416  16.900  0.00  0.00    +0.000 C 
BRANCH  19  20
ATOM     20  C   UNL     1       7.182   4.869  17.434  0.00  0.00    +0.000 C 
ATOM     21  C   UNL     1       7.416   6.379  17.572  0.00  0.00    +0.000 C 
ATOM     22  C   UNL     1       7.894   6.027  18.980  0.00  0.00    +0.000 C 
ATOM     23  O   UNL     1       7.266   4.718  18.888  0.00  0.00    +0.000 OA
ENDBRANCH  19  20
ENDBRANCH  18  19
ENDBRANCH   4  18
TORSDOF 4
ENDMDL
MODEL 6
REMARK VINA RESULT:      -7.1      2.064      3.786
REMARK  Name = 
REMARK  5 active torsions:
REMARK  status: ('A' for Active; 'I' for Inactive)
REMARK    1  A    between atoms: C_1  and  C_2
REMARK    2  A    between atoms: C_4  and  O_5
REMARK    3  A    between atoms: O_5  and  C_6
REMARK    4  A    between atoms: C_6  and  C_7
REMARK    5  A    between atoms: C_12  and  C_13
REMARK                            x       y       z     vdW  Elec       q    Type
REMARK                         _______ _______ _______ _____ _____    ______ ____
ROOT
ATOM      1  C   UNL     1       5.428   6.234  15.890  0.00  0.00    +0.000 C 
ATOM      2  C   UNL     1       4.494   6.279  17.061  0.00  0.00    +0.000 A 
ATOM      3  C   UNL     1       4.501   5.268  18.019  0.00  0.00    +0.000 A 
ATOM      4  C   UNL     1       3.614   5.344  19.088  0.00  0.00    +0.000 A 
ATOM      5  C   UNL     1       2.757   6.432  19.180  0.00  0.00    +0.000 A 
ATOM      6  C   UNL     1       2.837   7.417  18.206  0.00  0.00    +0.000 A 
ATOM      7  N   UNL     1       3.673   7.352  17.135  0.00  0.00    +0.000 NA
ENDROOT
BRANCH   6   8
ATOM      8  C   UNL     1       1.998   8.655  18.320  0.00  0.00    +0.000 C 
ATOM      9  O   UNL     1       2.004   9.490  17.415  0.00  0.00    +0.000 OA
ATOM     10  N   UNL     1       1.325   8.765  19.518  0.00  0.00    +0.000 N 
ATOM     11  C   UNL     1       0.573   9.875  19.892  0.00  0.00    +0.000 A 
ATOM     12  C   UNL     1      -0.268  10.527  18.995  0.00  0.00    +0.000 A 
ATOM     13  C   UNL     1      -0.971  11.648  19.428  0.00  0.00    +0.000 A 
ATOM     14  C   UNL     1      -0.781  12.106  20.724  0.00  0.00    +0.000 A 
ATOM     15  C   UNL     1       0.061  11.384  21.553  0.00  0.00    +0.000 A 
ATOM     16  N   UNL     1       0.704  10.253  21.180  0.00  0.00    +0.000 NA
ATOM     17  H   UNL     1       1.659   8.186  20.280  0.00  0.00    +0.000 HD
ENDBRANCH   6   8
BRANCH   4  18
ATOM     18  O   UNL     1       3.473   4.409  20.077  0.00  0.00    +0.000 OA
BRANCH  18  19
ATOM     19  C   UNL     1       3.868   3.069  19.766  0.00  0.00    +0.000 C 
BRANCH  19  20
ATOM     20  C   UNL     1       2.603   2.246  19.561  0.00  0.00    +0.000 C 
ATOM     21  C   UNL     1       1.293   2.814  20.121  0.00  0.00    +0.000 C 
ATOM     22  C   UNL     1       0.739   2.508  18.731  0.00  0.00    +0.000 C 
ATOM     23  O   UNL     1       2.086   2.382  18.198  0.00  0.00    +0.000 OA
ENDBRANCH  19  20
ENDBRANCH  18  19
ENDBRANCH   4  18
TORSDOF 4
ENDMDL
MODEL 7
REMARK VINA RESULT:      -7.1      2.067      4.032
REMARK  Name = 
REMARK  5 active torsions:
REMARK  status: ('A' for Active; 'I' for Inactive)
REMARK    1  A    between atoms: C_1  and  C_2
REMARK    2  A    between atoms: C_4  and  O_5
REMARK    3  A    between atoms: O_5  and  C_6
REMARK    4  A    between atoms: C_6  and  C_7
REMARK    5  A    between atoms: C_12  and  C_13
REMARK                            x       y       z     vdW  Elec       q    Type
REMARK                         _______ _______ _______ _____ _____    ______ ____
ROOT
ATOM      1  C   UNL     1       6.871   6.221  17.021  0.00  0.00    +0.000 C 
ATOM      2  C   UNL     1       5.419   5.950  17.272  0.00  0.00    +0.000 A 
ATOM      3  C   UNL     1       4.906   4.659  17.166  0.00  0.00    +0.000 A 
ATOM      4  C   UNL     1       3.551   4.449  17.401  0.00  0.00    +0.000 A 
ATOM      5  C   UNL     1       2.749   5.529  17.748  0.00  0.00    +0.000 A 
ATOM      6  C   UNL     1       3.343   6.777  17.869  0.00  0.00    +0.000 A 
ATOM      7  N   UNL     1       4.658   7.014  17.616  0.00  0.00    +0.000 NA
ENDROOT
BRANCH   6   8
ATOM      8  C   UNL     1       2.534   7.950  18.335  0.00  0.00    +0.000 C 
ATOM      9  O   UNL     1       2.517   8.989  17.675  0.00  0.00    +0.000 OA
ATOM     10  N   UNL     1       1.916   7.754  19.552  0.00  0.00    +0.000 N 
ATOM     11  C   UNL     1       1.203   8.737  20.233  0.00  0.00    +0.000 A 
ATOM     12  C   UNL     1       0.337   9.603  19.573  0.00  0.00    +0.000 A 
ATOM     13  C   UNL     1      -0.325  10.581  20.311  0.00  0.00    +0.000 A 
ATOM     14  C   UNL     1      -0.071  10.690  21.671  0.00  0.00    +0.000 A 
ATOM     15  C   UNL     1       0.793   9.773  22.246  0.00  0.00    +0.000 A 
ATOM     16  N   UNL     1       1.397   8.771  21.567  0.00  0.00    +0.000 NA
ATOM     17  H   UNL     1       2.272   6.996  20.124  0.00  0.00    +0.000 HD
ENDBRANCH   6   8
BRANCH   4  18
ATOM     18  O   UNL     1       2.896   3.252  17.291  0.00  0.00    +0.000 OA
BRANCH  18  19
ATOM     19  C   UNL     1       3.353   2.183  18.125  0.00  0.00    +0.000 C 
BRANCH  19  20
ATOM     20  C   UNL     1       2.318   1.973  19.222  0.00  0.00    +0.000 C 
ATOM     21  C   UNL     1       2.464   2.809  20.500  0.00  0.00    +0.000 C 
ATOM     22  C   UNL     1       0.983   3.118  20.290  0.00  0.00    +0.000 C 
ATOM     23  O   UNL     1       1.060   2.654  18.914  0.00  0.00    +0.000 OA
ENDBRANCH  19  20
ENDBRANCH  18  19
ENDBRANCH   4  18
TORSDOF 4
ENDMDL
MODEL 8
REMARK VINA RESULT:      -7.0      2.854      7.757
REMARK  Name = 
REMARK  5 active torsions:
REMARK  status: ('A' for Active; 'I' for Inactive)
REMARK    1  A    between atoms: C_1  and  C_2
REMARK    2  A    between atoms: C_4  and  O_5
REMARK    3  A    between atoms: O_5  and  C_6
REMARK    4  A    between atoms: C_6  and  C_7
REMARK    5  A    between atoms: C_12  and  C_13
REMARK                            x       y       z     vdW  Elec       q    Type
REMARK                         _______ _______ _______ _____ _____    ______ ____
ROOT
ATOM      1  C   UNL     1       3.938   2.677  19.894  0.00  0.00    +0.000 C 
ATOM      2  C   UNL     1       3.810   4.014  19.228  0.00  0.00    +0.000 A 
ATOM      3  C   UNL     1       3.047   5.027  19.804  0.00  0.00    +0.000 A 
ATOM      4  C   UNL     1       2.948   6.252  19.152  0.00  0.00    +0.000 A 
ATOM      5  C   UNL     1       3.625   6.436  17.953  0.00  0.00    +0.000 A 
ATOM      6  C   UNL     1       4.394   5.390  17.465  0.00  0.00    +0.000 A 
ATOM      7  N   UNL     1       4.483   4.174  18.066  0.00  0.00    +0.000 NA
ENDROOT
BRANCH   6   8
ATOM      8  C   UNL     1       5.217   5.581  16.225  0.00  0.00    +0.000 C 
ATOM      9  O   UNL     1       5.539   6.713  15.867  0.00  0.00    +0.000 OA
ATOM     10  N   UNL     1       5.481   4.411  15.545  0.00  0.00    +0.000 N 
ATOM     11  C   UNL     1       6.133   4.352  14.316  0.00  0.00    +0.000 A 
ATOM     12  C   UNL     1       7.246   5.139  14.039  0.00  0.00    +0.000 A 
ATOM     13  C   UNL     1       7.833   5.051  12.779  0.00  0.00    +0.000 A 
ATOM     14  C   UNL     1       7.268   4.214  11.827  0.00  0.00    +0.000 A 
ATOM     15  C   UNL     1       6.171   3.454  12.197  0.00  0.00    +0.000 A 
ATOM     16  N   UNL     1       5.622   3.470  13.433  0.00  0.00    +0.000 NA
ATOM     17  H   UNL     1       4.894   3.614  15.767  0.00  0.00    +0.000 HD
ENDBRANCH   6   8
BRANCH   4  18
ATOM     18  O   UNL     1       2.203   7.321  19.568  0.00  0.00    +0.000 OA
BRANCH  18  19
ATOM     19  C   UNL     1       1.499   7.180  20.806  0.00  0.00    +0.000 C 
BRANCH  19  20
ATOM     20  C   UNL     1       1.094   8.572  21.273  0.00  0.00    +0.000 C 
ATOM     21  C   UNL     1       0.843   9.633  20.194  0.00  0.00    +0.000 C 
ATOM     22  C   UNL     1      -0.456   9.888  20.956  0.00  0.00    +0.000 C 
ATOM     23  O   UNL     1      -0.318   8.622  21.658  0.00  0.00    +0.000 OA
ENDBRANCH  19  20
ENDBRANCH  18  19
ENDBRANCH   4  18
TORSDOF 4
ENDMDL
MODEL 9
REMARK VINA RESULT:      -7.0      2.386      4.269
REMARK  Name = 
REMARK  5 active torsions:
REMARK  status: ('A' for Active; 'I' for Inactive)
REMARK    1  A    between atoms: C_1  and  C_2
REMARK    2  A    between atoms: C_4  and  O_5
REMARK    3  A    between atoms: O_5  and  C_6
REMARK    4  A    between atoms: C_6  and  C_7
REMARK    5  A    between atoms: C_12  and  C_13
REMARK                            x       y       z     vdW  Elec       q    Type
REMARK                         _______ _______ _______ _____ _____    ______ ____
ROOT
ATOM      1  C   UNL     1       6.095   6.299  16.612  0.00  0.00    +0.000 C 
ATOM      2  C   UNL     1       4.713   5.993  17.106  0.00  0.00    +0.000 A 
ATOM      3  C   UNL     1       4.178   4.713  16.980  0.00  0.00    +0.000 A 
ATOM      4  C   UNL     1       2.890   4.470  17.446  0.00  0.00    +0.000 A 
ATOM      5  C   UNL     1       2.178   5.506  18.036  0.00  0.00    +0.000 A 
ATOM      6  C   UNL     1       2.795   6.743  18.158  0.00  0.00    +0.000 A 
ATOM      7  N   UNL     1       4.041   7.014  17.684  0.00  0.00    +0.000 NA
ENDROOT
BRANCH   6   8
ATOM      8  C   UNL     1       2.099   7.861  18.875  0.00  0.00    +0.000 C 
ATOM      9  O   UNL     1       2.085   7.890  20.106  0.00  0.00    +0.000 OA
ATOM     10  N   UNL     1       1.457   8.748  18.038  0.00  0.00    +0.000 N 
ATOM     11  C   UNL     1       0.658   9.799  18.478  0.00  0.00    +0.000 A 
ATOM     12  C   UNL     1       1.023  10.593  19.561  0.00  0.00    +0.000 A 
ATOM     13  C   UNL     1       0.164  11.612  19.966  0.00  0.00    +0.000 A 
ATOM     14  C   UNL     1      -1.046  11.778  19.307  0.00  0.00    +0.000 A 
ATOM     15  C   UNL     1      -1.318  10.952  18.229  0.00  0.00    +0.000 A 
ATOM     16  N   UNL     1      -0.473  10.001  17.771  0.00  0.00    +0.000 NA
ATOM     17  H   UNL     1       1.278   8.430  17.091  0.00  0.00    +0.000 HD
ENDBRANCH   6   8
BRANCH   4  18
ATOM     18  O   UNL     1       2.216   3.283  17.352  0.00  0.00    +0.000 OA
BRANCH  18  19
ATOM     19  C   UNL     1       2.801   2.151  18.003  0.00  0.00    +0.000 C 
BRANCH  19  20
ATOM     20  C   UNL     1       2.046   1.924  19.307  0.00  0.00    +0.000 C 
ATOM     21  C   UNL     1       2.518   2.705  20.540  0.00  0.00    +0.000 C 
ATOM     22  C   UNL     1       1.040   3.059  20.697  0.00  0.00    +0.000 C 
ATOM     23  O   UNL     1       0.775   2.648  19.328  0.00  0.00    +0.000 OA
ENDBRANCH  19  20
ENDBRANCH  18  19
ENDBRANCH   4  18
TORSDOF 4
ENDMDL
