MODEL 1
REMARK VINA RESULT:      -9.1      0.000      0.000
REMARK  Name = 
REMARK  7 active torsions:
REMARK  status: ('A' for Active; 'I' for Inactive)
REMARK    1  A    between atoms: C_1  and  N_2
REMARK    2  A    between atoms: N_2  and  N_3
REMARK    3  A    between atoms: C_4  and  C_5
REMARK    4  A    between atoms: C_11  and  N_12
REMARK    5  A    between atoms: N_12  and  C_13
REMARK    6  A    between atoms: N_20  and  C_21
REMARK    7  A    between atoms: C_21  and  C_22
REMARK                            x       y       z     vdW  Elec       q    Type
REMARK                         _______ _______ _______ _____ _____    ______ ____
ROOT
ATOM      1  C   UNL     1       2.420   7.040  19.669  0.00  0.00    +0.000 A 
ATOM      2  C   UNL     1       2.216   7.713  18.457  0.00  0.00    +0.000 A 
ATOM      3  C   UNL     1       1.461   8.899  18.372  0.00  0.00    +0.000 A 
ATOM      4  C   UNL     1       0.882   9.382  19.551  0.00  0.00    +0.000 A 
ATOM      5  C   UNL     1       1.008   8.704  20.760  0.00  0.00    +0.000 A 
ATOM      6  C   UNL     1       0.267   9.472  21.681  0.00  0.00    +0.000 A 
ATOM      7  N   UNL     1      -0.245  10.577  21.141  0.00  0.00    +0.000 NA
ATOM      8  N   UNL     1       0.123  10.496  19.840  0.00  0.00    +0.000 N 
ATOM      9  C   UNL     1       1.769   7.519  20.818  0.00  0.00    +0.000 A 
ENDROOT
BRANCH   1  10
ATOM     10  N   UNL     1       3.218   5.884  19.772  0.00  0.00    +0.000 N 
ATOM     11  H   UNL     1       4.222   6.058  19.768  0.00  0.00    +0.000 HD
BRANCH  10  18
ATOM     12  C   UNL     1       3.767   3.637  18.980  0.00  0.00    +0.000 A 
ATOM     13  C   UNL     1       3.326   2.328  18.830  0.00  0.00    +0.000 A 
ATOM     14  N   UNL     1       4.086   1.320  18.219  0.00  0.00    +0.000 N 
ATOM     15  N   UNL     1       2.134   1.906  19.273  0.00  0.00    +0.000 NA
ATOM     16  C   UNL     1       1.364   2.832  19.857  0.00  0.00    +0.000 A 
ATOM     17  N   UNL     1       1.672   4.120  20.020  0.00  0.00    +0.000 NA
ATOM     18  C   UNL     1       2.888   4.528  19.595  0.00  0.00    +0.000 A 
ATOM     19  H   UNL     1       4.355   1.560  17.269  0.00  0.00    +0.000 HD
ATOM     20  H   UNL     1       3.515   0.476  18.227  0.00  0.00    +0.000 HD
BRANCH  12  22
ATOM     21  N   UNL     1       6.042   4.477  19.259  0.00  0.00    +0.000 NA
ATOM     22  C   UNL     1       5.107   4.008  18.486  0.00  0.00    +0.000 C 
BRANCH  21  24
ATOM     23  C   UNL     1       7.752   6.087  18.867  0.00  0.00    +0.000 C 
ATOM     24  N   UNL     1       7.176   4.779  18.585  0.00  0.00    +0.000 N 
ATOM     25  H   UNL     1       7.897   4.062  18.699  0.00  0.00    +0.000 HD
ENDBRANCH  21  24
ENDBRANCH  12  22
ENDBRANCH  10  18
ENDBRANCH   1  10
BRANCH   8  26
ATOM     26  C   UNL     1      -0.262  11.571  18.928  0.00  0.00    +0.000 C 
BRANCH  26  27
ATOM     27  C   UNL     1      -1.622  11.329  18.316  0.00  0.00    +0.000 A 
ATOM     28  C   UNL     1      -2.765  11.959  18.836  0.00  0.00    +0.000 A 
ATOM     29  C   UNL     1      -4.034  11.681  18.322  0.00  0.00    +0.000 A 
ATOM     30  C   UNL     1      -4.172  10.786  17.265  0.00  0.00    +0.000 A 
ATOM     31  C   UNL     1      -3.038  10.200  16.714  0.00  0.00    +0.000 A 
ATOM     32  F   UNL     1      -3.168   9.355  15.684  0.00  0.00    +0.000 F 
ATOM     33  C   UNL     1      -1.770  10.467  17.222  0.00  0.00    +0.000 A 
ENDBRANCH  26  27
ENDBRANCH   8  26
TORSDOF 6
ENDMDL
MODEL 2
REMARK VINA RESULT:      -9.1      0.937      1.295
REMARK  Name = 
REMARK  7 active torsions:
REMARK  status: ('A' for Active; 'I' for Inactive)
REMARK    1  A    between atoms: C_1  and  N_2
REMARK    2  A    between atoms: N_2  and  N_3
REMARK    3  A    between atoms: C_4  and  C_5
REMARK    4  A    between atoms: C_11  and  N_12
REMARK    5  A    between atoms: N_12  and  C_13
REMARK    6  A    between atoms: N_20  and  C_21
REMARK    7  A    between atoms: C_21  and  C_22
REMARK                            x       y       z     vdW  Elec       q    Type
REMARK                         _______ _______ _______ _____ _____    ______ ____
ROOT
ATOM      1  C   UNL     1       2.447   6.966  19.674  0.00  0.00    +0.000 A 
ATOM      2  C   UNL     1       2.221   7.589  18.440  0.00  0.00    +0.000 A 
ATOM      3  C   UNL     1       1.472   8.775  18.321  0.00  0.00    +0.000 A 
ATOM      4  C   UNL     1       0.921   9.312  19.491  0.00  0.00    +0.000 A 
ATOM      5  C   UNL     1       1.070   8.685  20.725  0.00  0.00    +0.000 A 
ATOM      6  C   UNL     1       0.354   9.496  21.628  0.00  0.00    +0.000 A 
ATOM      7  N   UNL     1      -0.162  10.582  21.053  0.00  0.00    +0.000 NA
ATOM      8  N   UNL     1       0.176  10.443  19.749  0.00  0.00    +0.000 N 
ATOM      9  C   UNL     1       1.825   7.498  20.816  0.00  0.00    +0.000 A 
ENDROOT
BRANCH   1  10
ATOM     10  N   UNL     1       3.240   5.810  19.809  0.00  0.00    +0.000 N 
ATOM     11  H   UNL     1       4.243   5.983  19.852  0.00  0.00    +0.000 HD
BRANCH  10  18
ATOM     12  C   UNL     1       3.811   3.573  19.003  0.00  0.00    +0.000 A 
ATOM     13  C   UNL     1       3.378   2.265  18.831  0.00  0.00    +0.000 A 
ATOM     14  N   UNL     1       4.153   1.266  18.223  0.00  0.00    +0.000 N 
ATOM     15  N   UNL     1       2.180   1.832  19.249  0.00  0.00    +0.000 NA
ATOM     16  C   UNL     1       1.396   2.749  19.829  0.00  0.00    +0.000 A 
ATOM     17  N   UNL     1       1.697   4.037  20.011  0.00  0.00    +0.000 NA
ATOM     18  C   UNL     1       2.918   4.454  19.612  0.00  0.00    +0.000 A 
ATOM     19  H   UNL     1       4.437   1.516  17.281  0.00  0.00    +0.000 HD
ATOM     20  H   UNL     1       3.585   0.419  18.212  0.00  0.00    +0.000 HD
BRANCH  12  22
ATOM     21  N   UNL     1       6.049   4.497  19.313  0.00  0.00    +0.000 NA
ATOM     22  C   UNL     1       5.158   3.955  18.536  0.00  0.00    +0.000 C 
BRANCH  21  24
ATOM     23  C   UNL     1       7.161   4.659  17.214  0.00  0.00    +0.000 C 
ATOM     24  N   UNL     1       7.200   4.793  18.663  0.00  0.00    +0.000 N 
ATOM     25  H   UNL     1       7.554   5.722  18.907  0.00  0.00    +0.000 HD
ENDBRANCH  21  24
ENDBRANCH  12  22
ENDBRANCH  10  18
ENDBRANCH   1  10
BRANCH   8  26
ATOM     26  C   UNL     1      -0.222  11.481  18.801  0.00  0.00    +0.000 C 
BRANCH  26  27
ATOM     27  C   UNL     1      -1.572  11.194  18.188  0.00  0.00    +0.000 A 
ATOM     28  C   UNL     1      -1.699  10.282  17.126  0.00  0.00    +0.000 A 
ATOM     29  C   UNL     1      -2.932  10.070  16.505  0.00  0.00    +0.000 A 
ATOM     30  C   UNL     1      -4.060  10.751  16.956  0.00  0.00    +0.000 A 
ATOM     31  C   UNL     1      -3.949  11.614  18.040  0.00  0.00    +0.000 A 
ATOM     32  F   UNL     1      -5.037  12.253  18.487  0.00  0.00    +0.000 F 
ATOM     33  C   UNL     1      -2.723  11.837  18.661  0.00  0.00    +0.000 A 
ENDBRANCH  26  27
ENDBRANCH   8  26
TORSDOF 6
ENDMDL
MODEL 3
REMARK VINA RESULT:      -8.9      1.622      3.361
REMARK  Name = 
REMARK  7 active torsions:
REMARK  status: ('A' for Active; 'I' for Inactive)
REMARK    1  A    between atoms: C_1  and  N_2
REMARK    2  A    between atoms: N_2  and  N_3
REMARK    3  A    between atoms: C_4  and  C_5
REMARK    4  A    between atoms: C_11  and  N_12
REMARK    5  A    between atoms: N_12  and  C_13
REMARK    6  A    between atoms: N_20  and  C_21
REMARK    7  A    between atoms: C_21  and  C_22
REMARK                            x       y       z     vdW  Elec       q    Type
REMARK                         _______ _______ _______ _____ _____    ______ ____
ROOT
ATOM      1  C   UNL     1       3.078   6.890  18.934  0.00  0.00    +0.000 A 
ATOM      2  C   UNL     1       2.842   7.741  17.846  0.00  0.00    +0.000 A 
ATOM      3  C   UNL     1       1.961   8.836  17.924  0.00  0.00    +0.000 A 
ATOM      4  C   UNL     1       1.289   9.040  19.135  0.00  0.00    +0.000 A 
ATOM      5  C   UNL     1       1.449   8.177  20.215  0.00  0.00    +0.000 A 
ATOM      6  C   UNL     1       0.592   8.688  21.213  0.00  0.00    +0.000 A 
ATOM      7  N   UNL     1      -0.022   9.810  20.843  0.00  0.00    +0.000 NA
ATOM      8  N   UNL     1       0.399  10.000  19.569  0.00  0.00    +0.000 N 
ATOM      9  C   UNL     1       2.337   7.088  20.111  0.00  0.00    +0.000 A 
ENDROOT
BRANCH   1  10
ATOM     10  N   UNL     1       3.998   5.825  18.881  0.00  0.00    +0.000 N 
ATOM     11  H   UNL     1       4.071   5.282  19.740  0.00  0.00    +0.000 HD
BRANCH  10  18
ATOM     12  C   UNL     1       4.976   4.447  17.113  0.00  0.00    +0.000 A 
ATOM     13  C   UNL     1       6.062   4.259  16.268  0.00  0.00    +0.000 A 
ATOM     14  N   UNL     1       6.165   3.187  15.368  0.00  0.00    +0.000 N 
ATOM     15  N   UNL     1       7.106   5.098  16.223  0.00  0.00    +0.000 NA
ATOM     16  C   UNL     1       7.062   6.133  17.069  0.00  0.00    +0.000 A 
ATOM     17  N   UNL     1       6.088   6.389  17.947  0.00  0.00    +0.000 NA
ATOM     18  C   UNL     1       5.028   5.553  17.962  0.00  0.00    +0.000 A 
ATOM     19  H   UNL     1       6.103   2.285  15.831  0.00  0.00    +0.000 HD
ATOM     20  H   UNL     1       7.064   3.285  14.896  0.00  0.00    +0.000 HD
BRANCH  12  22
ATOM     21  N   UNL     1       3.452   2.829  18.121  0.00  0.00    +0.000 NA
ATOM     22  C   UNL     1       3.856   3.488  17.075  0.00  0.00    +0.000 C 
BRANCH  21  24
ATOM     23  C   UNL     1       1.226   2.162  18.639  0.00  0.00    +0.000 C 
ATOM     24  N   UNL     1       2.433   1.981  17.845  0.00  0.00    +0.000 N 
ATOM     25  H   UNL     1       2.187   1.984  16.851  0.00  0.00    +0.000 HD
ENDBRANCH  21  24
ENDBRANCH  12  22
ENDBRANCH  10  18
ENDBRANCH   1  10
BRANCH   8  26
ATOM     26  C   UNL     1      -0.073  11.172  18.835  0.00  0.00    +0.000 C 
BRANCH  26  27
ATOM     27  C   UNL     1      -1.465  10.967  18.285  0.00  0.00    +0.000 A 
ATOM     28  C   UNL     1      -1.708  10.009  17.286  0.00  0.00    +0.000 A 
ATOM     29  C   UNL     1      -2.978   9.868  16.720  0.00  0.00    +0.000 A 
ATOM     30  C   UNL     1      -4.026  10.669  17.164  0.00  0.00    +0.000 A 
ATOM     31  C   UNL     1      -3.802  11.582  18.188  0.00  0.00    +0.000 A 
ATOM     32  F   UNL     1      -4.814  12.338  18.630  0.00  0.00    +0.000 F 
ATOM     33  C   UNL     1      -2.539  11.734  18.755  0.00  0.00    +0.000 A 
ENDBRANCH  26  27
ENDBRANCH   8  26
TORSDOF 6
ENDMDL
MODEL 4
REMARK VINA RESULT:      -8.8      0.943      1.001
REMARK  Name = 
REMARK  7 active torsions:
REMARK  status: ('A' for Active; 'I' for Inactive)
REMARK    1  A    between atoms: C_1  and  N_2
REMARK    2  A    between atoms: N_2  and  N_3
REMARK    3  A    between atoms: C_4  and  C_5
REMARK    4  A    between atoms: C_11  and  N_12
REMARK    5  A    between atoms: N_12  and  C_13
REMARK    6  A    between atoms: N_20  and  C_21
REMARK    7  A    between atoms: C_21  and  C_22
REMARK                            x       y       z     vdW  Elec       q    Type
REMARK                         _______ _______ _______ _____ _____    ______ ____
ROOT
ATOM      1  C   UNL     1       2.362   7.517  18.806  0.00  0.00    +0.000 A 
ATOM      2  C   UNL     1       2.005   8.459  17.833  0.00  0.00    +0.000 A 
ATOM      3  C   UNL     1       1.278   9.624  18.143  0.00  0.00    +0.000 A 
ATOM      4  C   UNL     1       0.884   9.805  19.474  0.00  0.00    +0.000 A 
ATOM      5  C   UNL     1       1.164   8.858  20.455  0.00  0.00    +0.000 A 
ATOM      6  C   UNL     1       0.581   9.375  21.630  0.00  0.00    +0.000 A 
ATOM      7  N   UNL     1       0.027  10.573  21.450  0.00  0.00    +0.000 NA
ATOM      8  N   UNL     1       0.204  10.811  20.127  0.00  0.00    +0.000 N 
ATOM      9  C   UNL     1       1.894   7.701  20.118  0.00  0.00    +0.000 A 
ENDROOT
BRANCH   1  10
ATOM     10  N   UNL     1       3.136   6.377  18.514  0.00  0.00    +0.000 N 
ATOM     11  H   UNL     1       3.715   6.457  17.679  0.00  0.00    +0.000 HD
BRANCH  10  18
ATOM     12  C   UNL     1       4.177   4.293  19.257  0.00  0.00    +0.000 A 
ATOM     13  C   UNL     1       3.965   2.995  19.706  0.00  0.00    +0.000 A 
ATOM     14  N   UNL     1       5.004   2.097  19.993  0.00  0.00    +0.000 N 
ATOM     15  N   UNL     1       2.743   2.489  19.921  0.00  0.00    +0.000 NA
ATOM     16  C   UNL     1       1.716   3.303  19.654  0.00  0.00    +0.000 A 
ATOM     17  N   UNL     1       1.804   4.550  19.186  0.00  0.00    +0.000 NA
ATOM     18  C   UNL     1       3.040   5.060  19.000  0.00  0.00    +0.000 A 
ATOM     19  H   UNL     1       5.616   1.945  19.197  0.00  0.00    +0.000 HD
ATOM     20  H   UNL     1       4.564   1.223  20.279  0.00  0.00    +0.000 HD
BRANCH  12  22
ATOM     21  N   UNL     1       6.430   4.166  18.327  0.00  0.00    +0.000 NA
ATOM     22  C   UNL     1       5.558   4.778  19.074  0.00  0.00    +0.000 C 
BRANCH  21  24
ATOM     23  C   UNL     1       7.813   5.835  19.313  0.00  0.00    +0.000 C 
ATOM     24  N   UNL     1       7.641   4.772  18.333  0.00  0.00    +0.000 N 
ATOM     25  H   UNL     1       8.408   4.101  18.426  0.00  0.00    +0.000 HD
ENDBRANCH  21  24
ENDBRANCH  12  22
ENDBRANCH  10  18
ENDBRANCH   1  10
BRANCH   8  26
ATOM     26  C   UNL     1      -0.278  12.069  19.564  0.00  0.00    +0.000 C 
BRANCH  26  27
ATOM     27  C   UNL     1      -1.695  11.950  19.053  0.00  0.00    +0.000 A 
ATOM     28  C   UNL     1      -2.778  12.399  19.829  0.00  0.00    +0.000 A 
ATOM     29  C   UNL     1      -4.094  12.222  19.394  0.00  0.00    +0.000 A 
ATOM     30  C   UNL     1      -4.341  11.617  18.165  0.00  0.00    +0.000 A 
ATOM     31  C   UNL     1      -3.272  11.219  17.372  0.00  0.00    +0.000 A 
ATOM     32  F   UNL     1      -3.509  10.655  16.181  0.00  0.00    +0.000 F 
ATOM     33  C   UNL     1      -1.957  11.385  17.799  0.00  0.00    +0.000 A 
ENDBRANCH  26  27
ENDBRANCH   8  26
TORSDOF 6
ENDMDL
MODEL 5
REMARK VINA RESULT:      -8.7      1.445      1.759
REMARK  Name = 
REMARK  7 active torsions:
REMARK  status: ('A' for Active; 'I' for Inactive)
REMARK    1  A    between atoms: C_1  and  N_2
REMARK    2  A    between atoms: N_2  and  N_3
REMARK    3  A    between atoms: C_4  and  C_5
REMARK    4  A    between atoms: C_11  and  N_12
REMARK    5  A    between atoms: N_12  and  C_13
REMARK    6  A    between atoms: N_20  and  C_21
REMARK    7  A    between atoms: C_21  and  C_22
REMARK                            x       y       z     vdW  Elec       q    Type
REMARK                         _______ _______ _______ _____ _____    ______ ____
ROOT
ATOM      1  C   UNL     1       2.493   7.030  18.623  0.00  0.00    +0.000 A 
ATOM      2  C   UNL     1       2.126   8.026  17.709  0.00  0.00    +0.000 A 
ATOM      3  C   UNL     1       1.493   9.218  18.108  0.00  0.00    +0.000 A 
ATOM      4  C   UNL     1       1.206   9.373  19.469  0.00  0.00    +0.000 A 
ATOM      5  C   UNL     1       1.496   8.377  20.397  0.00  0.00    +0.000 A 
ATOM      6  C   UNL     1       1.030   8.884  21.627  0.00  0.00    +0.000 A 
ATOM      7  N   UNL     1       0.537  10.117  21.526  0.00  0.00    +0.000 NA
ATOM      8  N   UNL     1       0.634  10.392  20.202  0.00  0.00    +0.000 N 
ATOM      9  C   UNL     1       2.131   7.192  19.971  0.00  0.00    +0.000 A 
ENDROOT
BRANCH   1  10
ATOM     10  N   UNL     1       3.175   5.859  18.239  0.00  0.00    +0.000 N 
ATOM     11  H   UNL     1       3.942   6.007  17.584  0.00  0.00    +0.000 HD
BRANCH  10  18
ATOM     12  C   UNL     1       3.761   3.486  18.294  0.00  0.00    +0.000 A 
ATOM     13  C   UNL     1       3.288   2.185  18.411  0.00  0.00    +0.000 A 
ATOM     14  N   UNL     1       4.112   1.052  18.337  0.00  0.00    +0.000 N 
ATOM     15  N   UNL     1       1.997   1.895  18.623  0.00  0.00    +0.000 NA
ATOM     16  C   UNL     1       1.165   2.940  18.693  0.00  0.00    +0.000 A 
ATOM     17  N   UNL     1       1.505   4.225  18.558  0.00  0.00    +0.000 NA
ATOM     18  C   UNL     1       2.813   4.506  18.374  0.00  0.00    +0.000 A 
ATOM     19  H   UNL     1       4.632   1.007  17.466  0.00  0.00    +0.000 HD
ATOM     20  H   UNL     1       3.504   0.240  18.433  0.00  0.00    +0.000 HD
BRANCH  12  22
ATOM     21  N   UNL     1       5.961   4.296  18.973  0.00  0.00    +0.000 NA
ATOM     22  C   UNL     1       5.204   3.714  18.090  0.00  0.00    +0.000 C 
BRANCH  21  24
ATOM     23  C   UNL     1       7.869   5.713  18.832  0.00  0.00    +0.000 C 
ATOM     24  N   UNL     1       7.243   4.427  18.558  0.00  0.00    +0.000 N 
ATOM     25  H   UNL     1       7.844   3.678  18.913  0.00  0.00    +0.000 HD
ENDBRANCH  21  24
ENDBRANCH  12  22
ENDBRANCH  10  18
ENDBRANCH   1  10
BRANCH   8  26
ATOM     26  C   UNL     1       0.189  11.696  19.716  0.00  0.00    +0.000 C 
BRANCH  26  27
ATOM     27  C   UNL     1      -1.277  11.691  19.356  0.00  0.00    +0.000 A 
ATOM     28  C   UNL     1      -1.728  11.043  18.193  0.00  0.00    +0.000 A 
ATOM     29  C   UNL     1      -3.072  11.099  17.815  0.00  0.00    +0.000 A 
ATOM     30  C   UNL     1      -3.986  11.785  18.610  0.00  0.00    +0.000 A 
ATOM     31  C   UNL     1      -3.554  12.383  19.788  0.00  0.00    +0.000 A 
ATOM     32  F   UNL     1      -4.437  13.025  20.563  0.00  0.00    +0.000 F 
ATOM     33  C   UNL     1      -2.216  12.337  20.170  0.00  0.00    +0.000 A 
ENDBRANCH  26  27
ENDBRANCH   8  26
TORSDOF 6
ENDMDL
MODEL 6
REMARK VINA RESULT:      -8.7      2.834      3.702
REMARK  Name = 
REMARK  7 active torsions:
REMARK  status: ('A' for Active; 'I' for Inactive)
REMARK    1  A    between atoms: C_1  and  N_2
REMARK    2  A    between atoms: N_2  and  N_3
REMARK    3  A    between atoms: C_4  and  C_5
REMARK    4  A    between atoms: C_11  and  N_12
REMARK    5  A    between atoms: N_12  and  C_13
REMARK    6  A    between atoms: N_20  and  C_21
REMARK    7  A    between atoms: C_21  and  C_22
REMARK                            x       y       z     vdW  Elec       q    Type
REMARK                         _______ _______ _______ _____ _____    ______ ____
ROOT
ATOM      1  C   UNL     1       2.470   7.274  18.453  0.00  0.00    +0.000 A 
ATOM      2  C   UNL     1       2.062   8.342  17.644  0.00  0.00    +0.000 A 
ATOM      3  C   UNL     1       1.418   9.479  18.168  0.00  0.00    +0.000 A 
ATOM      4  C   UNL     1       1.163   9.502  19.544  0.00  0.00    +0.000 A 
ATOM      5  C   UNL     1       1.495   8.430  20.368  0.00  0.00    +0.000 A 
ATOM      6  C   UNL     1       1.051   8.811  21.650  0.00  0.00    +0.000 A 
ATOM      7  N   UNL     1       0.534  10.039  21.676  0.00  0.00    +0.000 NA
ATOM      8  N   UNL     1       0.592  10.436  20.382  0.00  0.00    +0.000 N 
ATOM      9  C   UNL     1       2.139   7.303  19.818  0.00  0.00    +0.000 A 
ENDROOT
BRANCH   1  10
ATOM     10  N   UNL     1       3.163   6.157  17.946  0.00  0.00    +0.000 N 
ATOM     11  H   UNL     1       3.625   6.312  17.051  0.00  0.00    +0.000 HD
BRANCH  10  18
ATOM     12  C   UNL     1       4.170   4.153  18.920  0.00  0.00    +0.000 A 
ATOM     13  C   UNL     1       4.005   2.804  19.208  0.00  0.00    +0.000 A 
ATOM     14  N   UNL     1       4.997   2.014  19.807  0.00  0.00    +0.000 N 
ATOM     15  N   UNL     1       2.871   2.137  18.951  0.00  0.00    +0.000 NA
ATOM     16  C   UNL     1       1.894   2.844  18.370  0.00  0.00    +0.000 A 
ATOM     17  N   UNL     1       1.959   4.130  18.019  0.00  0.00    +0.000 NA
ATOM     18  C   UNL     1       3.095   4.799  18.308  0.00  0.00    +0.000 A 
ATOM     19  H   UNL     1       5.862   2.009  19.276  0.00  0.00    +0.000 HD
ATOM     20  H   UNL     1       4.617   1.071  19.880  0.00  0.00    +0.000 HD
BRANCH  12  22
ATOM     21  N   UNL     1       6.584   4.467  18.743  0.00  0.00    +0.000 NA
ATOM     22  C   UNL     1       5.443   4.814  19.263  0.00  0.00    +0.000 C 
BRANCH  21  24
ATOM     23  C   UNL     1       7.829   6.493  18.615  0.00  0.00    +0.000 C 
ATOM     24  N   UNL     1       7.622   5.189  19.228  0.00  0.00    +0.000 N 
ATOM     25  H   UNL     1       7.575   5.297  20.245  0.00  0.00    +0.000 HD
ENDBRANCH  21  24
ENDBRANCH  12  22
ENDBRANCH  10  18
ENDBRANCH   1  10
BRANCH   8  26
ATOM     26  C   UNL     1       0.112  11.770  20.030  0.00  0.00    +0.000 C 
BRANCH  26  27
ATOM     27  C   UNL     1       1.251  12.721  19.744  0.00  0.00    +0.000 A 
ATOM     28  C   UNL     1       1.512  13.154  18.433  0.00  0.00    +0.000 A 
ATOM     29  C   UNL     1       2.609  13.972  18.152  0.00  0.00    +0.000 A 
ATOM     30  C   UNL     1       3.445  14.387  19.185  0.00  0.00    +0.000 A 
ATOM     31  C   UNL     1       3.160  14.004  20.490  0.00  0.00    +0.000 A 
ATOM     32  F   UNL     1       3.951  14.420  21.487  0.00  0.00    +0.000 F 
ATOM     33  C   UNL     1       2.072  13.184  20.780  0.00  0.00    +0.000 A 
ENDBRANCH  26  27
ENDBRANCH   8  26
TORSDOF 6
ENDMDL
MODEL 7
REMARK VINA RESULT:      -8.6      2.388      3.233
REMARK  Name = 
REMARK  7 active torsions:
REMARK  status: ('A' for Active; 'I' for Inactive)
REMARK    1  A    between atoms: C_1  and  N_2
REMARK    2  A    between atoms: N_2  and  N_3
REMARK    3  A    between atoms: C_4  and  C_5
REMARK    4  A    between atoms: C_11  and  N_12
REMARK    5  A    between atoms: N_12  and  C_13
REMARK    6  A    between atoms: N_20  and  C_21
REMARK    7  A    between atoms: C_21  and  C_22
REMARK                            x       y       z     vdW  Elec       q    Type
REMARK                         _______ _______ _______ _____ _____    ______ ____
ROOT
ATOM      1  C   UNL     1       2.317   7.277  19.761  0.00  0.00    +0.000 A 
ATOM      2  C   UNL     1       2.270   7.883  18.499  0.00  0.00    +0.000 A 
ATOM      3  C   UNL     1       1.585   9.091  18.269  0.00  0.00    +0.000 A 
ATOM      4  C   UNL     1       0.912   9.669  19.352  0.00  0.00    +0.000 A 
ATOM      5  C   UNL     1       0.883   9.061  20.604  0.00  0.00    +0.000 A 
ATOM      6  C   UNL     1       0.089   9.914  21.399  0.00  0.00    +0.000 A 
ATOM      7  N   UNL     1      -0.312  11.004  20.747  0.00  0.00    +0.000 NA
ATOM      8  N   UNL     1       0.182  10.829  19.498  0.00  0.00    +0.000 N 
ATOM      9  C   UNL     1       1.577   7.852  20.807  0.00  0.00    +0.000 A 
ENDROOT
BRANCH   1  10
ATOM     10  N   UNL     1       3.045   6.097  20.011  0.00  0.00    +0.000 N 
ATOM     11  H   UNL     1       4.034   6.240  20.212  0.00  0.00    +0.000 HD
BRANCH  10  18
ATOM     12  C   UNL     1       3.646   3.867  19.210  0.00  0.00    +0.000 A 
ATOM     13  C   UNL     1       3.207   2.570  18.974  0.00  0.00    +0.000 A 
ATOM     14  N   UNL     1       4.015   1.569  18.414  0.00  0.00    +0.000 N 
ATOM     15  N   UNL     1       1.970   2.153  19.278  0.00  0.00    +0.000 NA
ATOM     16  C   UNL     1       1.155   3.072  19.807  0.00  0.00    +0.000 A 
ATOM     17  N   UNL     1       1.461   4.351  20.041  0.00  0.00    +0.000 NA
ATOM     18  C   UNL     1       2.718   4.752  19.758  0.00  0.00    +0.000 A 
ATOM     19  H   UNL     1       4.384   1.833  17.505  0.00  0.00    +0.000 HD
ATOM     20  H   UNL     1       3.436   0.734  18.336  0.00  0.00    +0.000 HD
BRANCH  12  22
ATOM     21  N   UNL     1       5.812   4.891  19.679  0.00  0.00    +0.000 NA
ATOM     22  C   UNL     1       5.035   4.232  18.870  0.00  0.00    +0.000 C 
BRANCH  21  24
ATOM     23  C   UNL     1       7.227   4.693  17.774  0.00  0.00    +0.000 C 
ATOM     24  N   UNL     1       7.030   5.143  19.144  0.00  0.00    +0.000 N 
ATOM     25  H   UNL     1       7.286   6.131  19.215  0.00  0.00    +0.000 HD
ENDBRANCH  21  24
ENDBRANCH  12  22
ENDBRANCH  10  18
ENDBRANCH   1  10
BRANCH   8  26
ATOM     26  C   UNL     1      -0.057  11.862  18.492  0.00  0.00    +0.000 C 
BRANCH  26  27
ATOM     27  C   UNL     1       0.885  13.032  18.653  0.00  0.00    +0.000 A 
ATOM     28  C   UNL     1       0.432  14.250  19.186  0.00  0.00    +0.000 A 
ATOM     29  C   UNL     1       1.279  15.358  19.267  0.00  0.00    +0.000 A 
ATOM     30  C   UNL     1       2.599  15.253  18.837  0.00  0.00    +0.000 A 
ATOM     31  C   UNL     1       3.066  14.035  18.357  0.00  0.00    +0.000 A 
ATOM     32  F   UNL     1       4.341  13.927  17.963  0.00  0.00    +0.000 F 
ATOM     33  C   UNL     1       2.227  12.926  18.268  0.00  0.00    +0.000 A 
ENDBRANCH  26  27
ENDBRANCH   8  26
TORSDOF 6
ENDMDL
MODEL 8
REMARK VINA RESULT:      -8.6      2.380      3.328
REMARK  Name = 
REMARK  7 active torsions:
REMARK  status: ('A' for Active; 'I' for Inactive)
REMARK    1  A    between atoms: C_1  and  N_2
REMARK    2  A    between atoms: N_2  and  N_3
REMARK    3  A    between atoms: C_4  and  C_5
REMARK    4  A    between atoms: C_11  and  N_12
REMARK    5  A    between atoms: N_12  and  C_13
REMARK    6  A    between atoms: N_20  and  C_21
REMARK    7  A    between atoms: C_21  and  C_22
REMARK                            x       y       z     vdW  Elec       q    Type
REMARK                         _______ _______ _______ _____ _____    ______ ____
ROOT
ATOM      1  C   UNL     1       2.234   7.395  19.741  0.00  0.00    +0.000 A 
ATOM      2  C   UNL     1       2.159   7.989  18.475  0.00  0.00    +0.000 A 
ATOM      3  C   UNL     1       1.458   9.189  18.247  0.00  0.00    +0.000 A 
ATOM      4  C   UNL     1       0.799   9.770  19.336  0.00  0.00    +0.000 A 
ATOM      5  C   UNL     1       0.798   9.174  20.594  0.00  0.00    +0.000 A 
ATOM      6  C   UNL     1       0.010  10.026  21.395  0.00  0.00    +0.000 A 
ATOM      7  N   UNL     1      -0.413  11.106  20.741  0.00  0.00    +0.000 NA
ATOM      8  N   UNL     1       0.060  10.925  19.484  0.00  0.00    +0.000 N 
ATOM      9  C   UNL     1       1.507   7.972  20.796  0.00  0.00    +0.000 A 
ENDROOT
BRANCH   1  10
ATOM     10  N   UNL     1       2.978   6.225  19.990  0.00  0.00    +0.000 N 
ATOM     11  H   UNL     1       3.981   6.371  20.092  0.00  0.00    +0.000 HD
BRANCH  10  18
ATOM     12  C   UNL     1       3.457   3.969  19.177  0.00  0.00    +0.000 A 
ATOM     13  C   UNL     1       2.995   2.664  19.062  0.00  0.00    +0.000 A 
ATOM     14  N   UNL     1       3.708   1.646  18.411  0.00  0.00    +0.000 N 
ATOM     15  N   UNL     1       1.830   2.254  19.581  0.00  0.00    +0.000 NA
ATOM     16  C   UNL     1       1.106   3.189  20.206  0.00  0.00    +0.000 A 
ATOM     17  N   UNL     1       1.435   4.476  20.342  0.00  0.00    +0.000 NA
ATOM     18  C   UNL     1       2.625   4.871  19.841  0.00  0.00    +0.000 A 
ATOM     19  H   UNL     1       3.919   1.878  17.445  0.00  0.00    +0.000 HD
ATOM     20  H   UNL     1       3.131   0.807  18.459  0.00  0.00    +0.000 HD
BRANCH  12  22
ATOM     21  N   UNL     1       5.897   3.952  19.123  0.00  0.00    +0.000 NA
ATOM     22  C   UNL     1       4.767   4.326  18.599  0.00  0.00    +0.000 C 
BRANCH  21  24
ATOM     23  C   UNL     1       7.531   5.673  18.933  0.00  0.00    +0.000 C 
ATOM     24  N   UNL     1       6.970   4.422  18.443  0.00  0.00    +0.000 N 
ATOM     25  H   UNL     1       7.715   3.725  18.366  0.00  0.00    +0.000 HD
ENDBRANCH  21  24
ENDBRANCH  12  22
ENDBRANCH  10  18
ENDBRANCH   1  10
BRANCH   8  26
ATOM     26  C   UNL     1      -0.207  11.946  18.474  0.00  0.00    +0.000 C 
BRANCH  26  27
ATOM     27  C   UNL     1       0.788  13.080  18.545  0.00  0.00    +0.000 A 
ATOM     28  C   UNL     1       2.142  12.868  18.235  0.00  0.00    +0.000 A 
ATOM     29  C   UNL     1       3.080  13.895  18.372  0.00  0.00    +0.000 A 
ATOM     30  C   UNL     1       2.668  15.155  18.798  0.00  0.00    +0.000 A 
ATOM     31  C   UNL     1       1.322  15.383  19.056  0.00  0.00    +0.000 A 
ATOM     32  F   UNL     1       0.922  16.600  19.446  0.00  0.00    +0.000 F 
ATOM     33  C   UNL     1       0.381  14.365  18.928  0.00  0.00    +0.000 A 
ENDBRANCH  26  27
ENDBRANCH   8  26
TORSDOF 6
ENDMDL
MODEL 9
REMARK VINA RESULT:      -8.6      0.931      1.585
REMARK  Name = 
REMARK  7 active torsions:
REMARK  status: ('A' for Active; 'I' for Inactive)
REMARK    1  A    between atoms: C_1  and  N_2
REMARK    2  A    between atoms: N_2  and  N_3
REMARK    3  A    between atoms: C_4  and  C_5
REMARK    4  A    between atoms: C_11  and  N_12
REMARK    5  A    between atoms: N_12  and  C_13
REMARK    6  A    between atoms: N_20  and  C_21
REMARK    7  A    between atoms: C_21  and  C_22
REMARK                            x       y       z     vdW  Elec       q    Type
REMARK                         _______ _______ _______ _____ _____    ______ ____
ROOT
ATOM      1  C   UNL     1       2.077   6.669  20.321  0.00  0.00    +0.000 A 
ATOM      2  C   UNL     1       1.223   7.347  21.199  0.00  0.00    +0.000 A 
ATOM      3  C   UNL     1       0.696   8.619  20.906  0.00  0.00    +0.000 A 
ATOM      4  C   UNL     1       1.080   9.216  19.699  0.00  0.00    +0.000 A 
ATOM      5  C   UNL     1       1.978   8.600  18.832  0.00  0.00    +0.000 A 
ATOM      6  C   UNL     1       2.136   9.515  17.771  0.00  0.00    +0.000 A 
ATOM      7  N   UNL     1       1.370  10.597  17.900  0.00  0.00    +0.000 NA
ATOM      8  N   UNL     1       0.748  10.407  19.089  0.00  0.00    +0.000 N 
ATOM      9  C   UNL     1       2.491   7.326  19.150  0.00  0.00    +0.000 A 
ENDROOT
BRANCH   1  10
ATOM     10  N   UNL     1       2.565   5.374  20.582  0.00  0.00    +0.000 N 
ATOM     11  H   UNL     1       3.415   5.344  21.143  0.00  0.00    +0.000 HD
BRANCH  10  18
ATOM     12  C   UNL     1       3.245   3.338  19.411  0.00  0.00    +0.000 A 
ATOM     13  C   UNL     1       2.822   2.157  18.813  0.00  0.00    +0.000 A 
ATOM     14  N   UNL     1       3.692   1.251  18.189  0.00  0.00    +0.000 N 
ATOM     15  N   UNL     1       1.539   1.768  18.793  0.00  0.00    +0.000 NA
ATOM     16  C   UNL     1       0.665   2.602  19.368  0.00  0.00    +0.000 A 
ATOM     17  N   UNL     1       0.956   3.775  19.936  0.00  0.00    +0.000 NA
ATOM     18  C   UNL     1       2.255   4.143  19.976  0.00  0.00    +0.000 A 
ATOM     19  H   UNL     1       4.230   1.681  17.443  0.00  0.00    +0.000 HD
ATOM     20  H   UNL     1       3.116   0.494  17.824  0.00  0.00    +0.000 HD
BRANCH  12  22
ATOM     21  N   UNL     1       5.328   4.017  18.335  0.00  0.00    +0.000 NA
ATOM     22  C   UNL     1       4.681   3.673  19.410  0.00  0.00    +0.000 C 
BRANCH  21  24
ATOM     23  C   UNL     1       7.437   4.606  17.400  0.00  0.00    +0.000 C 
ATOM     24  N   UNL     1       6.642   4.247  18.566  0.00  0.00    +0.000 N 
ATOM     25  H   UNL     1       6.789   4.943  19.302  0.00  0.00    +0.000 HD
ENDBRANCH  21  24
ENDBRANCH  12  22
ENDBRANCH  10  18
ENDBRANCH   1  10
BRANCH   8  26
ATOM     26  C   UNL     1      -0.201  11.413  19.559  0.00  0.00    +0.000 C 
BRANCH  26  27
ATOM     27  C   UNL     1      -1.552  11.261  18.900  0.00  0.00    +0.000 A 
ATOM     28  C   UNL     1      -2.652  12.019  19.338  0.00  0.00    +0.000 A 
ATOM     29  C   UNL     1      -3.921  11.828  18.783  0.00  0.00    +0.000 A 
ATOM     30  C   UNL     1      -4.098  10.894  17.767  0.00  0.00    +0.000 A 
ATOM     31  C   UNL     1      -3.003  10.180  17.296  0.00  0.00    +0.000 A 
ATOM     32  F   UNL     1      -3.169   9.296  16.304  0.00  0.00    +0.000 F 
ATOM     33  C   UNL     1      -1.736  10.358  17.846  0.00  0.00    +0.000 A 
ENDBRANCH  26  27
ENDBRANCH   8  26
TORSDOF 6
ENDMDL
