MODEL 1
REMARK VINA RESULT:      -8.6      0.000      0.000
REMARK  Name = 
REMARK  12 active torsions:
REMARK  status: ('A' for Active; 'I' for Inactive)
REMARK    1  A    between atoms: C_1  and  C_2
REMARK    2  A    between atoms: C_2  and  C_3
REMARK    3  A    between atoms: C_3  and  C_4
REMARK    4  A    between atoms: C_4  and  C_5
REMARK    5  A    between atoms: C_8  and  C_9
REMARK    6  A    between atoms: C_9  and  O_11
REMARK    7  A    between atoms: C_12  and  N_13
REMARK    8  A    between atoms: N_13  and  C_14
REMARK    9  A    between atoms: N_13  and  C_15
REMARK   10  A    between atoms: C_15  and  C_16
REMARK   11  A    between atoms: C_19  and  C_20
REMARK   12  A    between atoms: C_25  and  C_26
REMARK                            x       y       z     vdW  Elec       q    Type
REMARK                         _______ _______ _______ _____ _____    ______ ____
ROOT
ATOM      1  C   UNL     1       0.833   9.391  19.816  0.00  0.00    +0.000 A 
ATOM      2  C   UNL     1       1.195   9.461  18.463  0.00  0.00    +0.000 A 
ATOM      3  C   UNL     1       2.012   8.485  17.893  0.00  0.00    +0.000 A 
ATOM      4  C   UNL     1       2.492   7.403  18.658  0.00  0.00    +0.000 A 
ATOM      5  C   UNL     1       2.163   7.374  20.030  0.00  0.00    +0.000 A 
ATOM      6  C   UNL     1       1.338   8.346  20.598  0.00  0.00    +0.000 A 
ENDROOT
BRANCH   4   7
ATOM      7  C   UNL     1       3.362   6.348  18.025  0.00  0.00    +0.000 A 
ATOM      8  C   UNL     1       4.270   6.756  17.020  0.00  0.00    +0.000 A 
ATOM      9  C   UNL     1       5.146   5.855  16.419  0.00  0.00    +0.000 A 
ATOM     10  C   UNL     1       5.149   4.522  16.807  0.00  0.00    +0.000 A 
ATOM     11  C   UNL     1       4.265   4.079  17.791  0.00  0.00    +0.000 A 
ATOM     12  C   UNL     1       3.353   4.962  18.402  0.00  0.00    +0.000 A 
BRANCH  12  13
ATOM     13  C   UNL     1       2.375   4.355  19.352  0.00  0.00    +0.000 A 
ATOM     14  N   UNL     1       2.632   4.092  20.650  0.00  0.00    +0.000 NA
ATOM     15  N   UNL     1       1.527   3.535  21.120  0.00  0.00    +0.000 NA
ATOM     16  N   UNL     1       0.641   3.442  20.144  0.00  0.00    +0.000 N 
ATOM     17  N   UNL     1       1.140   3.925  19.023  0.00  0.00    +0.000 NA
ATOM     18  H   UNL     1      -0.313   3.030  20.239  0.00  0.00    +0.000 HD
ENDBRANCH  12  13
ENDBRANCH   4   7
BRANCH   1  19
ATOM     19  C   UNL     1      -0.046  10.448  20.445  0.00  0.00    +0.000 C 
BRANCH  19  20
ATOM     20  N   UNL     1      -0.461  11.484  19.486  0.00  0.00    +0.000 N 
ATOM     21  C   UNL     1       0.554  12.434  19.080  0.00  0.00    +0.000 C 
BRANCH  20  26
ATOM     22  C   UNL     1      -2.817  10.379  16.924  0.00  0.00    +0.000 A 
ATOM     23  N   UNL     1      -3.973  10.997  17.235  0.00  0.00    +0.000 NA
ATOM     24  C   UNL     1      -4.068  11.801  18.314  0.00  0.00    +0.000 A 
ATOM     25  C   UNL     1      -2.959  12.039  19.159  0.00  0.00    +0.000 A 
ATOM     26  C   UNL     1      -1.729  11.368  18.801  0.00  0.00    +0.000 A 
ATOM     27  N   UNL     1      -1.731  10.562  17.704  0.00  0.00    +0.000 NA
BRANCH  25  28
ATOM     28  C   UNL     1      -3.182  12.914  20.374  0.00  0.00    +0.000 C 
ATOM     29  O   UNL     1      -3.475  12.423  21.446  0.00  0.00    +0.000 OA
BRANCH  28  30
ATOM     30  O   UNL     1      -3.140  14.270  20.320  0.00  0.00    +0.000 OA
ATOM     31  H   UNL     1      -3.867  14.859  20.092  0.00  0.00    +0.000 HD
ENDBRANCH  28  30
ENDBRANCH  25  28
BRANCH  22  32
ATOM     32  C   UNL     1      -2.719   9.575  15.668  0.00  0.00    +0.000 C 
BRANCH  32  33
ATOM     33  C   UNL     1      -3.687  10.186  14.650  0.00  0.00    +0.000 C 
BRANCH  33  35
ATOM     34  C   UNL     1      -4.606   9.887  12.347  0.00  0.00    +0.000 C 
ATOM     35  C   UNL     1      -3.350   9.803  13.212  0.00  0.00    +0.000 C 
ENDBRANCH  33  35
ENDBRANCH  32  33
ENDBRANCH  22  32
ENDBRANCH  20  26
ENDBRANCH  19  20
ENDBRANCH   1  19
TORSDOF 10
ENDMDL
MODEL 2
REMARK VINA RESULT:      -8.6      3.751      5.173
REMARK  Name = 
REMARK  12 active torsions:
REMARK  status: ('A' for Active; 'I' for Inactive)
REMARK    1  A    between atoms: C_1  and  C_2
REMARK    2  A    between atoms: C_2  and  C_3
REMARK    3  A    between atoms: C_3  and  C_4
REMARK    4  A    between atoms: C_4  and  C_5
REMARK    5  A    between atoms: C_8  and  C_9
REMARK    6  A    between atoms: C_9  and  O_11
REMARK    7  A    between atoms: C_12  and  N_13
REMARK    8  A    between atoms: N_13  and  C_14
REMARK    9  A    between atoms: N_13  and  C_15
REMARK   10  A    between atoms: C_15  and  C_16
REMARK   11  A    between atoms: C_19  and  C_20
REMARK   12  A    between atoms: C_25  and  C_26
REMARK                            x       y       z     vdW  Elec       q    Type
REMARK                         _______ _______ _______ _____ _____    ______ ____
ROOT
ATOM      1  C   UNL     1      -0.515  13.771  19.561  0.00  0.00    +0.000 A 
ATOM      2  C   UNL     1       0.751  13.478  20.087  0.00  0.00    +0.000 A 
ATOM      3  C   UNL     1       1.287  12.194  19.982  0.00  0.00    +0.000 A 
ATOM      4  C   UNL     1       0.574  11.160  19.342  0.00  0.00    +0.000 A 
ATOM      5  C   UNL     1      -0.721  11.457  18.864  0.00  0.00    +0.000 A 
ATOM      6  C   UNL     1      -1.253  12.743  18.962  0.00  0.00    +0.000 A 
ENDROOT
BRANCH   4   7
ATOM      7  C   UNL     1       1.172   9.783  19.221  0.00  0.00    +0.000 A 
ATOM      8  C   UNL     1       1.672   9.388  17.958  0.00  0.00    +0.000 A 
ATOM      9  C   UNL     1       2.286   8.152  17.771  0.00  0.00    +0.000 A 
ATOM     10  C   UNL     1       2.429   7.277  18.838  0.00  0.00    +0.000 A 
ATOM     11  C   UNL     1       1.945   7.626  20.098  0.00  0.00    +0.000 A 
ATOM     12  C   UNL     1       1.300   8.860  20.314  0.00  0.00    +0.000 A 
BRANCH  12  13
ATOM     13  C   UNL     1       0.716   9.077  21.671  0.00  0.00    +0.000 A 
ATOM     14  N   UNL     1       1.420   9.469  22.752  0.00  0.00    +0.000 NA
ATOM     15  N   UNL     1       0.546   9.510  23.745  0.00  0.00    +0.000 NA
ATOM     16  N   UNL     1      -0.639   9.136  23.292  0.00  0.00    +0.000 N 
ATOM     17  N   UNL     1      -0.568   8.840  22.008  0.00  0.00    +0.000 NA
ATOM     18  H   UNL     1      -1.506   9.067  23.868  0.00  0.00    +0.000 HD
ENDBRANCH  12  13
ENDBRANCH   4   7
BRANCH   1  19
ATOM     19  C   UNL     1      -1.108  15.156  19.678  0.00  0.00    +0.000 C 
BRANCH  19  20
ATOM     20  N   UNL     1      -1.857  15.348  20.929  0.00  0.00    +0.000 N 
ATOM     21  C   UNL     1      -1.807  16.671  21.518  0.00  0.00    +0.000 C 
BRANCH  20  26
ATOM     22  C   UNL     1      -5.013  13.516  21.071  0.00  0.00    +0.000 A 
ATOM     23  N   UNL     1      -4.830  12.597  22.040  0.00  0.00    +0.000 NA
ATOM     24  C   UNL     1      -3.656  12.500  22.699  0.00  0.00    +0.000 A 
ATOM     25  C   UNL     1      -2.573  13.362  22.412  0.00  0.00    +0.000 A 
ATOM     26  C   UNL     1      -2.796  14.341  21.372  0.00  0.00    +0.000 A 
ATOM     27  N   UNL     1      -4.007  14.356  20.749  0.00  0.00    +0.000 NA
BRANCH  25  28
ATOM     28  C   UNL     1      -1.283  13.137  23.169  0.00  0.00    +0.000 C 
ATOM     29  O   UNL     1      -0.825  14.005  23.887  0.00  0.00    +0.000 OA
BRANCH  28  30
ATOM     30  O   UNL     1      -0.540  12.008  23.037  0.00  0.00    +0.000 OA
ATOM     31  H   UNL     1      -0.813  11.187  22.613  0.00  0.00    +0.000 HD
ENDBRANCH  28  30
ENDBRANCH  25  28
BRANCH  22  32
ATOM     32  C   UNL     1      -6.355  13.661  20.430  0.00  0.00    +0.000 C 
BRANCH  32  33
ATOM     33  C   UNL     1      -6.456  12.610  19.321  0.00  0.00    +0.000 C 
BRANCH  33  35
ATOM     34  C   UNL     1      -6.889  14.728  18.071  0.00  0.00    +0.000 C 
ATOM     35  C   UNL     1      -6.644  13.226  17.939  0.00  0.00    +0.000 C 
ENDBRANCH  33  35
ENDBRANCH  32  33
ENDBRANCH  22  32
ENDBRANCH  20  26
ENDBRANCH  19  20
ENDBRANCH   1  19
TORSDOF 10
ENDMDL
MODEL 3
REMARK VINA RESULT:      -8.5      1.040      1.606
REMARK  Name = 
REMARK  12 active torsions:
REMARK  status: ('A' for Active; 'I' for Inactive)
REMARK    1  A    between atoms: C_1  and  C_2
REMARK    2  A    between atoms: C_2  and  C_3
REMARK    3  A    between atoms: C_3  and  C_4
REMARK    4  A    between atoms: C_4  and  C_5
REMARK    5  A    between atoms: C_8  and  C_9
REMARK    6  A    between atoms: C_9  and  O_11
REMARK    7  A    between atoms: C_12  and  N_13
REMARK    8  A    between atoms: N_13  and  C_14
REMARK    9  A    between atoms: N_13  and  C_15
REMARK   10  A    between atoms: C_15  and  C_16
REMARK   11  A    between atoms: C_19  and  C_20
REMARK   12  A    between atoms: C_25  and  C_26
REMARK                            x       y       z     vdW  Elec       q    Type
REMARK                         _______ _______ _______ _____ _____    ______ ____
ROOT
ATOM      1  C   UNL     1       1.412   8.753  19.699  0.00  0.00    +0.000 A 
ATOM      2  C   UNL     1       1.964   7.597  20.270  0.00  0.00    +0.000 A 
ATOM      3  C   UNL     1       2.746   6.730  19.507  0.00  0.00    +0.000 A 
ATOM      4  C   UNL     1       3.007   6.993  18.147  0.00  0.00    +0.000 A 
ATOM      5  C   UNL     1       2.402   8.133  17.574  0.00  0.00    +0.000 A 
ATOM      6  C   UNL     1       1.626   9.004  18.340  0.00  0.00    +0.000 A 
ENDROOT
BRANCH   4   7
ATOM      7  C   UNL     1       3.867   6.056  17.340  0.00  0.00    +0.000 A 
ATOM      8  C   UNL     1       4.917   6.618  16.574  0.00  0.00    +0.000 A 
ATOM      9  C   UNL     1       5.790   5.820  15.840  0.00  0.00    +0.000 A 
ATOM     10  C   UNL     1       5.650   4.439  15.853  0.00  0.00    +0.000 A 
ATOM     11  C   UNL     1       4.626   3.848  16.591  0.00  0.00    +0.000 A 
ATOM     12  C   UNL     1       3.713   4.629  17.326  0.00  0.00    +0.000 A 
BRANCH  12  13
ATOM     13  C   UNL     1       2.587   3.898  17.979  0.00  0.00    +0.000 A 
ATOM     14  N   UNL     1       1.325   3.858  17.505  0.00  0.00    +0.000 NA
ATOM     15  N   UNL     1       0.642   3.143  18.384  0.00  0.00    +0.000 NA
ATOM     16  N   UNL     1       1.450   2.780  19.366  0.00  0.00    +0.000 N 
ATOM     17  N   UNL     1       2.665   3.248  19.158  0.00  0.00    +0.000 NA
ATOM     18  H   UNL     1       1.166   2.218  20.197  0.00  0.00    +0.000 HD
ENDBRANCH  12  13
ENDBRANCH   4   7
BRANCH   1  19
ATOM     19  C   UNL     1       0.556   9.694  20.515  0.00  0.00    +0.000 C 
BRANCH  19  20
ATOM     20  N   UNL     1       0.223  10.930  19.790  0.00  0.00    +0.000 N 
ATOM     21  C   UNL     1       1.327  11.813  19.474  0.00  0.00    +0.000 C 
BRANCH  20  26
ATOM     22  C   UNL     1      -2.477  10.420  17.385  0.00  0.00    +0.000 A 
ATOM     23  N   UNL     1      -3.465  11.235  17.803  0.00  0.00    +0.000 NA
ATOM     24  C   UNL     1      -3.325  11.992  18.912  0.00  0.00    +0.000 A 
ATOM     25  C   UNL     1      -2.134  11.973  19.675  0.00  0.00    +0.000 A 
ATOM     26  C   UNL     1      -1.088  11.093  19.202  0.00  0.00    +0.000 A 
ATOM     27  N   UNL     1      -1.325  10.354  18.083  0.00  0.00    +0.000 NA
BRANCH  25  28
ATOM     28  C   UNL     1      -2.096  12.817  20.930  0.00  0.00    +0.000 C 
ATOM     29  O   UNL     1      -1.261  13.691  21.064  0.00  0.00    +0.000 OA
BRANCH  28  30
ATOM     30  O   UNL     1      -2.924  12.604  21.984  0.00  0.00    +0.000 OA
ATOM     31  H   UNL     1      -3.595  13.210  22.320  0.00  0.00    +0.000 HD
ENDBRANCH  28  30
ENDBRANCH  25  28
BRANCH  22  32
ATOM     32  C   UNL     1      -2.628   9.670  16.101  0.00  0.00    +0.000 C 
BRANCH  32  33
ATOM     33  C   UNL     1      -3.159  10.651  15.051  0.00  0.00    +0.000 C 
BRANCH  33  35
ATOM     34  C   UNL     1      -3.185   9.652  12.762  0.00  0.00    +0.000 C 
ATOM     35  C   UNL     1      -4.026   9.973  13.995  0.00  0.00    +0.000 C 
ENDBRANCH  33  35
ENDBRANCH  32  33
ENDBRANCH  22  32
ENDBRANCH  20  26
ENDBRANCH  19  20
ENDBRANCH   1  19
TORSDOF 10
ENDMDL
MODEL 4
REMARK VINA RESULT:      -8.5      3.425      5.487
REMARK  Name = 
REMARK  12 active torsions:
REMARK  status: ('A' for Active; 'I' for Inactive)
REMARK    1  A    between atoms: C_1  and  C_2
REMARK    2  A    between atoms: C_2  and  C_3
REMARK    3  A    between atoms: C_3  and  C_4
REMARK    4  A    between atoms: C_4  and  C_5
REMARK    5  A    between atoms: C_8  and  C_9
REMARK    6  A    between atoms: C_9  and  O_11
REMARK    7  A    between atoms: C_12  and  N_13
REMARK    8  A    between atoms: N_13  and  C_14
REMARK    9  A    between atoms: N_13  and  C_15
REMARK   10  A    between atoms: C_15  and  C_16
REMARK   11  A    between atoms: C_19  and  C_20
REMARK   12  A    between atoms: C_25  and  C_26
REMARK                            x       y       z     vdW  Elec       q    Type
REMARK                         _______ _______ _______ _____ _____    ______ ____
ROOT
ATOM      1  C   UNL     1       2.080   8.601  18.544  0.00  0.00    +0.000 A 
ATOM      2  C   UNL     1       1.795   8.291  19.882  0.00  0.00    +0.000 A 
ATOM      3  C   UNL     1       1.970   6.994  20.366  0.00  0.00    +0.000 A 
ATOM      4  C   UNL     1       2.442   5.964  19.527  0.00  0.00    +0.000 A 
ATOM      5  C   UNL     1       2.674   6.279  18.171  0.00  0.00    +0.000 A 
ATOM      6  C   UNL     1       2.506   7.578  17.690  0.00  0.00    +0.000 A 
ENDROOT
BRANCH   4   7
ATOM      7  C   UNL     1       2.642   4.572  20.068  0.00  0.00    +0.000 A 
ATOM      8  C   UNL     1       1.597   4.005  20.836  0.00  0.00    +0.000 A 
ATOM      9  C   UNL     1       1.678   2.706  21.330  0.00  0.00    +0.000 A 
ATOM     10  C   UNL     1       2.798   1.929  21.067  0.00  0.00    +0.000 A 
ATOM     11  C   UNL     1       3.851   2.453  20.318  0.00  0.00    +0.000 A 
ATOM     12  C   UNL     1       3.808   3.771  19.822  0.00  0.00    +0.000 A 
BRANCH  12  13
ATOM     13  C   UNL     1       5.039   4.265  19.139  0.00  0.00    +0.000 A 
ATOM     14  N   UNL     1       5.310   4.089  17.829  0.00  0.00    +0.000 NA
ATOM     15  N   UNL     1       6.496   4.642  17.638  0.00  0.00    +0.000 NA
ATOM     16  N   UNL     1       6.942   5.117  18.789  0.00  0.00    +0.000 N 
ATOM     17  N   UNL     1       6.070   4.883  19.751  0.00  0.00    +0.000 NA
ATOM     18  H   UNL     1       7.860   5.594  18.925  0.00  0.00    +0.000 HD
ENDBRANCH  12  13
ENDBRANCH   4   7
BRANCH   1  19
ATOM     19  C   UNL     1       1.885  10.000  18.008  0.00  0.00    +0.000 C 
BRANCH  19  20
ATOM     20  N   UNL     1       0.639  10.621  18.485  0.00  0.00    +0.000 N 
ATOM     21  C   UNL     1      -0.596  10.095  17.941  0.00  0.00    +0.000 C 
BRANCH  20  26
ATOM     22  C   UNL     1      -0.250  11.869  21.800  0.00  0.00    +0.000 A 
ATOM     23  N   UNL     1       0.435  13.022  21.925  0.00  0.00    +0.000 NA
ATOM     24  C   UNL     1       1.251  13.461  20.943  0.00  0.00    +0.000 A 
ATOM     25  C   UNL     1       1.414  12.739  19.739  0.00  0.00    +0.000 A 
ATOM     26  C   UNL     1       0.664  11.507  19.628  0.00  0.00    +0.000 A 
ATOM     27  N   UNL     1      -0.121  11.134  20.675  0.00  0.00    +0.000 NA
BRANCH  25  28
ATOM     28  C   UNL     1       2.391  13.287  18.722  0.00  0.00    +0.000 C 
ATOM     29  O   UNL     1       3.381  13.895  19.079  0.00  0.00    +0.000 OA
BRANCH  28  30
ATOM     30  O   UNL     1       2.186  13.198  17.383  0.00  0.00    +0.000 OA
ATOM     31  H   UNL     1       2.608  12.580  16.776  0.00  0.00    +0.000 HD
ENDBRANCH  28  30
ENDBRANCH  25  28
BRANCH  22  32
ATOM     32  C   UNL     1      -1.218  11.462  22.863  0.00  0.00    +0.000 C 
BRANCH  32  33
ATOM     33  C   UNL     1      -2.030  12.702  23.250  0.00  0.00    +0.000 C 
BRANCH  33  35
ATOM     34  C   UNL     1      -4.197  12.597  24.488  0.00  0.00    +0.000 C 
ATOM     35  C   UNL     1      -3.534  12.488  23.116  0.00  0.00    +0.000 C 
ENDBRANCH  33  35
ENDBRANCH  32  33
ENDBRANCH  22  32
ENDBRANCH  20  26
ENDBRANCH  19  20
ENDBRANCH   1  19
TORSDOF 10
ENDMDL
MODEL 5
REMARK VINA RESULT:      -8.5      2.696      4.590
REMARK  Name = 
REMARK  12 active torsions:
REMARK  status: ('A' for Active; 'I' for Inactive)
REMARK    1  A    between atoms: C_1  and  C_2
REMARK    2  A    between atoms: C_2  and  C_3
REMARK    3  A    between atoms: C_3  and  C_4
REMARK    4  A    between atoms: C_4  and  C_5
REMARK    5  A    between atoms: C_8  and  C_9
REMARK    6  A    between atoms: C_9  and  O_11
REMARK    7  A    between atoms: C_12  and  N_13
REMARK    8  A    between atoms: N_13  and  C_14
REMARK    9  A    between atoms: N_13  and  C_15
REMARK   10  A    between atoms: C_15  and  C_16
REMARK   11  A    between atoms: C_19  and  C_20
REMARK   12  A    between atoms: C_25  and  C_26
REMARK                            x       y       z     vdW  Elec       q    Type
REMARK                         _______ _______ _______ _____ _____    ______ ____
ROOT
ATOM      1  C   UNL     1       1.334   8.602  19.771  0.00  0.00    +0.000 A 
ATOM      2  C   UNL     1       1.668   8.919  18.446  0.00  0.00    +0.000 A 
ATOM      3  C   UNL     1       2.485   8.074  17.695  0.00  0.00    +0.000 A 
ATOM      4  C   UNL     1       2.993   6.879  18.245  0.00  0.00    +0.000 A 
ATOM      5  C   UNL     1       2.692   6.601  19.596  0.00  0.00    +0.000 A 
ATOM      6  C   UNL     1       1.868   7.442  20.343  0.00  0.00    +0.000 A 
ENDROOT
BRANCH   4   7
ATOM      7  C   UNL     1       3.861   5.968  17.417  0.00  0.00    +0.000 A 
ATOM      8  C   UNL     1       4.866   6.561  16.616  0.00  0.00    +0.000 A 
ATOM      9  C   UNL     1       5.745   5.790  15.860  0.00  0.00    +0.000 A 
ATOM     10  C   UNL     1       5.656   4.405  15.886  0.00  0.00    +0.000 A 
ATOM     11  C   UNL     1       4.677   3.783  16.659  0.00  0.00    +0.000 A 
ATOM     12  C   UNL     1       3.759   4.536  17.418  0.00  0.00    +0.000 A 
BRANCH  12  13
ATOM     13  C   UNL     1       2.681   3.770  18.109  0.00  0.00    +0.000 A 
ATOM     14  N   UNL     1       2.864   3.019  19.214  0.00  0.00    +0.000 NA
ATOM     15  N   UNL     1       1.680   2.492  19.482  0.00  0.00    +0.000 NA
ATOM     16  N   UNL     1       0.814   2.888  18.564  0.00  0.00    +0.000 N 
ATOM     17  N   UNL     1       1.405   3.670  17.682  0.00  0.00    +0.000 NA
ATOM     18  H   UNL     1      -0.190   2.610  18.530  0.00  0.00    +0.000 HD
ENDBRANCH  12  13
ENDBRANCH   4   7
BRANCH   1  19
ATOM     19  C   UNL     1       0.457   9.516  20.595  0.00  0.00    +0.000 C 
BRANCH  19  20
ATOM     20  N   UNL     1       0.010  10.700  19.845  0.00  0.00    +0.000 N 
ATOM     21  C   UNL     1      -1.218  10.562  19.089  0.00  0.00    +0.000 C 
BRANCH  20  26
ATOM     22  C   UNL     1       2.248  13.525  19.260  0.00  0.00    +0.000 A 
ATOM     23  N   UNL     1       2.034  14.352  20.302  0.00  0.00    +0.000 NA
ATOM     24  C   UNL     1       1.129  14.052  21.258  0.00  0.00    +0.000 A 
ATOM     25  C   UNL     1       0.375  12.857  21.214  0.00  0.00    +0.000 A 
ATOM     26  C   UNL     1       0.627  11.985  20.087  0.00  0.00    +0.000 A 
ATOM     27  N   UNL     1       1.546  12.377  19.163  0.00  0.00    +0.000 NA
BRANCH  25  28
ATOM     28  C   UNL     1      -0.652  12.638  22.303  0.00  0.00    +0.000 C 
ATOM     29  O   UNL     1      -1.543  13.444  22.487  0.00  0.00    +0.000 OA
BRANCH  28  30
ATOM     30  O   UNL     1      -0.595  11.592  23.167  0.00  0.00    +0.000 OA
ATOM     31  H   UNL     1      -1.276  10.924  23.307  0.00  0.00    +0.000 HD
ENDBRANCH  28  30
ENDBRANCH  25  28
BRANCH  22  32
ATOM     32  C   UNL     1       3.326  13.839  18.273  0.00  0.00    +0.000 C 
BRANCH  32  33
ATOM     33  C   UNL     1       3.330  15.356  18.057  0.00  0.00    +0.000 C 
BRANCH  33  35
ATOM     34  C   UNL     1       5.810  15.072  17.988  0.00  0.00    +0.000 C 
ATOM     35  C   UNL     1       4.669  15.998  18.404  0.00  0.00    +0.000 C 
ENDBRANCH  33  35
ENDBRANCH  32  33
ENDBRANCH  22  32
ENDBRANCH  20  26
ENDBRANCH  19  20
ENDBRANCH   1  19
TORSDOF 10
ENDMDL
MODEL 6
REMARK VINA RESULT:      -8.5      2.702      4.363
REMARK  Name = 
REMARK  12 active torsions:
REMARK  status: ('A' for Active; 'I' for Inactive)
REMARK    1  A    between atoms: C_1  and  C_2
REMARK    2  A    between atoms: C_2  and  C_3
REMARK    3  A    between atoms: C_3  and  C_4
REMARK    4  A    between atoms: C_4  and  C_5
REMARK    5  A    between atoms: C_8  and  C_9
REMARK    6  A    between atoms: C_9  and  O_11
REMARK    7  A    between atoms: C_12  and  N_13
REMARK    8  A    between atoms: N_13  and  C_14
REMARK    9  A    between atoms: N_13  and  C_15
REMARK   10  A    between atoms: C_15  and  C_16
REMARK   11  A    between atoms: C_19  and  C_20
REMARK   12  A    between atoms: C_25  and  C_26
REMARK                            x       y       z     vdW  Elec       q    Type
REMARK                         _______ _______ _______ _____ _____    ______ ____
ROOT
ATOM      1  C   UNL     1       1.394   8.545  19.837  0.00  0.00    +0.000 A 
ATOM      2  C   UNL     1       1.764   8.934  18.541  0.00  0.00    +0.000 A 
ATOM      3  C   UNL     1       2.584   8.119  17.760  0.00  0.00    +0.000 A 
ATOM      4  C   UNL     1       3.059   6.885  18.248  0.00  0.00    +0.000 A 
ATOM      5  C   UNL     1       2.721   6.532  19.573  0.00  0.00    +0.000 A 
ATOM      6  C   UNL     1       1.894   7.343  20.351  0.00  0.00    +0.000 A 
ENDROOT
BRANCH   4   7
ATOM      7  C   UNL     1       3.931   6.009  17.388  0.00  0.00    +0.000 A 
ATOM      8  C   UNL     1       4.964   6.630  16.646  0.00  0.00    +0.000 A 
ATOM      9  C   UNL     1       5.847   5.889  15.866  0.00  0.00    +0.000 A 
ATOM     10  C   UNL     1       5.734   4.506  15.807  0.00  0.00    +0.000 A 
ATOM     11  C   UNL     1       4.726   3.858  16.518  0.00  0.00    +0.000 A 
ATOM     12  C   UNL     1       3.804   4.581  17.300  0.00  0.00    +0.000 A 
BRANCH  12  13
ATOM     13  C   UNL     1       2.696   3.796  17.920  0.00  0.00    +0.000 A 
ATOM     14  N   UNL     1       1.422   3.790  17.478  0.00  0.00    +0.000 NA
ATOM     15  N   UNL     1       0.764   3.003  18.313  0.00  0.00    +0.000 NA
ATOM     16  N   UNL     1       1.598   2.564  19.240  0.00  0.00    +0.000 N 
ATOM     17  N   UNL     1       2.807   3.052  19.040  0.00  0.00    +0.000 NA
ATOM     18  H   UNL     1       1.337   1.934  20.030  0.00  0.00    +0.000 HD
ENDBRANCH  12  13
ENDBRANCH   4   7
BRANCH   1  19
ATOM     19  C   UNL     1       0.513   9.424  20.695  0.00  0.00    +0.000 C 
BRANCH  19  20
ATOM     20  N   UNL     1       0.063  10.635  19.990  0.00  0.00    +0.000 N 
ATOM     21  C   UNL     1      -0.992  10.460  19.012  0.00  0.00    +0.000 C 
BRANCH  20  26
ATOM     22  C   UNL     1       2.069  13.682  20.145  0.00  0.00    +0.000 A 
ATOM     23  N   UNL     1       1.542  14.386  21.165  0.00  0.00    +0.000 NA
ATOM     24  C   UNL     1       0.481  13.923  21.859  0.00  0.00    +0.000 A 
ATOM     25  C   UNL     1      -0.116  12.677  21.556  0.00  0.00    +0.000 A 
ATOM     26  C   UNL     1       0.473  11.939  20.460  0.00  0.00    +0.000 A 
ATOM     27  N   UNL     1       1.531  12.492  19.805  0.00  0.00    +0.000 NA
BRANCH  25  28
ATOM     28  C   UNL     1      -1.333  12.272  22.357  0.00  0.00    +0.000 C 
ATOM     29  O   UNL     1      -1.214  11.648  23.394  0.00  0.00    +0.000 OA
BRANCH  28  30
ATOM     30  O   UNL     1      -2.602  12.513  21.938  0.00  0.00    +0.000 OA
ATOM     31  H   UNL     1      -2.865  12.944  21.117  0.00  0.00    +0.000 HD
ENDBRANCH  28  30
ENDBRANCH  25  28
BRANCH  22  32
ATOM     32  C   UNL     1       3.303  14.177  19.461  0.00  0.00    +0.000 C 
BRANCH  32  33
ATOM     33  C   UNL     1       2.981  14.322  17.971  0.00  0.00    +0.000 C 
BRANCH  33  35
ATOM     34  C   UNL     1       2.689  16.795  17.783  0.00  0.00    +0.000 C 
ATOM     35  C   UNL     1       3.548  15.603  17.367  0.00  0.00    +0.000 C 
ENDBRANCH  33  35
ENDBRANCH  32  33
ENDBRANCH  22  32
ENDBRANCH  20  26
ENDBRANCH  19  20
ENDBRANCH   1  19
TORSDOF 10
ENDMDL
MODEL 7
REMARK VINA RESULT:      -8.4      2.714      4.777
REMARK  Name = 
REMARK  12 active torsions:
REMARK  status: ('A' for Active; 'I' for Inactive)
REMARK    1  A    between atoms: C_1  and  C_2
REMARK    2  A    between atoms: C_2  and  C_3
REMARK    3  A    between atoms: C_3  and  C_4
REMARK    4  A    between atoms: C_4  and  C_5
REMARK    5  A    between atoms: C_8  and  C_9
REMARK    6  A    between atoms: C_9  and  O_11
REMARK    7  A    between atoms: C_12  and  N_13
REMARK    8  A    between atoms: N_13  and  C_14
REMARK    9  A    between atoms: N_13  and  C_15
REMARK   10  A    between atoms: C_15  and  C_16
REMARK   11  A    between atoms: C_19  and  C_20
REMARK   12  A    between atoms: C_25  and  C_26
REMARK                            x       y       z     vdW  Elec       q    Type
REMARK                         _______ _______ _______ _____ _____    ______ ____
ROOT
ATOM      1  C   UNL     1       1.450   8.536  19.740  0.00  0.00    +0.000 A 
ATOM      2  C   UNL     1       1.948   7.331  20.256  0.00  0.00    +0.000 A 
ATOM      3  C   UNL     1       2.767   6.509  19.482  0.00  0.00    +0.000 A 
ATOM      4  C   UNL     1       3.120   6.867  18.166  0.00  0.00    +0.000 A 
ATOM      5  C   UNL     1       2.568   8.057  17.642  0.00  0.00    +0.000 A 
ATOM      6  C   UNL     1       1.756   8.883  18.419  0.00  0.00    +0.000 A 
ENDROOT
BRANCH   4   7
ATOM      7  C   UNL     1       4.018   5.978  17.347  0.00  0.00    +0.000 A 
ATOM      8  C   UNL     1       5.069   6.588  16.621  0.00  0.00    +0.000 A 
ATOM      9  C   UNL     1       5.976   5.835  15.880  0.00  0.00    +0.000 A 
ATOM     10  C   UNL     1       5.870   4.451  15.847  0.00  0.00    +0.000 A 
ATOM     11  C   UNL     1       4.846   3.812  16.545  0.00  0.00    +0.000 A 
ATOM     12  C   UNL     1       3.900   4.548  17.286  0.00  0.00    +0.000 A 
BRANCH  12  13
ATOM     13  C   UNL     1       2.780   3.770  17.893  0.00  0.00    +0.000 A 
ATOM     14  N   UNL     1       1.509   3.779  17.440  0.00  0.00    +0.000 NA
ATOM     15  N   UNL     1       0.836   2.994  18.266  0.00  0.00    +0.000 NA
ATOM     16  N   UNL     1       1.658   2.542  19.198  0.00  0.00    +0.000 N 
ATOM     17  N   UNL     1       2.873   3.019  19.009  0.00  0.00    +0.000 NA
ATOM     18  H   UNL     1       1.384   1.911  19.982  0.00  0.00    +0.000 HD
ENDBRANCH  12  13
ENDBRANCH   4   7
BRANCH   1  19
ATOM     19  C   UNL     1       0.555   9.430  20.567  0.00  0.00    +0.000 C 
BRANCH  19  20
ATOM     20  N   UNL     1       0.098  10.616  19.827  0.00  0.00    +0.000 N 
ATOM     21  C   UNL     1      -1.073  10.446  18.990  0.00  0.00    +0.000 C 
BRANCH  20  26
ATOM     22  C   UNL     1       2.206  13.574  19.453  0.00  0.00    +0.000 A 
ATOM     23  N   UNL     1       1.905  14.344  20.517  0.00  0.00    +0.000 NA
ATOM     24  C   UNL     1       0.977  13.959  21.419  0.00  0.00    +0.000 A 
ATOM     25  C   UNL     1       0.290  12.729  21.294  0.00  0.00    +0.000 A 
ATOM     26  C   UNL     1       0.635  11.920  20.146  0.00  0.00    +0.000 A 
ATOM     27  N   UNL     1       1.571  12.396  19.280  0.00  0.00    +0.000 NA
BRANCH  25  28
ATOM     28  C   UNL     1      -0.769  12.413  22.327  0.00  0.00    +0.000 C 
ATOM     29  O   UNL     1      -1.770  13.096  22.418  0.00  0.00    +0.000 OA
BRANCH  28  30
ATOM     30  O   UNL     1      -0.631  11.417  23.239  0.00  0.00    +0.000 OA
ATOM     31  H   UNL     1      -0.532  10.477  23.054  0.00  0.00    +0.000 HD
ENDBRANCH  28  30
ENDBRANCH  25  28
BRANCH  22  32
ATOM     32  C   UNL     1       3.307  13.983  18.529  0.00  0.00    +0.000 C 
BRANCH  32  33
ATOM     33  C   UNL     1       3.885  15.302  19.052  0.00  0.00    +0.000 C 
BRANCH  33  35
ATOM     34  C   UNL     1       5.926  14.563  17.816  0.00  0.00    +0.000 C 
ATOM     35  C   UNL     1       5.100  15.769  18.257  0.00  0.00    +0.000 C 
ENDBRANCH  33  35
ENDBRANCH  32  33
ENDBRANCH  22  32
ENDBRANCH  20  26
ENDBRANCH  19  20
ENDBRANCH   1  19
TORSDOF 10
ENDMDL
MODEL 8
REMARK VINA RESULT:      -8.4      3.150      4.600
REMARK  Name = 
REMARK  12 active torsions:
REMARK  status: ('A' for Active; 'I' for Inactive)
REMARK    1  A    between atoms: C_1  and  C_2
REMARK    2  A    between atoms: C_2  and  C_3
REMARK    3  A    between atoms: C_3  and  C_4
REMARK    4  A    between atoms: C_4  and  C_5
REMARK    5  A    between atoms: C_8  and  C_9
REMARK    6  A    between atoms: C_9  and  O_11
REMARK    7  A    between atoms: C_12  and  N_13
REMARK    8  A    between atoms: N_13  and  C_14
REMARK    9  A    between atoms: N_13  and  C_15
REMARK   10  A    between atoms: C_15  and  C_16
REMARK   11  A    between atoms: C_19  and  C_20
REMARK   12  A    between atoms: C_25  and  C_26
REMARK                            x       y       z     vdW  Elec       q    Type
REMARK                         _______ _______ _______ _____ _____    ______ ____
ROOT
ATOM      1  C   UNL     1       0.849   9.330  19.003  0.00  0.00    +0.000 A 
ATOM      2  C   UNL     1       1.464   9.203  17.748  0.00  0.00    +0.000 A 
ATOM      3  C   UNL     1       2.420   8.213  17.520  0.00  0.00    +0.000 A 
ATOM      4  C   UNL     1       2.791   7.313  18.540  0.00  0.00    +0.000 A 
ATOM      5  C   UNL     1       2.203   7.487  19.812  0.00  0.00    +0.000 A 
ATOM      6  C   UNL     1       1.240   8.472  20.037  0.00  0.00    +0.000 A 
ENDROOT
BRANCH   4   7
ATOM      7  C   UNL     1       3.814   6.240  18.275  0.00  0.00    +0.000 A 
ATOM      8  C   UNL     1       4.924   6.571  17.461  0.00  0.00    +0.000 A 
ATOM      9  C   UNL     1       5.941   5.654  17.208  0.00  0.00    +0.000 A 
ATOM     10  C   UNL     1       5.888   4.383  17.763  0.00  0.00    +0.000 A 
ATOM     11  C   UNL     1       4.808   4.016  18.566  0.00  0.00    +0.000 A 
ATOM     12  C   UNL     1       3.754   4.914  18.824  0.00  0.00    +0.000 A 
BRANCH  12  13
ATOM     13  C   UNL     1       2.595   4.375  19.595  0.00  0.00    +0.000 A 
ATOM     14  N   UNL     1       2.598   4.153  20.925  0.00  0.00    +0.000 NA
ATOM     15  N   UNL     1       1.405   3.651  21.200  0.00  0.00    +0.000 NA
ATOM     16  N   UNL     1       0.710   3.550  20.080  0.00  0.00    +0.000 N 
ATOM     17  N   UNL     1       1.425   3.974  19.056  0.00  0.00    +0.000 NA
ATOM     18  H   UNL     1      -0.260   3.173  20.009  0.00  0.00    +0.000 HD
ENDBRANCH  12  13
ENDBRANCH   4   7
BRANCH   1  19
ATOM     19  C   UNL     1      -0.181  10.404  19.262  0.00  0.00    +0.000 C 
BRANCH  19  20
ATOM     20  N   UNL     1       0.185  11.281  20.386  0.00  0.00    +0.000 N 
ATOM     21  C   UNL     1       1.462  11.958  20.289  0.00  0.00    +0.000 C 
BRANCH  20  26
ATOM     22  C   UNL     1      -2.468  13.254  21.936  0.00  0.00    +0.000 A 
ATOM     23  N   UNL     1      -2.723  12.627  23.101  0.00  0.00    +0.000 NA
ATOM     24  C   UNL     1      -2.060  11.505  23.450  0.00  0.00    +0.000 A 
ATOM     25  C   UNL     1      -1.064  10.944  22.618  0.00  0.00    +0.000 A 
ATOM     26  C   UNL     1      -0.806  11.639  21.376  0.00  0.00    +0.000 A 
ATOM     27  N   UNL     1      -1.535  12.755  21.099  0.00  0.00    +0.000 NA
BRANCH  25  28
ATOM     28  C   UNL     1      -0.416   9.655  23.075  0.00  0.00    +0.000 C 
ATOM     29  O   UNL     1       0.540   9.673  23.825  0.00  0.00    +0.000 OA
BRANCH  28  30
ATOM     30  O   UNL     1      -0.811   8.436  22.626  0.00  0.00    +0.000 OA
ATOM     31  H   UNL     1      -0.239   7.693  22.401  0.00  0.00    +0.000 HD
ENDBRANCH  28  30
ENDBRANCH  25  28
BRANCH  22  32
ATOM     32  C   UNL     1      -3.149  14.548  21.625  0.00  0.00    +0.000 C 
BRANCH  32  33
ATOM     33  C   UNL     1      -4.527  14.519  22.293  0.00  0.00    +0.000 C 
BRANCH  33  35
ATOM     34  C   UNL     1      -6.158  15.631  23.823  0.00  0.00    +0.000 C 
ATOM     35  C   UNL     1      -4.742  15.684  23.253  0.00  0.00    +0.000 C 
ENDBRANCH  33  35
ENDBRANCH  32  33
ENDBRANCH  22  32
ENDBRANCH  20  26
ENDBRANCH  19  20
ENDBRANCH   1  19
TORSDOF 10
ENDMDL
MODEL 9
REMARK VINA RESULT:      -8.4      1.535      2.160
REMARK  Name = 
REMARK  12 active torsions:
REMARK  status: ('A' for Active; 'I' for Inactive)
REMARK    1  A    between atoms: C_1  and  C_2
REMARK    2  A    between atoms: C_2  and  C_3
REMARK    3  A    between atoms: C_3  and  C_4
REMARK    4  A    between atoms: C_4  and  C_5
REMARK    5  A    between atoms: C_8  and  C_9
REMARK    6  A    between atoms: C_9  and  O_11
REMARK    7  A    between atoms: C_12  and  N_13
REMARK    8  A    between atoms: N_13  and  C_14
REMARK    9  A    between atoms: N_13  and  C_15
REMARK   10  A    between atoms: C_15  and  C_16
REMARK   11  A    between atoms: C_19  and  C_20
REMARK   12  A    between atoms: C_25  and  C_26
REMARK                            x       y       z     vdW  Elec       q    Type
REMARK                         _______ _______ _______ _____ _____    ______ ____
ROOT
ATOM      1  C   UNL     1       1.561   8.574  19.751  0.00  0.00    +0.000 A 
ATOM      2  C   UNL     1       2.100   7.395  20.287  0.00  0.00    +0.000 A 
ATOM      3  C   UNL     1       2.855   6.531  19.493  0.00  0.00    +0.000 A 
ATOM      4  C   UNL     1       3.099   6.820  18.135  0.00  0.00    +0.000 A 
ATOM      5  C   UNL     1       2.506   7.983  17.597  0.00  0.00    +0.000 A 
ATOM      6  C   UNL     1       1.758   8.851  18.393  0.00  0.00    +0.000 A 
ENDROOT
BRANCH   4   7
ATOM      7  C   UNL     1       3.929   5.886  17.294  0.00  0.00    +0.000 A 
ATOM      8  C   UNL     1       4.898   6.456  16.434  0.00  0.00    +0.000 A 
ATOM      9  C   UNL     1       5.742   5.663  15.660  0.00  0.00    +0.000 A 
ATOM     10  C   UNL     1       5.652   4.280  15.726  0.00  0.00    +0.000 A 
ATOM     11  C   UNL     1       4.707   3.680  16.556  0.00  0.00    +0.000 A 
ATOM     12  C   UNL     1       3.825   4.454  17.335  0.00  0.00    +0.000 A 
BRANCH  12  13
ATOM     13  C   UNL     1       2.777   3.709  18.093  0.00  0.00    +0.000 A 
ATOM     14  N   UNL     1       3.010   2.973  19.198  0.00  0.00    +0.000 NA
ATOM     15  N   UNL     1       1.837   2.461  19.534  0.00  0.00    +0.000 NA
ATOM     16  N   UNL     1       0.929   2.851  18.656  0.00  0.00    +0.000 N 
ATOM     17  N   UNL     1       1.480   3.614  17.732  0.00  0.00    +0.000 NA
ATOM     18  H   UNL     1      -0.079   2.582  18.677  0.00  0.00    +0.000 HD
ENDBRANCH  12  13
ENDBRANCH   4   7
BRANCH   1  19
ATOM     19  C   UNL     1       0.735   9.512  20.600  0.00  0.00    +0.000 C 
BRANCH  19  20
ATOM     20  N   UNL     1       0.529  10.822  19.963  0.00  0.00    +0.000 N 
ATOM     21  C   UNL     1       1.624  11.330  19.160  0.00  0.00    +0.000 C 
BRANCH  20  26
ATOM     22  C   UNL     1      -2.811  11.535  18.671  0.00  0.00    +0.000 A 
ATOM     23  N   UNL     1      -3.333  12.419  19.544  0.00  0.00    +0.000 NA
ATOM     24  C   UNL     1      -2.636  12.826  20.627  0.00  0.00    +0.000 A 
ATOM     25  C   UNL     1      -1.329  12.355  20.886  0.00  0.00    +0.000 A 
ATOM     26  C   UNL     1      -0.791  11.411  19.931  0.00  0.00    +0.000 A 
ATOM     27  N   UNL     1      -1.571  11.044  18.878  0.00  0.00    +0.000 NA
BRANCH  25  28
ATOM     28  C   UNL     1      -0.653  12.831  22.153  0.00  0.00    +0.000 C 
ATOM     29  O   UNL     1       0.397  13.442  22.105  0.00  0.00    +0.000 OA
BRANCH  28  30
ATOM     30  O   UNL     1      -1.131  12.547  23.392  0.00  0.00    +0.000 OA
ATOM     31  H   UNL     1      -1.740  11.837  23.624  0.00  0.00    +0.000 HD
ENDBRANCH  28  30
ENDBRANCH  25  28
BRANCH  22  32
ATOM     32  C   UNL     1      -3.569  11.180  17.433  0.00  0.00    +0.000 C 
BRANCH  32  33
ATOM     33  C   UNL     1      -3.120   9.782  16.999  0.00  0.00    +0.000 C 
BRANCH  33  35
ATOM     34  C   UNL     1      -3.686  10.218  14.606  0.00  0.00    +0.000 C 
ATOM     35  C   UNL     1      -2.596   9.747  15.567  0.00  0.00    +0.000 C 
ENDBRANCH  33  35
ENDBRANCH  32  33
ENDBRANCH  22  32
ENDBRANCH  20  26
ENDBRANCH  19  20
ENDBRANCH   1  19
TORSDOF 10
ENDMDL
