MODEL 1
REMARK VINA RESULT:      -8.3      0.000      0.000
REMARK  Name = 
REMARK  6 active torsions:
REMARK  status: ('A' for Active; 'I' for Inactive)
REMARK    1  A    between atoms: C_2  and  C_3
REMARK    2  A    between atoms: C_3  and  S_4
REMARK    3  A    between atoms: S_4  and  C_5
REMARK    4  A    between atoms: C_8  and  C_9
REMARK    5  A    between atoms: C_17  and  C_19
REMARK    6  A    between atoms: C_19  and  C_20
REMARK                            x       y       z     vdW  Elec       q    Type
REMARK                         _______ _______ _______ _____ _____    ______ ____
ROOT
ATOM      1  O   UNL     1       5.789   6.973  16.702  0.00  0.00    +0.000 OA
ATOM      2  C   UNL     1       6.768   7.286  17.419  0.00  0.00    +0.000 C 
ATOM      3  N   UNL     1       7.193   8.597  17.394  0.00  0.00    +0.000 N 
ATOM      4  C   UNL     1       8.278   9.158  18.081  0.00  0.00    +0.000 C 
ATOM      5  O   UNL     1       8.972   8.577  18.909  0.00  0.00    +0.000 OA
ATOM      6  H   UNL     1       6.642   9.195  16.801  0.00  0.00    +0.000 HD
ENDROOT
BRANCH   2   7
ATOM      7  C   UNL     1       7.458   6.281  18.328  0.00  0.00    +0.000 C 
BRANCH   7   8
ATOM      8  S   UNL     1       7.709   4.668  17.539  0.00  0.00    +0.000 S 
BRANCH   8   9
ATOM      9  C   UNL     1       6.072   4.109  17.413  0.00  0.00    +0.000 A 
ATOM     10  N   UNL     1       5.492   3.778  16.280  0.00  0.00    +0.000 NA
ATOM     11  N   UNL     1       4.176   3.506  16.569  0.00  0.00    +0.000 NA
ATOM     12  C   UNL     1       4.037   3.675  17.869  0.00  0.00    +0.000 A 
ATOM     13  O   UNL     1       5.209   4.049  18.479  0.00  0.00    +0.000 OA
BRANCH  12  14
ATOM     14  C   UNL     1       2.824   3.589  18.674  0.00  0.00    +0.000 A 
ATOM     15  C   UNL     1       2.722   4.351  19.852  0.00  0.00    +0.000 A 
ATOM     16  C   UNL     1       1.615   4.227  20.696  0.00  0.00    +0.000 A 
ATOM     17  C   UNL     1       0.591   3.342  20.373  0.00  0.00    +0.000 A 
ATOM     18  C   UNL     1       0.666   2.594  19.198  0.00  0.00    +0.000 A 
ATOM     19  C   UNL     1       1.771   2.722  18.348  0.00  0.00    +0.000 A 
ENDBRANCH  12  14
ENDBRANCH   8   9
ENDBRANCH   7   8
ENDBRANCH   2   7
BRANCH   4  20
ATOM     20  C   UNL     1       8.520  10.616  17.802  0.00  0.00    +0.000 C 
BRANCH  20  21
ATOM     21  C   UNL     1       9.653  11.187  18.622  0.00  0.00    +0.000 A 
ATOM     22  C   UNL     1       9.482  11.501  19.980  0.00  0.00    +0.000 A 
ATOM     23  C   UNL     1      10.564  11.956  20.741  0.00  0.00    +0.000 A 
ATOM     24  C   UNL     1      11.825  12.084  20.160  0.00  0.00    +0.000 A 
ATOM     25  C   UNL     1      12.002  11.777  18.813  0.00  0.00    +0.000 A 
ATOM     26  C   UNL     1      10.920  11.339  18.048  0.00  0.00    +0.000 A 
ENDBRANCH  20  21
ENDBRANCH   4  20
TORSDOF 6
ENDMDL
MODEL 2
REMARK VINA RESULT:      -8.3      3.284      7.202
REMARK  Name = 
REMARK  6 active torsions:
REMARK  status: ('A' for Active; 'I' for Inactive)
REMARK    1  A    between atoms: C_2  and  C_3
REMARK    2  A    between atoms: C_3  and  S_4
REMARK    3  A    between atoms: S_4  and  C_5
REMARK    4  A    between atoms: C_8  and  C_9
REMARK    5  A    between atoms: C_17  and  C_19
REMARK    6  A    between atoms: C_19  and  C_20
REMARK                            x       y       z     vdW  Elec       q    Type
REMARK                         _______ _______ _______ _____ _____    ______ ____
ROOT
ATOM      1  O   UNL     1       0.657   3.043  18.010  0.00  0.00    +0.000 OA
ATOM      2  C   UNL     1       1.318   3.279  19.048  0.00  0.00    +0.000 C 
ATOM      3  N   UNL     1       1.216   4.534  19.608  0.00  0.00    +0.000 N 
ATOM      4  C   UNL     1       1.885   5.026  20.736  0.00  0.00    +0.000 C 
ATOM      5  O   UNL     1       2.608   4.367  21.477  0.00  0.00    +0.000 OA
ATOM      6  H   UNL     1       0.580   5.148  19.124  0.00  0.00    +0.000 HD
ENDROOT
BRANCH   2   7
ATOM      7  C   UNL     1       2.184   2.220  19.712  0.00  0.00    +0.000 C 
BRANCH   7   8
ATOM      8  S   UNL     1       3.505   1.606  18.633  0.00  0.00    +0.000 S 
BRANCH   8   9
ATOM      9  C   UNL     1       4.111   3.094  17.980  0.00  0.00    +0.000 A 
ATOM     10  N   UNL     1       3.828   3.541  16.776  0.00  0.00    +0.000 NA
ATOM     11  N   UNL     1       4.581   4.673  16.582  0.00  0.00    +0.000 NA
ATOM     12  C   UNL     1       5.272   4.857  17.690  0.00  0.00    +0.000 A 
ATOM     13  O   UNL     1       5.015   3.894  18.634  0.00  0.00    +0.000 OA
BRANCH  12  14
ATOM     14  C   UNL     1       6.282   5.870  17.976  0.00  0.00    +0.000 A 
ATOM     15  C   UNL     1       6.331   7.036  17.191  0.00  0.00    +0.000 A 
ATOM     16  C   UNL     1       7.338   7.987  17.376  0.00  0.00    +0.000 A 
ATOM     17  C   UNL     1       8.310   7.787  18.351  0.00  0.00    +0.000 A 
ATOM     18  C   UNL     1       8.265   6.646  19.153  0.00  0.00    +0.000 A 
ATOM     19  C   UNL     1       7.253   5.697  18.973  0.00  0.00    +0.000 A 
ENDBRANCH  12  14
ENDBRANCH   8   9
ENDBRANCH   7   8
ENDBRANCH   2   7
BRANCH   4  20
ATOM     20  C   UNL     1       1.600   6.465  21.068  0.00  0.00    +0.000 C 
BRANCH  20  21
ATOM     21  C   UNL     1       1.887   7.398  19.915  0.00  0.00    +0.000 A 
ATOM     22  C   UNL     1       2.697   6.998  18.840  0.00  0.00    +0.000 A 
ATOM     23  C   UNL     1       2.888   7.849  17.746  0.00  0.00    +0.000 A 
ATOM     24  C   UNL     1       2.260   9.093  17.708  0.00  0.00    +0.000 A 
ATOM     25  C   UNL     1       1.457   9.497  18.771  0.00  0.00    +0.000 A 
ATOM     26  C   UNL     1       1.279   8.658  19.871  0.00  0.00    +0.000 A 
ENDBRANCH  20  21
ENDBRANCH   4  20
TORSDOF 6
ENDMDL
MODEL 3
REMARK VINA RESULT:      -8.3      3.386      7.218
REMARK  Name = 
REMARK  6 active torsions:
REMARK  status: ('A' for Active; 'I' for Inactive)
REMARK    1  A    between atoms: C_2  and  C_3
REMARK    2  A    between atoms: C_3  and  S_4
REMARK    3  A    between atoms: S_4  and  C_5
REMARK    4  A    between atoms: C_8  and  C_9
REMARK    5  A    between atoms: C_17  and  C_19
REMARK    6  A    between atoms: C_19  and  C_20
REMARK                            x       y       z     vdW  Elec       q    Type
REMARK                         _______ _______ _______ _____ _____    ______ ____
ROOT
ATOM      1  O   UNL     1       0.045   2.456  19.275  0.00  0.00    +0.000 OA
ATOM      2  C   UNL     1       1.043   3.004  19.798  0.00  0.00    +0.000 C 
ATOM      3  N   UNL     1       0.923   4.316  20.201  0.00  0.00    +0.000 N 
ATOM      4  C   UNL     1       1.909   5.130  20.773  0.00  0.00    +0.000 C 
ATOM      5  O   UNL     1       3.032   4.762  21.102  0.00  0.00    +0.000 OA
ATOM      6  H   UNL     1       0.007   4.707  20.052  0.00  0.00    +0.000 HD
ENDROOT
BRANCH   2   7
ATOM      7  C   UNL     1       2.347   2.255  20.029  0.00  0.00    +0.000 C 
BRANCH   7   8
ATOM      8  S   UNL     1       3.131   1.706  18.490  0.00  0.00    +0.000 S 
BRANCH   8   9
ATOM      9  C   UNL     1       3.806   3.199  17.918  0.00  0.00    +0.000 A 
ATOM     10  N   UNL     1       3.499   3.752  16.765  0.00  0.00    +0.000 NA
ATOM     11  N   UNL     1       4.316   4.846  16.617  0.00  0.00    +0.000 NA
ATOM     12  C   UNL     1       5.067   4.901  17.699  0.00  0.00    +0.000 A 
ATOM     13  O   UNL     1       4.789   3.888  18.583  0.00  0.00    +0.000 OA
BRANCH  12  14
ATOM     14  C   UNL     1       6.153   5.824  18.008  0.00  0.00    +0.000 A 
ATOM     15  C   UNL     1       6.314   6.985  17.230  0.00  0.00    +0.000 A 
ATOM     16  C   UNL     1       7.395   7.847  17.437  0.00  0.00    +0.000 A 
ATOM     17  C   UNL     1       8.331   7.561  18.426  0.00  0.00    +0.000 A 
ATOM     18  C   UNL     1       8.175   6.425  19.221  0.00  0.00    +0.000 A 
ATOM     19  C   UNL     1       7.090   5.565  19.019  0.00  0.00    +0.000 A 
ENDBRANCH  12  14
ENDBRANCH   8   9
ENDBRANCH   7   8
ENDBRANCH   2   7
BRANCH   4  20
ATOM     20  C   UNL     1       1.480   6.544  21.056  0.00  0.00    +0.000 C 
BRANCH  20  21
ATOM     21  C   UNL     1       1.695   7.466  19.879  0.00  0.00    +0.000 A 
ATOM     22  C   UNL     1       1.145   8.758  19.857  0.00  0.00    +0.000 A 
ATOM     23  C   UNL     1       1.419   9.624  18.794  0.00  0.00    +0.000 A 
ATOM     24  C   UNL     1       2.257   9.216  17.756  0.00  0.00    +0.000 A 
ATOM     25  C   UNL     1       2.804   7.936  17.769  0.00  0.00    +0.000 A 
ATOM     26  C   UNL     1       2.518   7.065  18.821  0.00  0.00    +0.000 A 
ENDBRANCH  20  21
ENDBRANCH   4  20
TORSDOF 6
ENDMDL
MODEL 4
REMARK VINA RESULT:      -8.2      1.409      1.916
REMARK  Name = 
REMARK  6 active torsions:
REMARK  status: ('A' for Active; 'I' for Inactive)
REMARK    1  A    between atoms: C_2  and  C_3
REMARK    2  A    between atoms: C_3  and  S_4
REMARK    3  A    between atoms: S_4  and  C_5
REMARK    4  A    between atoms: C_8  and  C_9
REMARK    5  A    between atoms: C_17  and  C_19
REMARK    6  A    between atoms: C_19  and  C_20
REMARK                            x       y       z     vdW  Elec       q    Type
REMARK                         _______ _______ _______ _____ _____    ______ ____
ROOT
ATOM      1  O   UNL     1       8.140   5.777  19.054  0.00  0.00    +0.000 OA
ATOM      2  C   UNL     1       7.975   6.911  18.546  0.00  0.00    +0.000 C 
ATOM      3  N   UNL     1       8.680   7.967  19.081  0.00  0.00    +0.000 N 
ATOM      4  C   UNL     1       8.625   9.314  18.698  0.00  0.00    +0.000 C 
ATOM      5  O   UNL     1       8.002   9.756  17.739  0.00  0.00    +0.000 OA
ATOM      6  H   UNL     1       9.295   7.709  19.835  0.00  0.00    +0.000 HD
ENDROOT
BRANCH   2   7
ATOM      7  C   UNL     1       7.061   7.135  17.351  0.00  0.00    +0.000 C 
BRANCH   7   8
ATOM      8  S   UNL     1       7.131   5.786  16.143  0.00  0.00    +0.000 S 
BRANCH   8   9
ATOM      9  C   UNL     1       5.826   4.786  16.695  0.00  0.00    +0.000 A 
ATOM     10  N   UNL     1       5.447   3.674  16.104  0.00  0.00    +0.000 NA
ATOM     11  N   UNL     1       4.320   3.237  16.757  0.00  0.00    +0.000 NA
ATOM     12  C   UNL     1       4.086   4.106  17.720  0.00  0.00    +0.000 A 
ATOM     13  O   UNL     1       5.014   5.118  17.752  0.00  0.00    +0.000 OA
BRANCH  12  14
ATOM     14  C   UNL     1       2.968   4.150  18.655  0.00  0.00    +0.000 A 
ATOM     15  C   UNL     1       2.938   5.145  19.648  0.00  0.00    +0.000 A 
ATOM     16  C   UNL     1       1.931   5.166  20.618  0.00  0.00    +0.000 A 
ATOM     17  C   UNL     1       0.938   4.192  20.607  0.00  0.00    +0.000 A 
ATOM     18  C   UNL     1       0.940   3.210  19.617  0.00  0.00    +0.000 A 
ATOM     19  C   UNL     1       1.944   3.192  18.642  0.00  0.00    +0.000 A 
ENDBRANCH  12  14
ENDBRANCH   8   9
ENDBRANCH   7   8
ENDBRANCH   2   7
BRANCH   4  20
ATOM     20  C   UNL     1       9.482  10.242  19.516  0.00  0.00    +0.000 C 
BRANCH  20  21
ATOM     21  C   UNL     1       9.898  11.477  18.753  0.00  0.00    +0.000 A 
ATOM     22  C   UNL     1      11.033  11.473  17.926  0.00  0.00    +0.000 A 
ATOM     23  C   UNL     1      11.358  12.602  17.168  0.00  0.00    +0.000 A 
ATOM     24  C   UNL     1      10.547  13.735  17.216  0.00  0.00    +0.000 A 
ATOM     25  C   UNL     1       9.422  13.749  18.036  0.00  0.00    +0.000 A 
ATOM     26  C   UNL     1       9.105  12.629  18.805  0.00  0.00    +0.000 A 
ENDBRANCH  20  21
ENDBRANCH   4  20
TORSDOF 6
ENDMDL
MODEL 5
REMARK VINA RESULT:      -8.2      4.159      6.587
REMARK  Name = 
REMARK  6 active torsions:
REMARK  status: ('A' for Active; 'I' for Inactive)
REMARK    1  A    between atoms: C_2  and  C_3
REMARK    2  A    between atoms: C_3  and  S_4
REMARK    3  A    between atoms: S_4  and  C_5
REMARK    4  A    between atoms: C_8  and  C_9
REMARK    5  A    between atoms: C_17  and  C_19
REMARK    6  A    between atoms: C_19  and  C_20
REMARK                            x       y       z     vdW  Elec       q    Type
REMARK                         _______ _______ _______ _____ _____    ______ ____
ROOT
ATOM      1  O   UNL     1       4.838   1.959  20.507  0.00  0.00    +0.000 OA
ATOM      2  C   UNL     1       4.082   2.371  19.597  0.00  0.00    +0.000 C 
ATOM      3  N   UNL     1       4.663   2.891  18.460  0.00  0.00    +0.000 N 
ATOM      4  C   UNL     1       4.018   3.437  17.342  0.00  0.00    +0.000 C 
ATOM      5  O   UNL     1       2.806   3.445  17.154  0.00  0.00    +0.000 OA
ATOM      6  H   UNL     1       5.669   2.864  18.466  0.00  0.00    +0.000 HD
ENDROOT
BRANCH   2   7
ATOM      7  C   UNL     1       2.568   2.277  19.700  0.00  0.00    +0.000 C 
BRANCH   7   8
ATOM      8  S   UNL     1       1.893   3.209  21.100  0.00  0.00    +0.000 S 
BRANCH   8   9
ATOM      9  C   UNL     1       2.113   4.837  20.544  0.00  0.00    +0.000 A 
ATOM     10  N   UNL     1       3.166   5.251  19.875  0.00  0.00    +0.000 NA
ATOM     11  N   UNL     1       3.033   6.610  19.720  0.00  0.00    +0.000 NA
ATOM     12  C   UNL     1       1.895   6.942  20.296  0.00  0.00    +0.000 A 
ATOM     13  O   UNL     1       1.244   5.859  20.835  0.00  0.00    +0.000 OA
BRANCH  12  14
ATOM     14  C   UNL     1       1.320   8.269  20.481  0.00  0.00    +0.000 A 
ATOM     15  C   UNL     1       1.246   9.148  19.385  0.00  0.00    +0.000 A 
ATOM     16  C   UNL     1       0.786  10.459  19.542  0.00  0.00    +0.000 A 
ATOM     17  C   UNL     1       0.392  10.909  20.798  0.00  0.00    +0.000 A 
ATOM     18  C   UNL     1       0.439  10.045  21.892  0.00  0.00    +0.000 A 
ATOM     19  C   UNL     1       0.893   8.731  21.734  0.00  0.00    +0.000 A 
ENDBRANCH  12  14
ENDBRANCH   8   9
ENDBRANCH   7   8
ENDBRANCH   2   7
BRANCH   4  20
ATOM     20  C   UNL     1       4.937   3.974  16.279  0.00  0.00    +0.000 C 
BRANCH  20  21
ATOM     21  C   UNL     1       5.885   5.026  16.803  0.00  0.00    +0.000 A 
ATOM     22  C   UNL     1       5.628   6.394  16.618  0.00  0.00    +0.000 A 
ATOM     23  C   UNL     1       6.477   7.354  17.177  0.00  0.00    +0.000 A 
ATOM     24  C   UNL     1       7.576   6.958  17.939  0.00  0.00    +0.000 A 
ATOM     25  C   UNL     1       7.840   5.604  18.124  0.00  0.00    +0.000 A 
ATOM     26  C   UNL     1       7.003   4.645  17.553  0.00  0.00    +0.000 A 
ENDBRANCH  20  21
ENDBRANCH   4  20
TORSDOF 6
ENDMDL
MODEL 6
REMARK VINA RESULT:      -8.0      4.200      6.642
REMARK  Name = 
REMARK  6 active torsions:
REMARK  status: ('A' for Active; 'I' for Inactive)
REMARK    1  A    between atoms: C_2  and  C_3
REMARK    2  A    between atoms: C_3  and  S_4
REMARK    3  A    between atoms: S_4  and  C_5
REMARK    4  A    between atoms: C_8  and  C_9
REMARK    5  A    between atoms: C_17  and  C_19
REMARK    6  A    between atoms: C_19  and  C_20
REMARK                            x       y       z     vdW  Elec       q    Type
REMARK                         _______ _______ _______ _____ _____    ______ ____
ROOT
ATOM      1  O   UNL     1       4.729   1.843  20.480  0.00  0.00    +0.000 OA
ATOM      2  C   UNL     1       3.965   2.324  19.612  0.00  0.00    +0.000 C 
ATOM      3  N   UNL     1       4.531   2.835  18.465  0.00  0.00    +0.000 N 
ATOM      4  C   UNL     1       3.877   3.448  17.387  0.00  0.00    +0.000 C 
ATOM      5  O   UNL     1       2.661   3.536  17.250  0.00  0.00    +0.000 OA
ATOM      6  H   UNL     1       5.533   2.746  18.428  0.00  0.00    +0.000 HD
ENDROOT
BRANCH   2   7
ATOM      7  C   UNL     1       2.453   2.321  19.777  0.00  0.00    +0.000 C 
BRANCH   7   8
ATOM      8  S   UNL     1       1.894   3.275  21.214  0.00  0.00    +0.000 S 
BRANCH   8   9
ATOM      9  C   UNL     1       2.085   4.895  20.624  0.00  0.00    +0.000 A 
ATOM     10  N   UNL     1       3.096   5.295  19.884  0.00  0.00    +0.000 NA
ATOM     11  N   UNL     1       2.958   6.653  19.720  0.00  0.00    +0.000 NA
ATOM     12  C   UNL     1       1.860   6.997  20.362  0.00  0.00    +0.000 A 
ATOM     13  O   UNL     1       1.240   5.925  20.955  0.00  0.00    +0.000 OA
BRANCH  12  14
ATOM     14  C   UNL     1       1.304   8.330  20.566  0.00  0.00    +0.000 A 
ATOM     15  C   UNL     1       0.817   8.687  21.836  0.00  0.00    +0.000 A 
ATOM     16  C   UNL     1       0.195   9.921  22.049  0.00  0.00    +0.000 A 
ATOM     17  C   UNL     1       0.053  10.817  20.993  0.00  0.00    +0.000 A 
ATOM     18  C   UNL     1       0.550  10.488  19.732  0.00  0.00    +0.000 A 
ATOM     19  C   UNL     1       1.178   9.255  19.520  0.00  0.00    +0.000 A 
ENDBRANCH  12  14
ENDBRANCH   8   9
ENDBRANCH   7   8
ENDBRANCH   2   7
BRANCH   4  20
ATOM     20  C   UNL     1       4.784   3.953  16.299  0.00  0.00    +0.000 C 
BRANCH  20  21
ATOM     21  C   UNL     1       5.603   5.148  16.728  0.00  0.00    +0.000 A 
ATOM     22  C   UNL     1       6.952   5.012  17.092  0.00  0.00    +0.000 A 
ATOM     23  C   UNL     1       7.714   6.140  17.413  0.00  0.00    +0.000 A 
ATOM     24  C   UNL     1       7.142   7.411  17.356  0.00  0.00    +0.000 A 
ATOM     25  C   UNL     1       5.805   7.554  16.999  0.00  0.00    +0.000 A 
ATOM     26  C   UNL     1       5.038   6.428  16.695  0.00  0.00    +0.000 A 
ENDBRANCH  20  21
ENDBRANCH   4  20
TORSDOF 6
ENDMDL
MODEL 7
REMARK VINA RESULT:      -8.0      4.628      7.659
REMARK  Name = 
REMARK  6 active torsions:
REMARK  status: ('A' for Active; 'I' for Inactive)
REMARK    1  A    between atoms: C_2  and  C_3
REMARK    2  A    between atoms: C_3  and  S_4
REMARK    3  A    between atoms: S_4  and  C_5
REMARK    4  A    between atoms: C_8  and  C_9
REMARK    5  A    between atoms: C_17  and  C_19
REMARK    6  A    between atoms: C_19  and  C_20
REMARK                            x       y       z     vdW  Elec       q    Type
REMARK                         _______ _______ _______ _____ _____    ______ ____
ROOT
ATOM      1  O   UNL     1       5.641   3.704  15.289  0.00  0.00    +0.000 OA
ATOM      2  C   UNL     1       5.733   4.158  16.453  0.00  0.00    +0.000 C 
ATOM      3  N   UNL     1       5.267   3.379  17.490  0.00  0.00    +0.000 N 
ATOM      4  C   UNL     1       5.238   3.696  18.854  0.00  0.00    +0.000 C 
ATOM      5  O   UNL     1       5.728   4.700  19.361  0.00  0.00    +0.000 OA
ATOM      6  H   UNL     1       4.908   2.484  17.199  0.00  0.00    +0.000 HD
ENDROOT
BRANCH   2   7
ATOM      7  C   UNL     1       6.374   5.506  16.746  0.00  0.00    +0.000 C 
BRANCH   7   8
ATOM      8  S   UNL     1       5.376   6.905  16.169  0.00  0.00    +0.000 S 
BRANCH   8   9
ATOM      9  C   UNL     1       4.050   6.842  17.286  0.00  0.00    +0.000 A 
ATOM     10  N   UNL     1       3.279   5.791  17.457  0.00  0.00    +0.000 NA
ATOM     11  N   UNL     1       2.282   6.163  18.325  0.00  0.00    +0.000 NA
ATOM     12  C   UNL     1       2.514   7.421  18.643  0.00  0.00    +0.000 A 
ATOM     13  O   UNL     1       3.635   7.920  18.028  0.00  0.00    +0.000 OA
BRANCH  12  14
ATOM     14  C   UNL     1       1.711   8.314  19.471  0.00  0.00    +0.000 A 
ATOM     15  C   UNL     1       1.413   7.945  20.795  0.00  0.00    +0.000 A 
ATOM     16  C   UNL     1       0.572   8.730  21.591  0.00  0.00    +0.000 A 
ATOM     17  C   UNL     1       0.020   9.897  21.073  0.00  0.00    +0.000 A 
ATOM     18  C   UNL     1       0.323  10.290  19.769  0.00  0.00    +0.000 A 
ATOM     19  C   UNL     1       1.169   9.508  18.975  0.00  0.00    +0.000 A 
ENDBRANCH  12  14
ENDBRANCH   8   9
ENDBRANCH   7   8
ENDBRANCH   2   7
BRANCH   4  20
ATOM     20  C   UNL     1       4.613   2.650  19.736  0.00  0.00    +0.000 C 
BRANCH  20  21
ATOM     21  C   UNL     1       3.113   2.795  19.841  0.00  0.00    +0.000 A 
ATOM     22  C   UNL     1       2.527   3.612  20.820  0.00  0.00    +0.000 A 
ATOM     23  C   UNL     1       1.140   3.793  20.851  0.00  0.00    +0.000 A 
ATOM     24  C   UNL     1       0.332   3.177  19.897  0.00  0.00    +0.000 A 
ATOM     25  C   UNL     1       0.905   2.362  18.925  0.00  0.00    +0.000 A 
ATOM     26  C   UNL     1       2.286   2.167  18.902  0.00  0.00    +0.000 A 
ENDBRANCH  20  21
ENDBRANCH   4  20
TORSDOF 6
ENDMDL
MODEL 8
REMARK VINA RESULT:      -8.0      4.455      6.869
REMARK  Name = 
REMARK  6 active torsions:
REMARK  status: ('A' for Active; 'I' for Inactive)
REMARK    1  A    between atoms: C_2  and  C_3
REMARK    2  A    between atoms: C_3  and  S_4
REMARK    3  A    between atoms: S_4  and  C_5
REMARK    4  A    between atoms: C_8  and  C_9
REMARK    5  A    between atoms: C_17  and  C_19
REMARK    6  A    between atoms: C_19  and  C_20
REMARK                            x       y       z     vdW  Elec       q    Type
REMARK                         _______ _______ _______ _____ _____    ______ ____
ROOT
ATOM      1  O   UNL     1       0.180   2.755  18.376  0.00  0.00    +0.000 OA
ATOM      2  C   UNL     1       1.378   2.535  18.668  0.00  0.00    +0.000 C 
ATOM      3  N   UNL     1       2.344   2.918  17.762  0.00  0.00    +0.000 N 
ATOM      4  C   UNL     1       3.730   2.741  17.863  0.00  0.00    +0.000 C 
ATOM      5  O   UNL     1       4.321   2.298  18.842  0.00  0.00    +0.000 OA
ATOM      6  H   UNL     1       1.978   3.372  16.941  0.00  0.00    +0.000 HD
ENDROOT
BRANCH   2   7
ATOM      7  C   UNL     1       1.785   1.904  19.990  0.00  0.00    +0.000 C 
BRANCH   7   8
ATOM      8  S   UNL     1       1.739   3.071  21.377  0.00  0.00    +0.000 S 
BRANCH   8   9
ATOM      9  C   UNL     1       2.278   4.524  20.597  0.00  0.00    +0.000 A 
ATOM     10  N   UNL     1       3.530   4.767  20.276  0.00  0.00    +0.000 NA
ATOM     11  N   UNL     1       3.576   6.053  19.793  0.00  0.00    +0.000 NA
ATOM     12  C   UNL     1       2.342   6.514  19.838  0.00  0.00    +0.000 A 
ATOM     13  O   UNL     1       1.454   5.589  20.329  0.00  0.00    +0.000 OA
BRANCH  12  14
ATOM     14  C   UNL     1       1.856   7.850  19.513  0.00  0.00    +0.000 A 
ATOM     15  C   UNL     1       2.141   8.399  18.250  0.00  0.00    +0.000 A 
ATOM     16  C   UNL     1       1.772   9.710  17.934  0.00  0.00    +0.000 A 
ATOM     17  C   UNL     1       1.109  10.490  18.877  0.00  0.00    +0.000 A 
ATOM     18  C   UNL     1       0.799   9.954  20.127  0.00  0.00    +0.000 A 
ATOM     19  C   UNL     1       1.164   8.640  20.442  0.00  0.00    +0.000 A 
ENDBRANCH  12  14
ENDBRANCH   8   9
ENDBRANCH   7   8
ENDBRANCH   2   7
BRANCH   4  20
ATOM     20  C   UNL     1       4.520   3.223  16.677  0.00  0.00    +0.000 C 
BRANCH  20  21
ATOM     21  C   UNL     1       5.287   4.492  16.962  0.00  0.00    +0.000 A 
ATOM     22  C   UNL     1       6.568   4.454  17.537  0.00  0.00    +0.000 A 
ATOM     23  C   UNL     1       7.293   5.636  17.722  0.00  0.00    +0.000 A 
ATOM     24  C   UNL     1       6.756   6.858  17.320  0.00  0.00    +0.000 A 
ATOM     25  C   UNL     1       5.486   6.904  16.752  0.00  0.00    +0.000 A 
ATOM     26  C   UNL     1       4.754   5.729  16.582  0.00  0.00    +0.000 A 
ENDBRANCH  20  21
ENDBRANCH   4  20
TORSDOF 6
ENDMDL
MODEL 9
REMARK VINA RESULT:      -7.9      3.528      7.363
REMARK  Name = 
REMARK  6 active torsions:
REMARK  status: ('A' for Active; 'I' for Inactive)
REMARK    1  A    between atoms: C_2  and  C_3
REMARK    2  A    between atoms: C_3  and  S_4
REMARK    3  A    between atoms: S_4  and  C_5
REMARK    4  A    between atoms: C_8  and  C_9
REMARK    5  A    between atoms: C_17  and  C_19
REMARK    6  A    between atoms: C_19  and  C_20
REMARK                            x       y       z     vdW  Elec       q    Type
REMARK                         _______ _______ _______ _____ _____    ______ ____
ROOT
ATOM      1  O   UNL     1       2.281   4.065  21.801  0.00  0.00    +0.000 OA
ATOM      2  C   UNL     1       2.087   4.402  20.610  0.00  0.00    +0.000 C 
ATOM      3  N   UNL     1       2.428   5.683  20.237  0.00  0.00    +0.000 N 
ATOM      4  C   UNL     1       2.269   6.281  18.979  0.00  0.00    +0.000 C 
ATOM      5  O   UNL     1       1.884   5.709  17.964  0.00  0.00    +0.000 OA
ATOM      6  H   UNL     1       2.834   6.231  20.978  0.00  0.00    +0.000 HD
ENDROOT
BRANCH   2   7
ATOM      7  C   UNL     1       1.532   3.433  19.577  0.00  0.00    +0.000 C 
BRANCH   7   8
ATOM      8  S   UNL     1       2.742   2.191  19.048  0.00  0.00    +0.000 S 
BRANCH   8   9
ATOM      9  C   UNL     1       3.841   3.175  18.135  0.00  0.00    +0.000 A 
ATOM     10  N   UNL     1       4.119   2.985  16.864  0.00  0.00    +0.000 NA
ATOM     11  N   UNL     1       5.109   3.879  16.533  0.00  0.00    +0.000 NA
ATOM     12  C   UNL     1       5.367   4.571  17.625  0.00  0.00    +0.000 A 
ATOM     13  O   UNL     1       4.587   4.186  18.687  0.00  0.00    +0.000 OA
BRANCH  12  14
ATOM     14  C   UNL     1       6.388   5.591  17.836  0.00  0.00    +0.000 A 
ATOM     15  C   UNL     1       7.314   5.433  18.883  0.00  0.00    +0.000 A 
ATOM     16  C   UNL     1       8.249   6.430  19.175  0.00  0.00    +0.000 A 
ATOM     17  C   UNL     1       8.273   7.599  18.421  0.00  0.00    +0.000 A 
ATOM     18  C   UNL     1       7.376   7.763  17.365  0.00  0.00    +0.000 A 
ATOM     19  C   UNL     1       6.444   6.763  17.069  0.00  0.00    +0.000 A 
ENDBRANCH  12  14
ENDBRANCH   8   9
ENDBRANCH   7   8
ENDBRANCH   2   7
BRANCH   4  20
ATOM     20  C   UNL     1       2.692   7.722  18.902  0.00  0.00    +0.000 C 
BRANCH  20  21
ATOM     21  C   UNL     1       1.546   8.680  19.126  0.00  0.00    +0.000 A 
ATOM     22  C   UNL     1       0.923   9.334  18.051  0.00  0.00    +0.000 A 
ATOM     23  C   UNL     1      -0.186  10.157  18.273  0.00  0.00    +0.000 A 
ATOM     24  C   UNL     1      -0.692  10.319  19.562  0.00  0.00    +0.000 A 
ATOM     25  C   UNL     1      -0.079   9.677  20.633  0.00  0.00    +0.000 A 
ATOM     26  C   UNL     1       1.038   8.868  20.417  0.00  0.00    +0.000 A 
ENDBRANCH  20  21
ENDBRANCH   4  20
TORSDOF 6
ENDMDL
