MODEL 1
REMARK VINA RESULT:      -4.7      0.000      0.000
REMARK  Name = 
REMARK  7 active torsions:
REMARK  status: ('A' for Active; 'I' for Inactive)
REMARK    1  A    between atoms: C_1  and  O_2
REMARK    2  A    between atoms: O_2  and  C_3
REMARK    3  A    between atoms: C_3  and  C_5
REMARK    4  A    between atoms: C_5  and  N_6
REMARK    5  A    between atoms: C_7  and  C_9
REMARK    6  A    between atoms: C_9  and  C_10
REMARK    7  A    between atoms: C_9  and  S_11
REMARK                            x       y       z     vdW  Elec       q    Type
REMARK                         _______ _______ _______ _____ _____    ______ ____
ROOT
ATOM      1  N   UNL     1       6.090   3.854  18.363  0.00  0.00    +0.000 N 
ATOM      2  C   UNL     1       5.016   4.275  19.112  0.00  0.00    +0.000 C 
ATOM      3  O   UNL     1       4.880   5.451  19.444  0.00  0.00    +0.000 OA
ATOM      4  H   UNL     1       6.147   2.886  18.050  0.00  0.00    +0.000 HD
ENDROOT
BRANCH   2   5
ATOM      5  C   UNL     1       4.047   3.162  19.535  0.00  0.00    +0.000 C 
ATOM      6  C   UNL     1       2.836   3.720  20.274  0.00  0.00    +0.000 C 
BRANCH   5   7
ATOM      7  S   UNL     1       3.485   2.232  18.064  0.00  0.00    +0.000 S 
ATOM      8  H   UNL     1       4.573   1.452  17.959  0.00  0.00    +0.000 HD
ENDBRANCH   5   7
ENDBRANCH   2   5
BRANCH   1   9
ATOM      9  C   UNL     1       7.086   4.792  17.874  0.00  0.00    +0.000 C 
BRANCH   9  10
ATOM     10  C   UNL     1       7.018   4.914  16.361  0.00  0.00    +0.000 C 
ATOM     11  O   UNL     1       7.517   5.832  15.715  0.00  0.00    +0.000 OA
BRANCH  10  13
ATOM     12  C   UNL     1       6.156   3.934  14.415  0.00  0.00    +0.000 C 
ATOM     13  O   UNL     1       6.332   3.864  15.832  0.00  0.00    +0.000 OA
ENDBRANCH  10  13
ENDBRANCH   9  10
ENDBRANCH   1   9
TORSDOF 5
ENDMDL
MODEL 2
REMARK VINA RESULT:      -4.7      3.360      4.900
REMARK  Name = 
REMARK  7 active torsions:
REMARK  status: ('A' for Active; 'I' for Inactive)
REMARK    1  A    between atoms: C_1  and  O_2
REMARK    2  A    between atoms: O_2  and  C_3
REMARK    3  A    between atoms: C_3  and  C_5
REMARK    4  A    between atoms: C_5  and  N_6
REMARK    5  A    between atoms: C_7  and  C_9
REMARK    6  A    between atoms: C_9  and  C_10
REMARK    7  A    between atoms: C_9  and  S_11
REMARK                            x       y       z     vdW  Elec       q    Type
REMARK                         _______ _______ _______ _____ _____    ______ ____
ROOT
ATOM      1  N   UNL     1       6.229   3.641  14.120  0.00  0.00    +0.000 N 
ATOM      2  C   UNL     1       6.816   4.516  15.004  0.00  0.00    +0.000 C 
ATOM      3  O   UNL     1       7.643   5.349  14.638  0.00  0.00    +0.000 OA
ATOM      4  H   UNL     1       5.502   3.003  14.439  0.00  0.00    +0.000 HD
ENDROOT
BRANCH   2   5
ATOM      5  C   UNL     1       6.396   4.334  16.469  0.00  0.00    +0.000 C 
ATOM      6  C   UNL     1       7.531   4.672  17.428  0.00  0.00    +0.000 C 
BRANCH   5   7
ATOM      7  S   UNL     1       4.952   5.394  16.840  0.00  0.00    +0.000 S 
ATOM      8  H   UNL     1       4.603   5.621  15.564  0.00  0.00    +0.000 HD
ENDBRANCH   5   7
ENDBRANCH   2   5
BRANCH   1   9
ATOM      9  C   UNL     1       6.514   3.699  12.696  0.00  0.00    +0.000 C 
BRANCH   9  10
ATOM     10  C   UNL     1       5.505   2.880  11.909  0.00  0.00    +0.000 C 
ATOM     11  O   UNL     1       5.736   1.776  11.421  0.00  0.00    +0.000 OA
BRANCH  10  13
ATOM     12  C   UNL     1       3.513   3.163  10.708  0.00  0.00    +0.000 C 
ATOM     13  O   UNL     1       4.319   3.543  11.827  0.00  0.00    +0.000 OA
ENDBRANCH  10  13
ENDBRANCH   9  10
ENDBRANCH   1   9
TORSDOF 5
ENDMDL
MODEL 3
REMARK VINA RESULT:      -4.5      1.081      1.098
REMARK  Name = 
REMARK  7 active torsions:
REMARK  status: ('A' for Active; 'I' for Inactive)
REMARK    1  A    between atoms: C_1  and  O_2
REMARK    2  A    between atoms: O_2  and  C_3
REMARK    3  A    between atoms: C_3  and  C_5
REMARK    4  A    between atoms: C_5  and  N_6
REMARK    5  A    between atoms: C_7  and  C_9
REMARK    6  A    between atoms: C_9  and  C_10
REMARK    7  A    between atoms: C_9  and  S_11
REMARK                            x       y       z     vdW  Elec       q    Type
REMARK                         _______ _______ _______ _____ _____    ______ ____
ROOT
ATOM      1  N   UNL     1       5.490   3.806  18.920  0.00  0.00    +0.000 N 
ATOM      2  C   UNL     1       4.254   4.073  19.460  0.00  0.00    +0.000 C 
ATOM      3  O   UNL     1       3.901   5.218  19.734  0.00  0.00    +0.000 OA
ATOM      4  H   UNL     1       5.734   2.856  18.646  0.00  0.00    +0.000 HD
ENDROOT
BRANCH   2   5
ATOM      5  C   UNL     1       3.387   2.836  19.734  0.00  0.00    +0.000 C 
ATOM      6  C   UNL     1       1.957   3.218  20.095  0.00  0.00    +0.000 C 
BRANCH   5   7
ATOM      7  S   UNL     1       3.373   1.746  18.266  0.00  0.00    +0.000 S 
ATOM      8  H   UNL     1       2.325   0.999  18.647  0.00  0.00    +0.000 HD
ENDBRANCH   5   7
ENDBRANCH   2   5
BRANCH   1   9
ATOM      9  C   UNL     1       6.418   4.875  18.589  0.00  0.00    +0.000 C 
BRANCH   9  10
ATOM     10  C   UNL     1       7.060   4.634  17.233  0.00  0.00    +0.000 C 
ATOM     11  O   UNL     1       8.196   4.195  17.071  0.00  0.00    +0.000 OA
BRANCH  10  13
ATOM     12  C   UNL     1       6.078   3.982  15.209  0.00  0.00    +0.000 C 
ATOM     13  O   UNL     1       6.198   4.970  16.235  0.00  0.00    +0.000 OA
ENDBRANCH  10  13
ENDBRANCH   9  10
ENDBRANCH   1   9
TORSDOF 5
ENDMDL
MODEL 4
REMARK VINA RESULT:      -4.5      2.059      2.617
REMARK  Name = 
REMARK  7 active torsions:
REMARK  status: ('A' for Active; 'I' for Inactive)
REMARK    1  A    between atoms: C_1  and  O_2
REMARK    2  A    between atoms: O_2  and  C_3
REMARK    3  A    between atoms: C_3  and  C_5
REMARK    4  A    between atoms: C_5  and  N_6
REMARK    5  A    between atoms: C_7  and  C_9
REMARK    6  A    between atoms: C_9  and  C_10
REMARK    7  A    between atoms: C_9  and  S_11
REMARK                            x       y       z     vdW  Elec       q    Type
REMARK                         _______ _______ _______ _____ _____    ______ ____
ROOT
ATOM      1  N   UNL     1       4.783   3.739  17.059  0.00  0.00    +0.000 N 
ATOM      2  C   UNL     1       3.483   3.851  17.492  0.00  0.00    +0.000 C 
ATOM      3  O   UNL     1       2.971   4.944  17.726  0.00  0.00    +0.000 OA
ATOM      4  H   UNL     1       5.164   2.827  16.814  0.00  0.00    +0.000 HD
ENDROOT
BRANCH   2   5
ATOM      5  C   UNL     1       2.754   2.517  17.703  0.00  0.00    +0.000 C 
ATOM      6  C   UNL     1       3.631   1.504  18.430  0.00  0.00    +0.000 C 
BRANCH   5   7
ATOM      7  S   UNL     1       1.219   2.789  18.660  0.00  0.00    +0.000 S 
ATOM      8  H   UNL     1       0.830   3.894  18.005  0.00  0.00    +0.000 HD
ENDBRANCH   5   7
ENDBRANCH   2   5
BRANCH   1   9
ATOM      9  C   UNL     1       5.598   4.914  16.799  0.00  0.00    +0.000 C 
BRANCH   9  10
ATOM     10  C   UNL     1       7.072   4.607  17.001  0.00  0.00    +0.000 C 
ATOM     11  O   UNL     1       7.890   4.500  16.091  0.00  0.00    +0.000 OA
BRANCH  10  13
ATOM     12  C   UNL     1       7.486   5.711  19.025  0.00  0.00    +0.000 C 
ATOM     13  O   UNL     1       7.349   4.471  18.327  0.00  0.00    +0.000 OA
ENDBRANCH  10  13
ENDBRANCH   9  10
ENDBRANCH   1   9
TORSDOF 5
ENDMDL
MODEL 5
REMARK VINA RESULT:      -4.5      3.223      3.921
REMARK  Name = 
REMARK  7 active torsions:
REMARK  status: ('A' for Active; 'I' for Inactive)
REMARK    1  A    between atoms: C_1  and  O_2
REMARK    2  A    between atoms: O_2  and  C_3
REMARK    3  A    between atoms: C_3  and  C_5
REMARK    4  A    between atoms: C_5  and  N_6
REMARK    5  A    between atoms: C_7  and  C_9
REMARK    6  A    between atoms: C_9  and  C_10
REMARK    7  A    between atoms: C_9  and  S_11
REMARK                            x       y       z     vdW  Elec       q    Type
REMARK                         _______ _______ _______ _____ _____    ______ ____
ROOT
ATOM      1  N   UNL     1       6.202   5.055  15.525  0.00  0.00    +0.000 N 
ATOM      2  C   UNL     1       6.992   5.141  16.648  0.00  0.00    +0.000 C 
ATOM      3  O   UNL     1       7.931   4.371  16.838  0.00  0.00    +0.000 OA
ATOM      4  H   UNL     1       5.469   5.743  15.361  0.00  0.00    +0.000 HD
ENDROOT
BRANCH   2   5
ATOM      5  C   UNL     1       6.577   6.229  17.648  0.00  0.00    +0.000 C 
ATOM      6  C   UNL     1       7.522   7.423  17.607  0.00  0.00    +0.000 C 
BRANCH   5   7
ATOM      7  S   UNL     1       4.873   6.789  17.290  0.00  0.00    +0.000 S 
ATOM      8  H   UNL     1       5.098   8.094  17.505  0.00  0.00    +0.000 HD
ENDBRANCH   5   7
ENDBRANCH   2   5
BRANCH   1   9
ATOM      9  C   UNL     1       6.478   4.085  14.478  0.00  0.00    +0.000 C 
BRANCH   9  10
ATOM     10  C   UNL     1       7.279   4.718  13.352  0.00  0.00    +0.000 C 
ATOM     11  O   UNL     1       8.058   5.657  13.497  0.00  0.00    +0.000 OA
BRANCH  10  13
ATOM     12  C   UNL     1       5.861   3.246  12.207  0.00  0.00    +0.000 C 
ATOM     13  O   UNL     1       7.012   4.093  12.173  0.00  0.00    +0.000 OA
ENDBRANCH  10  13
ENDBRANCH   9  10
ENDBRANCH   1   9
TORSDOF 5
ENDMDL
MODEL 6
REMARK VINA RESULT:      -4.5      3.478      5.035
REMARK  Name = 
REMARK  7 active torsions:
REMARK  status: ('A' for Active; 'I' for Inactive)
REMARK    1  A    between atoms: C_1  and  O_2
REMARK    2  A    between atoms: O_2  and  C_3
REMARK    3  A    between atoms: C_3  and  C_5
REMARK    4  A    between atoms: C_5  and  N_6
REMARK    5  A    between atoms: C_7  and  C_9
REMARK    6  A    between atoms: C_9  and  C_10
REMARK    7  A    between atoms: C_9  and  S_11
REMARK                            x       y       z     vdW  Elec       q    Type
REMARK                         _______ _______ _______ _____ _____    ______ ____
ROOT
ATOM      1  N   UNL     1       6.063   3.972  13.907  0.00  0.00    +0.000 N 
ATOM      2  C   UNL     1       6.744   4.884  14.679  0.00  0.00    +0.000 C 
ATOM      3  O   UNL     1       7.771   5.430  14.280  0.00  0.00    +0.000 OA
ATOM      4  H   UNL     1       5.182   3.581  14.237  0.00  0.00    +0.000 HD
ENDROOT
BRANCH   2   5
ATOM      5  C   UNL     1       6.153   5.120  16.076  0.00  0.00    +0.000 C 
ATOM      6  C   UNL     1       4.888   4.300  16.298  0.00  0.00    +0.000 C 
BRANCH   5   7
ATOM      7  S   UNL     1       7.387   4.695  17.356  0.00  0.00    +0.000 S 
ATOM      8  H   UNL     1       8.451   4.684  16.538  0.00  0.00    +0.000 HD
ENDBRANCH   5   7
ENDBRANCH   2   5
BRANCH   1   9
ATOM      9  C   UNL     1       6.492   3.654  12.555  0.00  0.00    +0.000 C 
BRANCH   9  10
ATOM     10  C   UNL     1       5.465   2.781  11.854  0.00  0.00    +0.000 C 
ATOM     11  O   UNL     1       5.710   1.685  11.356  0.00  0.00    +0.000 OA
BRANCH  10  13
ATOM     12  C   UNL     1       3.591   3.395  10.589  0.00  0.00    +0.000 C 
ATOM     13  O   UNL     1       4.246   3.387  11.860  0.00  0.00    +0.000 OA
ENDBRANCH  10  13
ENDBRANCH   9  10
ENDBRANCH   1   9
TORSDOF 5
ENDMDL
MODEL 7
REMARK VINA RESULT:      -4.5      1.389      1.710
REMARK  Name = 
REMARK  7 active torsions:
REMARK  status: ('A' for Active; 'I' for Inactive)
REMARK    1  A    between atoms: C_1  and  O_2
REMARK    2  A    between atoms: O_2  and  C_3
REMARK    3  A    between atoms: C_3  and  C_5
REMARK    4  A    between atoms: C_5  and  N_6
REMARK    5  A    between atoms: C_7  and  C_9
REMARK    6  A    between atoms: C_9  and  C_10
REMARK    7  A    between atoms: C_9  and  S_11
REMARK                            x       y       z     vdW  Elec       q    Type
REMARK                         _______ _______ _______ _____ _____    ______ ____
ROOT
ATOM      1  N   UNL     1       6.152   3.974  18.308  0.00  0.00    +0.000 N 
ATOM      2  C   UNL     1       5.021   4.309  19.017  0.00  0.00    +0.000 C 
ATOM      3  O   UNL     1       4.858   5.436  19.480  0.00  0.00    +0.000 OA
ATOM      4  H   UNL     1       6.234   3.052  17.884  0.00  0.00    +0.000 HD
ENDROOT
BRANCH   2   5
ATOM      5  C   UNL     1       4.022   3.161  19.221  0.00  0.00    +0.000 C 
ATOM      6  C   UNL     1       4.540   2.134  20.221  0.00  0.00    +0.000 C 
BRANCH   5   7
ATOM      7  S   UNL     1       2.422   3.824  19.805  0.00  0.00    +0.000 S 
ATOM      8  H   UNL     1       2.584   3.488  21.095  0.00  0.00    +0.000 HD
ENDBRANCH   5   7
ENDBRANCH   2   5
BRANCH   1   9
ATOM      9  C   UNL     1       7.182   4.957  18.019  0.00  0.00    +0.000 C 
BRANCH   9  10
ATOM     10  C   UNL     1       7.108   5.409  16.570  0.00  0.00    +0.000 C 
ATOM     11  O   UNL     1       7.547   4.766  15.619  0.00  0.00    +0.000 OA
BRANCH  10  13
ATOM     12  C   UNL     1       5.145   6.552  15.998  0.00  0.00    +0.000 C 
ATOM     13  O   UNL     1       6.489   6.617  16.483  0.00  0.00    +0.000 OA
ENDBRANCH  10  13
ENDBRANCH   9  10
ENDBRANCH   1   9
TORSDOF 5
ENDMDL
MODEL 8
REMARK VINA RESULT:      -4.5      1.965      2.455
REMARK  Name = 
REMARK  7 active torsions:
REMARK  status: ('A' for Active; 'I' for Inactive)
REMARK    1  A    between atoms: C_1  and  O_2
REMARK    2  A    between atoms: O_2  and  C_3
REMARK    3  A    between atoms: C_3  and  C_5
REMARK    4  A    between atoms: C_5  and  N_6
REMARK    5  A    between atoms: C_7  and  C_9
REMARK    6  A    between atoms: C_9  and  C_10
REMARK    7  A    between atoms: C_9  and  S_11
REMARK                            x       y       z     vdW  Elec       q    Type
REMARK                         _______ _______ _______ _____ _____    ______ ____
ROOT
ATOM      1  N   UNL     1       4.499   5.104  19.310  0.00  0.00    +0.000 N 
ATOM      2  C   UNL     1       3.886   3.893  19.087  0.00  0.00    +0.000 C 
ATOM      3  O   UNL     1       4.168   3.195  18.116  0.00  0.00    +0.000 OA
ATOM      4  H   UNL     1       4.291   5.634  20.154  0.00  0.00    +0.000 HD
ENDROOT
BRANCH   2   5
ATOM      5  C   UNL     1       2.803   3.519  20.109  0.00  0.00    +0.000 C 
ATOM      6  C   UNL     1       2.262   4.746  20.832  0.00  0.00    +0.000 C 
BRANCH   5   7
ATOM      7  S   UNL     1       1.429   2.651  19.271  0.00  0.00    +0.000 S 
ATOM      8  H   UNL     1       0.489   2.950  20.181  0.00  0.00    +0.000 HD
ENDBRANCH   5   7
ENDBRANCH   2   5
BRANCH   1   9
ATOM      9  C   UNL     1       5.556   5.590  18.438  0.00  0.00    +0.000 C 
BRANCH   9  10
ATOM     10  C   UNL     1       6.922   5.204  18.978  0.00  0.00    +0.000 C 
ATOM     11  O   UNL     1       7.358   5.550  20.074  0.00  0.00    +0.000 OA
BRANCH  10  13
ATOM     12  C   UNL     1       7.127   4.570  16.732  0.00  0.00    +0.000 C 
ATOM     13  O   UNL     1       7.585   4.426  18.079  0.00  0.00    +0.000 OA
ENDBRANCH  10  13
ENDBRANCH   9  10
ENDBRANCH   1   9
TORSDOF 5
ENDMDL
MODEL 9
REMARK VINA RESULT:      -4.5      1.413      2.037
REMARK  Name = 
REMARK  7 active torsions:
REMARK  status: ('A' for Active; 'I' for Inactive)
REMARK    1  A    between atoms: C_1  and  O_2
REMARK    2  A    between atoms: O_2  and  C_3
REMARK    3  A    between atoms: C_3  and  C_5
REMARK    4  A    between atoms: C_5  and  N_6
REMARK    5  A    between atoms: C_7  and  C_9
REMARK    6  A    between atoms: C_9  and  C_10
REMARK    7  A    between atoms: C_9  and  S_11
REMARK                            x       y       z     vdW  Elec       q    Type
REMARK                         _______ _______ _______ _____ _____    ______ ____
ROOT
ATOM      1  N   UNL     1       5.922   4.106  18.491  0.00  0.00    +0.000 N 
ATOM      2  C   UNL     1       4.663   4.388  18.969  0.00  0.00    +0.000 C 
ATOM      3  O   UNL     1       4.366   5.504  19.389  0.00  0.00    +0.000 OA
ATOM      4  H   UNL     1       6.124   3.191  18.092  0.00  0.00    +0.000 HD
ENDROOT
BRANCH   2   5
ATOM      5  C   UNL     1       3.694   3.198  18.981  0.00  0.00    +0.000 C 
ATOM      6  C   UNL     1       3.524   2.623  20.382  0.00  0.00    +0.000 C 
BRANCH   5   7
ATOM      7  S   UNL     1       2.064   3.714  18.333  0.00  0.00    +0.000 S 
ATOM      8  H   UNL     1       2.280   5.036  18.425  0.00  0.00    +0.000 HD
ENDBRANCH   5   7
ENDBRANCH   2   5
BRANCH   1   9
ATOM      9  C   UNL     1       6.945   5.134  18.402  0.00  0.00    +0.000 C 
BRANCH   9  10
ATOM     10  C   UNL     1       7.433   5.290  16.972  0.00  0.00    +0.000 C 
ATOM     11  O   UNL     1       7.777   4.357  16.250  0.00  0.00    +0.000 OA
BRANCH  10  13
ATOM     12  C   UNL     1       7.649   7.507  17.696  0.00  0.00    +0.000 C 
ATOM     13  O   UNL     1       7.431   6.603  16.611  0.00  0.00    +0.000 OA
ENDBRANCH  10  13
ENDBRANCH   9  10
ENDBRANCH   1   9
TORSDOF 5
ENDMDL
