MODEL 1
REMARK VINA RESULT:      -7.1      0.000      0.000
REMARK  Name = 
REMARK  9 active torsions:
REMARK  status: ('A' for Active; 'I' for Inactive)
REMARK    1  A    between atoms: C_1  and  C_2
REMARK    2  A    between atoms: C_2  and  O_3
REMARK    3  A    between atoms: O_3  and  C_4
REMARK    4  A    between atoms: C_7  and  C_8
REMARK    5  A    between atoms: C_8  and  N_9
REMARK    6  A    between atoms: C_13  and  C_14
REMARK    7  A    between atoms: C_13  and  C_16
REMARK    8  A    between atoms: C_14  and  C_15
REMARK    9  A    between atoms: C_16  and  C_17
REMARK                            x       y       z     vdW  Elec       q    Type
REMARK                         _______ _______ _______ _____ _____    ______ ____
ROOT
ATOM      1  N   UNL     1       4.326   5.098  19.322  0.00  0.00    +0.000 N 
ATOM      2  C   UNL     1       3.148   5.780  19.332  0.00  0.00    +0.000 C 
ATOM      3  O   UNL     1       2.971   6.932  18.960  0.00  0.00    +0.000 OA
ATOM      4  C   UNL     1       2.067   4.893  19.878  0.00  0.00    +0.000 C 
ATOM      5  C   UNL     1       2.742   3.524  20.040  0.00  0.00    +0.000 C 
ATOM      6  C   UNL     1       4.195   3.790  19.687  0.00  0.00    +0.000 C 
ATOM      7  O   UNL     1       5.069   2.936  19.681  0.00  0.00    +0.000 OA
ENDROOT
BRANCH   5   8
ATOM      8  C   UNL     1       2.650   2.978  21.486  0.00  0.00    +0.000 C 
ATOM      9  C   UNL     1       1.285   2.429  21.896  0.00  0.00    +0.000 C 
ENDBRANCH   5   8
BRANCH   5  10
ATOM     10  C   UNL     1       2.160   2.475  19.056  0.00  0.00    +0.000 C 
ATOM     11  C   UNL     1       2.362   2.784  17.573  0.00  0.00    +0.000 C 
ENDBRANCH   5  10
BRANCH   1  12
ATOM     12  C   UNL     1       5.580   5.680  18.896  0.00  0.00    +0.000 C 
BRANCH  12  16
ATOM     13  C   UNL     1       6.419   4.756  14.798  0.00  0.00    +0.000 A 
ATOM     14  C   UNL     1       5.379   5.631  15.099  0.00  0.00    +0.000 A 
ATOM     15  C   UNL     1       5.113   5.960  16.431  0.00  0.00    +0.000 A 
ATOM     16  C   UNL     1       5.886   5.393  17.441  0.00  0.00    +0.000 A 
ATOM     17  N   UNL     1       6.923   4.562  17.168  0.00  0.00    +0.000 NA
ATOM     18  C   UNL     1       7.160   4.268  15.863  0.00  0.00    +0.000 A 
BRANCH  13  19
ATOM     19  O   UNL     1       6.774   4.328  13.552  0.00  0.00    +0.000 OA
BRANCH  19  21
ATOM     20  C   UNL     1       6.351   2.633  11.903  0.00  0.00    +0.000 C 
ATOM     21  C   UNL     1       5.742   3.710  12.782  0.00  0.00    +0.000 C 
ENDBRANCH  19  21
ENDBRANCH  13  19
ENDBRANCH  12  16
ENDBRANCH   1  12
TORSDOF 6
ENDMDL
MODEL 2
REMARK VINA RESULT:      -7.0      2.658      4.221
REMARK  Name = 
REMARK  9 active torsions:
REMARK  status: ('A' for Active; 'I' for Inactive)
REMARK    1  A    between atoms: C_1  and  C_2
REMARK    2  A    between atoms: C_2  and  O_3
REMARK    3  A    between atoms: O_3  and  C_4
REMARK    4  A    between atoms: C_7  and  C_8
REMARK    5  A    between atoms: C_8  and  N_9
REMARK    6  A    between atoms: C_13  and  C_14
REMARK    7  A    between atoms: C_13  and  C_16
REMARK    8  A    between atoms: C_14  and  C_15
REMARK    9  A    between atoms: C_16  and  C_17
REMARK                            x       y       z     vdW  Elec       q    Type
REMARK                         _______ _______ _______ _____ _____    ______ ____
ROOT
ATOM      1  N   UNL     1       3.843   3.545  18.717  0.00  0.00    +0.000 N 
ATOM      2  C   UNL     1       4.036   2.881  19.889  0.00  0.00    +0.000 C 
ATOM      3  O   UNL     1       5.061   2.319  20.247  0.00  0.00    +0.000 OA
ATOM      4  C   UNL     1       2.777   2.940  20.704  0.00  0.00    +0.000 C 
ATOM      5  C   UNL     1       1.854   3.880  19.914  0.00  0.00    +0.000 C 
ATOM      6  C   UNL     1       2.635   4.173  18.644  0.00  0.00    +0.000 C 
ATOM      7  O   UNL     1       2.241   4.905  17.748  0.00  0.00    +0.000 OA
ENDROOT
BRANCH   5   8
ATOM      8  C   UNL     1       0.500   3.224  19.552  0.00  0.00    +0.000 C 
ATOM      9  C   UNL     1       0.586   1.975  18.678  0.00  0.00    +0.000 C 
ENDBRANCH   5   8
BRANCH   5  10
ATOM     10  C   UNL     1       1.598   5.208  20.674  0.00  0.00    +0.000 C 
ATOM     11  C   UNL     1       2.472   6.387  20.250  0.00  0.00    +0.000 C 
ENDBRANCH   5  10
BRANCH   1  12
ATOM     12  C   UNL     1       4.849   3.640  17.680  0.00  0.00    +0.000 C 
BRANCH  12  16
ATOM     13  C   UNL     1       7.524   6.950  18.167  0.00  0.00    +0.000 A 
ATOM     14  C   UNL     1       6.438   7.074  17.305  0.00  0.00    +0.000 A 
ATOM     15  C   UNL     1       5.544   6.010  17.158  0.00  0.00    +0.000 A 
ATOM     16  C   UNL     1       5.763   4.832  17.868  0.00  0.00    +0.000 A 
ATOM     17  N   UNL     1       6.797   4.702  18.737  0.00  0.00    +0.000 NA
ATOM     18  C   UNL     1       7.644   5.756  18.862  0.00  0.00    +0.000 A 
BRANCH  13  19
ATOM     19  O   UNL     1       8.486   7.892  18.389  0.00  0.00    +0.000 OA
BRANCH  19  21
ATOM     20  C   UNL     1       9.133  10.193  18.625  0.00  0.00    +0.000 C 
ATOM     21  C   UNL     1       8.176   9.220  17.962  0.00  0.00    +0.000 C 
ENDBRANCH  19  21
ENDBRANCH  13  19
ENDBRANCH  12  16
ENDBRANCH   1  12
TORSDOF 6
ENDMDL
MODEL 3
REMARK VINA RESULT:      -6.9      1.824      3.128
REMARK  Name = 
REMARK  9 active torsions:
REMARK  status: ('A' for Active; 'I' for Inactive)
REMARK    1  A    between atoms: C_1  and  C_2
REMARK    2  A    between atoms: C_2  and  O_3
REMARK    3  A    between atoms: O_3  and  C_4
REMARK    4  A    between atoms: C_7  and  C_8
REMARK    5  A    between atoms: C_8  and  N_9
REMARK    6  A    between atoms: C_13  and  C_14
REMARK    7  A    between atoms: C_13  and  C_16
REMARK    8  A    between atoms: C_14  and  C_15
REMARK    9  A    between atoms: C_16  and  C_17
REMARK                            x       y       z     vdW  Elec       q    Type
REMARK                         _______ _______ _______ _____ _____    ______ ____
ROOT
ATOM      1  N   UNL     1       5.371   5.706  17.660  0.00  0.00    +0.000 N 
ATOM      2  C   UNL     1       5.553   4.827  18.683  0.00  0.00    +0.000 C 
ATOM      3  O   UNL     1       6.608   4.303  19.014  0.00  0.00    +0.000 OA
ATOM      4  C   UNL     1       4.239   4.585  19.368  0.00  0.00    +0.000 C 
ATOM      5  C   UNL     1       3.275   5.578  18.704  0.00  0.00    +0.000 C 
ATOM      6  C   UNL     1       4.107   6.213  17.603  0.00  0.00    +0.000 C 
ATOM      7  O   UNL     1       3.697   7.079  16.844  0.00  0.00    +0.000 OA
ENDROOT
BRANCH   5   8
ATOM      8  C   UNL     1       2.035   4.887  18.086  0.00  0.00    +0.000 C 
ATOM      9  C   UNL     1       2.306   3.560  17.380  0.00  0.00    +0.000 C 
ENDBRANCH   5   8
BRANCH   5  10
ATOM     10  C   UNL     1       2.811   6.680  19.694  0.00  0.00    +0.000 C 
ATOM     11  C   UNL     1       1.622   6.308  20.579  0.00  0.00    +0.000 C 
ENDBRANCH   5  10
BRANCH   1  12
ATOM     12  C   UNL     1       6.432   6.120  16.767  0.00  0.00    +0.000 C 
BRANCH  12  16
ATOM     13  C   UNL     1       6.506   3.887  13.112  0.00  0.00    +0.000 A 
ATOM     14  C   UNL     1       5.426   3.740  13.978  0.00  0.00    +0.000 A 
ATOM     15  C   UNL     1       5.378   4.483  15.160  0.00  0.00    +0.000 A 
ATOM     16  C   UNL     1       6.424   5.351  15.463  0.00  0.00    +0.000 A 
ATOM     17  N   UNL     1       7.471   5.533  14.619  0.00  0.00    +0.000 NA
ATOM     18  C   UNL     1       7.483   4.801  13.475  0.00  0.00    +0.000 A 
BRANCH  13  19
ATOM     19  O   UNL     1       6.697   3.212  11.941  0.00  0.00    +0.000 OA
BRANCH  19  21
ATOM     20  C   UNL     1       6.344   0.966  11.167  0.00  0.00    +0.000 C 
ATOM     21  C   UNL     1       5.686   2.266  11.590  0.00  0.00    +0.000 C 
ENDBRANCH  19  21
ENDBRANCH  13  19
ENDBRANCH  12  16
ENDBRANCH   1  12
TORSDOF 6
ENDMDL
MODEL 4
REMARK VINA RESULT:      -6.9      0.856      1.163
REMARK  Name = 
REMARK  9 active torsions:
REMARK  status: ('A' for Active; 'I' for Inactive)
REMARK    1  A    between atoms: C_1  and  C_2
REMARK    2  A    between atoms: C_2  and  O_3
REMARK    3  A    between atoms: O_3  and  C_4
REMARK    4  A    between atoms: C_7  and  C_8
REMARK    5  A    between atoms: C_8  and  N_9
REMARK    6  A    between atoms: C_13  and  C_14
REMARK    7  A    between atoms: C_13  and  C_16
REMARK    8  A    between atoms: C_14  and  C_15
REMARK    9  A    between atoms: C_16  and  C_17
REMARK                            x       y       z     vdW  Elec       q    Type
REMARK                         _______ _______ _______ _____ _____    ______ ____
ROOT
ATOM      1  N   UNL     1       4.061   4.882  19.423  0.00  0.00    +0.000 N 
ATOM      2  C   UNL     1       2.851   5.505  19.471  0.00  0.00    +0.000 C 
ATOM      3  O   UNL     1       2.606   6.648  19.109  0.00  0.00    +0.000 OA
ATOM      4  C   UNL     1       1.833   4.564  20.045  0.00  0.00    +0.000 C 
ATOM      5  C   UNL     1       2.579   3.229  20.180  0.00  0.00    +0.000 C 
ATOM      6  C   UNL     1       4.006   3.569  19.785  0.00  0.00    +0.000 C 
ATOM      7  O   UNL     1       4.921   2.759  19.749  0.00  0.00    +0.000 OA
ENDROOT
BRANCH   5   8
ATOM      8  C   UNL     1       2.558   2.675  21.626  0.00  0.00    +0.000 C 
ATOM      9  C   UNL     1       1.171   2.481  22.235  0.00  0.00    +0.000 C 
ENDBRANCH   5   8
BRANCH   5  10
ATOM     10  C   UNL     1       2.020   2.156  19.208  0.00  0.00    +0.000 C 
ATOM     11  C   UNL     1       0.636   2.450  18.633  0.00  0.00    +0.000 C 
ENDBRANCH   5  10
BRANCH   1  12
ATOM     12  C   UNL     1       5.271   5.527  18.961  0.00  0.00    +0.000 C 
BRANCH  12  16
ATOM     13  C   UNL     1       6.427   4.272  15.032  0.00  0.00    +0.000 A 
ATOM     14  C   UNL     1       7.410   4.495  15.992  0.00  0.00    +0.000 A 
ATOM     15  C   UNL     1       7.043   4.878  17.284  0.00  0.00    +0.000 A 
ATOM     16  C   UNL     1       5.695   5.049  17.588  0.00  0.00    +0.000 A 
ATOM     17  N   UNL     1       4.720   4.808  16.677  0.00  0.00    +0.000 NA
ATOM     18  C   UNL     1       5.109   4.429  15.433  0.00  0.00    +0.000 A 
BRANCH  13  19
ATOM     19  O   UNL     1       6.639   3.921  13.730  0.00  0.00    +0.000 OA
BRANCH  19  21
ATOM     20  C   UNL     1       5.691   2.718  11.880  0.00  0.00    +0.000 C 
ATOM     21  C   UNL     1       5.473   3.808  12.912  0.00  0.00    +0.000 C 
ENDBRANCH  19  21
ENDBRANCH  13  19
ENDBRANCH  12  16
ENDBRANCH   1  12
TORSDOF 6
ENDMDL
MODEL 5
REMARK VINA RESULT:      -6.8      0.992      1.107
REMARK  Name = 
REMARK  9 active torsions:
REMARK  status: ('A' for Active; 'I' for Inactive)
REMARK    1  A    between atoms: C_1  and  C_2
REMARK    2  A    between atoms: C_2  and  O_3
REMARK    3  A    between atoms: O_3  and  C_4
REMARK    4  A    between atoms: C_7  and  C_8
REMARK    5  A    between atoms: C_8  and  N_9
REMARK    6  A    between atoms: C_13  and  C_14
REMARK    7  A    between atoms: C_13  and  C_16
REMARK    8  A    between atoms: C_14  and  C_15
REMARK    9  A    between atoms: C_16  and  C_17
REMARK                            x       y       z     vdW  Elec       q    Type
REMARK                         _______ _______ _______ _____ _____    ______ ____
ROOT
ATOM      1  N   UNL     1       4.691   4.699  18.872  0.00  0.00    +0.000 N 
ATOM      2  C   UNL     1       3.689   5.575  18.583  0.00  0.00    +0.000 C 
ATOM      3  O   UNL     1       3.786   6.601  17.925  0.00  0.00    +0.000 OA
ATOM      4  C   UNL     1       2.412   5.088  19.204  0.00  0.00    +0.000 C 
ATOM      5  C   UNL     1       2.766   3.704  19.769  0.00  0.00    +0.000 C 
ATOM      6  C   UNL     1       4.260   3.583  19.526  0.00  0.00    +0.000 C 
ATOM      7  O   UNL     1       4.928   2.605  19.826  0.00  0.00    +0.000 OA
ENDROOT
BRANCH   5   8
ATOM      8  C   UNL     1       2.473   3.584  21.284  0.00  0.00    +0.000 C 
ATOM      9  C   UNL     1       1.328   2.646  21.660  0.00  0.00    +0.000 C 
ENDBRANCH   5   8
BRANCH   5  10
ATOM     10  C   UNL     1       2.030   2.568  19.010  0.00  0.00    +0.000 C 
ATOM     11  C   UNL     1       2.383   2.433  17.529  0.00  0.00    +0.000 C 
ENDBRANCH   5  10
BRANCH   1  12
ATOM     12  C   UNL     1       6.064   4.896  18.459  0.00  0.00    +0.000 C 
BRANCH  12  16
ATOM     13  C   UNL     1       6.487   4.379  14.228  0.00  0.00    +0.000 A 
ATOM     14  C   UNL     1       7.151   5.430  14.855  0.00  0.00    +0.000 A 
ATOM     15  C   UNL     1       7.041   5.592  16.238  0.00  0.00    +0.000 A 
ATOM     16  C   UNL     1       6.254   4.706  16.969  0.00  0.00    +0.000 A 
ATOM     17  N   UNL     1       5.624   3.657  16.383  0.00  0.00    +0.000 NA
ATOM     18  C   UNL     1       5.756   3.523  15.038  0.00  0.00    +0.000 A 
BRANCH  13  19
ATOM     19  O   UNL     1       6.483   4.115  12.889  0.00  0.00    +0.000 OA
BRANCH  19  21
ATOM     20  C   UNL     1       4.582   3.437  11.588  0.00  0.00    +0.000 C 
ATOM     21  C   UNL     1       5.724   2.978  12.475  0.00  0.00    +0.000 C 
ENDBRANCH  19  21
ENDBRANCH  13  19
ENDBRANCH  12  16
ENDBRANCH   1  12
TORSDOF 6
ENDMDL
MODEL 6
REMARK VINA RESULT:      -6.8      1.492      1.878
REMARK  Name = 
REMARK  9 active torsions:
REMARK  status: ('A' for Active; 'I' for Inactive)
REMARK    1  A    between atoms: C_1  and  C_2
REMARK    2  A    between atoms: C_2  and  O_3
REMARK    3  A    between atoms: O_3  and  C_4
REMARK    4  A    between atoms: C_7  and  C_8
REMARK    5  A    between atoms: C_8  and  N_9
REMARK    6  A    between atoms: C_13  and  C_14
REMARK    7  A    between atoms: C_13  and  C_16
REMARK    8  A    between atoms: C_14  and  C_15
REMARK    9  A    between atoms: C_16  and  C_17
REMARK                            x       y       z     vdW  Elec       q    Type
REMARK                         _______ _______ _______ _____ _____    ______ ____
ROOT
ATOM      1  N   UNL     1       4.631   5.521  17.904  0.00  0.00    +0.000 N 
ATOM      2  C   UNL     1       3.772   6.556  17.694  0.00  0.00    +0.000 C 
ATOM      3  O   UNL     1       4.016   7.593  17.094  0.00  0.00    +0.000 OA
ATOM      4  C   UNL     1       2.447   6.234  18.320  0.00  0.00    +0.000 C 
ATOM      5  C   UNL     1       2.590   4.781  18.794  0.00  0.00    +0.000 C 
ATOM      6  C   UNL     1       4.043   4.446  18.504  0.00  0.00    +0.000 C 
ATOM      7  O   UNL     1       4.557   3.360  18.729  0.00  0.00    +0.000 OA
ENDROOT
BRANCH   5   8
ATOM      8  C   UNL     1       2.310   4.614  20.307  0.00  0.00    +0.000 C 
ATOM      9  C   UNL     1       1.529   5.752  20.960  0.00  0.00    +0.000 C 
ENDBRANCH   5   8
BRANCH   5  10
ATOM     10  C   UNL     1       1.674   3.821  17.990  0.00  0.00    +0.000 C 
ATOM     11  C   UNL     1       0.993   2.725  18.809  0.00  0.00    +0.000 C 
ENDBRANCH   5  10
BRANCH   1  12
ATOM     12  C   UNL     1       6.010   5.528  17.467  0.00  0.00    +0.000 C 
BRANCH  12  16
ATOM     13  C   UNL     1       6.543   4.168  13.440  0.00  0.00    +0.000 A 
ATOM     14  C   UNL     1       5.385   3.817  14.129  0.00  0.00    +0.000 A 
ATOM     15  C   UNL     1       5.189   4.277  15.434  0.00  0.00    +0.000 A 
ATOM     16  C   UNL     1       6.165   5.069  16.032  0.00  0.00    +0.000 A 
ATOM     17  N   UNL     1       7.285   5.449  15.368  0.00  0.00    +0.000 NA
ATOM     18  C   UNL     1       7.443   4.991  14.099  0.00  0.00    +0.000 A 
BRANCH  13  19
ATOM     19  O   UNL     1       6.878   3.773  12.177  0.00  0.00    +0.000 OA
BRANCH  19  21
ATOM     20  C   UNL     1       7.156   1.675  11.043  0.00  0.00    +0.000 C 
ATOM     21  C   UNL     1       6.169   2.646  11.662  0.00  0.00    +0.000 C 
ENDBRANCH  19  21
ENDBRANCH  13  19
ENDBRANCH  12  16
ENDBRANCH   1  12
TORSDOF 6
ENDMDL
MODEL 7
REMARK VINA RESULT:      -6.7      2.568      4.178
REMARK  Name = 
REMARK  9 active torsions:
REMARK  status: ('A' for Active; 'I' for Inactive)
REMARK    1  A    between atoms: C_1  and  C_2
REMARK    2  A    between atoms: C_2  and  O_3
REMARK    3  A    between atoms: O_3  and  C_4
REMARK    4  A    between atoms: C_7  and  C_8
REMARK    5  A    between atoms: C_8  and  N_9
REMARK    6  A    between atoms: C_13  and  C_14
REMARK    7  A    between atoms: C_13  and  C_16
REMARK    8  A    between atoms: C_14  and  C_15
REMARK    9  A    between atoms: C_16  and  C_17
REMARK                            x       y       z     vdW  Elec       q    Type
REMARK                         _______ _______ _______ _____ _____    ______ ____
ROOT
ATOM      1  N   UNL     1       3.829   3.469  18.598  0.00  0.00    +0.000 N 
ATOM      2  C   UNL     1       4.106   2.846  19.776  0.00  0.00    +0.000 C 
ATOM      3  O   UNL     1       5.142   2.262  20.065  0.00  0.00    +0.000 OA
ATOM      4  C   UNL     1       2.929   2.982  20.697  0.00  0.00    +0.000 C 
ATOM      5  C   UNL     1       1.969   3.922  19.953  0.00  0.00    +0.000 C 
ATOM      6  C   UNL     1       2.640   4.135  18.607  0.00  0.00    +0.000 C 
ATOM      7  O   UNL     1       2.189   4.845  17.719  0.00  0.00    +0.000 OA
ENDROOT
BRANCH   5   8
ATOM      8  C   UNL     1       0.566   3.301  19.742  0.00  0.00    +0.000 C 
ATOM      9  C   UNL     1       0.502   2.146  18.744  0.00  0.00    +0.000 C 
ENDBRANCH   5   8
BRANCH   5  10
ATOM     10  C   UNL     1       1.825   5.287  20.675  0.00  0.00    +0.000 C 
ATOM     11  C   UNL     1       2.477   6.475  19.969  0.00  0.00    +0.000 C 
ENDBRANCH   5  10
BRANCH   1  12
ATOM     12  C   UNL     1       4.739   3.486  17.473  0.00  0.00    +0.000 C 
BRANCH  12  16
ATOM     13  C   UNL     1       7.034   7.102  17.386  0.00  0.00    +0.000 A 
ATOM     14  C   UNL     1       7.391   6.090  18.273  0.00  0.00    +0.000 A 
ATOM     15  C   UNL     1       6.666   4.896  18.291  0.00  0.00    +0.000 A 
ATOM     16  C   UNL     1       5.583   4.743  17.430  0.00  0.00    +0.000 A 
ATOM     17  N   UNL     1       5.236   5.703  16.537  0.00  0.00    +0.000 NA
ATOM     18  C   UNL     1       5.965   6.849  16.539  0.00  0.00    +0.000 A 
BRANCH  13  19
ATOM     19  O   UNL     1       7.632   8.324  17.276  0.00  0.00    +0.000 OA
BRANCH  19  21
ATOM     20  C   UNL     1       8.827  10.180  18.221  0.00  0.00    +0.000 C 
ATOM     21  C   UNL     1       8.470   8.713  18.366  0.00  0.00    +0.000 C 
ENDBRANCH  19  21
ENDBRANCH  13  19
ENDBRANCH  12  16
ENDBRANCH   1  12
TORSDOF 6
ENDMDL
MODEL 8
REMARK VINA RESULT:      -6.7      0.962      2.548
REMARK  Name = 
REMARK  9 active torsions:
REMARK  status: ('A' for Active; 'I' for Inactive)
REMARK    1  A    between atoms: C_1  and  C_2
REMARK    2  A    between atoms: C_2  and  O_3
REMARK    3  A    between atoms: O_3  and  C_4
REMARK    4  A    between atoms: C_7  and  C_8
REMARK    5  A    between atoms: C_8  and  N_9
REMARK    6  A    between atoms: C_13  and  C_14
REMARK    7  A    between atoms: C_13  and  C_16
REMARK    8  A    between atoms: C_14  and  C_15
REMARK    9  A    between atoms: C_16  and  C_17
REMARK                            x       y       z     vdW  Elec       q    Type
REMARK                         _______ _______ _______ _____ _____    ______ ____
ROOT
ATOM      1  N   UNL     1       4.167   4.262  19.503  0.00  0.00    +0.000 N 
ATOM      2  C   UNL     1       4.255   2.912  19.660  0.00  0.00    +0.000 C 
ATOM      3  O   UNL     1       5.282   2.253  19.728  0.00  0.00    +0.000 OA
ATOM      4  C   UNL     1       2.872   2.333  19.739  0.00  0.00    +0.000 C 
ATOM      5  C   UNL     1       1.946   3.558  19.773  0.00  0.00    +0.000 C 
ATOM      6  C   UNL     1       2.890   4.732  19.579  0.00  0.00    +0.000 C 
ATOM      7  O   UNL     1       2.536   5.902  19.560  0.00  0.00    +0.000 OA
ENDROOT
BRANCH   5   8
ATOM      8  C   UNL     1       0.894   3.543  18.638  0.00  0.00    +0.000 C 
ATOM      9  C   UNL     1       1.410   3.941  17.257  0.00  0.00    +0.000 C 
ENDBRANCH   5   8
BRANCH   5  10
ATOM     10  C   UNL     1       1.228   3.698  21.141  0.00  0.00    +0.000 C 
ATOM     11  C   UNL     1       1.413   2.526  22.103  0.00  0.00    +0.000 C 
ENDBRANCH   5  10
BRANCH   1  12
ATOM     12  C   UNL     1       5.320   5.122  19.348  0.00  0.00    +0.000 C 
BRANCH  12  16
ATOM     13  C   UNL     1       6.539   5.364  15.249  0.00  0.00    +0.000 A 
ATOM     14  C   UNL     1       5.435   6.097  15.675  0.00  0.00    +0.000 A 
ATOM     15  C   UNL     1       5.044   6.046  17.015  0.00  0.00    +0.000 A 
ATOM     16  C   UNL     1       5.759   5.248  17.905  0.00  0.00    +0.000 A 
ATOM     17  N   UNL     1       6.856   4.551  17.518  0.00  0.00    +0.000 NA
ATOM     18  C   UNL     1       7.215   4.627  16.210  0.00  0.00    +0.000 A 
BRANCH  13  19
ATOM     19  O   UNL     1       7.017   5.298  13.973  0.00  0.00    +0.000 OA
BRANCH  19  21
ATOM     20  C   UNL     1       5.453   3.766  12.987  0.00  0.00    +0.000 C 
ATOM     21  C   UNL     1       6.908   4.030  13.325  0.00  0.00    +0.000 C 
ENDBRANCH  19  21
ENDBRANCH  13  19
ENDBRANCH  12  16
ENDBRANCH   1  12
TORSDOF 6
ENDMDL
MODEL 9
REMARK VINA RESULT:      -6.7      1.070      1.171
REMARK  Name = 
REMARK  9 active torsions:
REMARK  status: ('A' for Active; 'I' for Inactive)
REMARK    1  A    between atoms: C_1  and  C_2
REMARK    2  A    between atoms: C_2  and  O_3
REMARK    3  A    between atoms: O_3  and  C_4
REMARK    4  A    between atoms: C_7  and  C_8
REMARK    5  A    between atoms: C_8  and  N_9
REMARK    6  A    between atoms: C_13  and  C_14
REMARK    7  A    between atoms: C_13  and  C_16
REMARK    8  A    between atoms: C_14  and  C_15
REMARK    9  A    between atoms: C_16  and  C_17
REMARK                            x       y       z     vdW  Elec       q    Type
REMARK                         _______ _______ _______ _____ _____    ______ ____
ROOT
ATOM      1  N   UNL     1       3.824   4.826  19.661  0.00  0.00    +0.000 N 
ATOM      2  C   UNL     1       2.720   5.621  19.627  0.00  0.00    +0.000 C 
ATOM      3  O   UNL     1       2.704   6.844  19.613  0.00  0.00    +0.000 OA
ATOM      4  C   UNL     1       1.491   4.760  19.609  0.00  0.00    +0.000 C 
ATOM      5  C   UNL     1       2.029   3.328  19.469  0.00  0.00    +0.000 C 
ATOM      6  C   UNL     1       3.536   3.498  19.550  0.00  0.00    +0.000 C 
ATOM      7  O   UNL     1       4.337   2.578  19.464  0.00  0.00    +0.000 OA
ENDROOT
BRANCH   5   8
ATOM      8  C   UNL     1       1.549   2.395  20.607  0.00  0.00    +0.000 C 
ATOM      9  C   UNL     1       1.928   2.832  22.020  0.00  0.00    +0.000 C 
ENDBRANCH   5   8
BRANCH   5  10
ATOM     10  C   UNL     1       1.656   2.704  18.099  0.00  0.00    +0.000 C 
ATOM     11  C   UNL     1       2.460   3.216  16.904  0.00  0.00    +0.000 C 
ENDBRANCH   5  10
BRANCH   1  12
ATOM     12  C   UNL     1       5.175   5.340  19.730  0.00  0.00    +0.000 C 
BRANCH  12  16
ATOM     13  C   UNL     1       7.045   5.356  15.877  0.00  0.00    +0.000 A 
ATOM     14  C   UNL     1       5.985   6.225  16.122  0.00  0.00    +0.000 A 
ATOM     15  C   UNL     1       5.385   6.247  17.383  0.00  0.00    +0.000 A 
ATOM     16  C   UNL     1       5.848   5.385  18.374  0.00  0.00    +0.000 A 
ATOM     17  N   UNL     1       6.899   4.553  18.166  0.00  0.00    +0.000 NA
ATOM     18  C   UNL     1       7.465   4.561  16.932  0.00  0.00    +0.000 A 
BRANCH  13  19
ATOM     19  O   UNL     1       7.707   5.209  14.692  0.00  0.00    +0.000 OA
BRANCH  19  21
ATOM     20  C   UNL     1       6.071   3.646  13.887  0.00  0.00    +0.000 C 
ATOM     21  C   UNL     1       6.903   4.872  13.561  0.00  0.00    +0.000 C 
ENDBRANCH  19  21
ENDBRANCH  13  19
ENDBRANCH  12  16
ENDBRANCH   1  12
TORSDOF 6
ENDMDL
