MODEL 1
REMARK VINA RESULT:      -8.9      0.000      0.000
REMARK  Name = 
REMARK  7 active torsions:
REMARK  status: ('A' for Active; 'I' for Inactive)
REMARK    1  A    between atoms: C_3  and  C_4
REMARK    2  A    between atoms: C_4  and  N_5
REMARK    3  A    between atoms: C_12  and  O_13
REMARK    4  A    between atoms: O_13  and  C_14
REMARK    5  A    between atoms: C_14  and  C_15
REMARK    6  A    between atoms: C_15  and  C_16
REMARK    7  A    between atoms: C_16  and  N_17
REMARK                            x       y       z     vdW  Elec       q    Type
REMARK                         _______ _______ _______ _____ _____    ______ ____
ROOT
ATOM      1  C   UNL     1       7.069   6.681  17.208  0.00  0.00    +0.000 C 
ENDROOT
BRANCH   1   2
ATOM      2  O   UNL     1       5.890   7.471  17.059  0.00  0.00    +0.000 OA
BRANCH   2   7
ATOM      3  C   UNL     1       2.346   6.826  17.996  0.00  0.00    +0.000 A 
ATOM      4  C   UNL     1       2.351   5.433  17.925  0.00  0.00    +0.000 A 
ATOM      5  C   UNL     1       3.518   4.748  17.583  0.00  0.00    +0.000 A 
ATOM      6  C   UNL     1       4.674   5.498  17.302  0.00  0.00    +0.000 A 
ATOM      7  C   UNL     1       4.683   6.899  17.361  0.00  0.00    +0.000 A 
ATOM      8  C   UNL     1       3.508   7.560  17.716  0.00  0.00    +0.000 A 
BRANCH   5   9
ATOM      9  C   UNL     1       3.563   3.234  17.593  0.00  0.00    +0.000 C 
BRANCH   9  10
ATOM     10  N   UNL     1       2.918   2.589  18.761  0.00  0.00    +0.000 NA
ATOM     11  C   UNL     1       3.519   3.076  20.015  0.00  0.00    +0.000 C 
ATOM     12  C   UNL     1       2.765   2.636  21.270  0.00  0.00    +0.000 C 
ATOM     13  C   UNL     1       1.297   3.028  21.194  0.00  0.00    +0.000 C 
ATOM     14  C   UNL     1       0.688   2.422  19.939  0.00  0.00    +0.000 C 
ATOM     15  C   UNL     1       1.465   2.854  18.694  0.00  0.00    +0.000 C 
ENDBRANCH   9  10
ENDBRANCH   5   9
ENDBRANCH   2   7
ENDBRANCH   1   2
BRANCH   1  16
ATOM     16  C   UNL     1       8.001   7.324  18.246  0.00  0.00    +0.000 C 
BRANCH  16  17
ATOM     17  C   UNL     1       8.294   8.827  18.027  0.00  0.00    +0.000 C 
BRANCH  17  18
ATOM     18  N   UNL     1       8.904   9.346  19.257  0.00  0.00    +0.000 N 
ATOM     19  C   UNL     1       9.583  10.582  19.230  0.00  0.00    +0.000 A 
ATOM     20  C   UNL     1       9.917  11.116  20.476  0.00  0.00    +0.000 A 
ATOM     21  C   UNL     1      10.543  12.353  20.568  0.00  0.00    +0.000 A 
ATOM     22  C   UNL     1      10.966  12.985  19.406  0.00  0.00    +0.000 A 
ATOM     23  C   UNL     1      11.700  14.184  19.478  0.00  0.00    +0.000 A 
ATOM     24  C   UNL     1      12.253  14.737  18.330  0.00  0.00    +0.000 A 
ATOM     25  C   UNL     1      12.031  14.111  17.108  0.00  0.00    +0.000 A 
ATOM     26  C   UNL     1      11.240  12.949  17.042  0.00  0.00    +0.000 A 
ATOM     27  C   UNL     1      10.693  12.348  18.174  0.00  0.00    +0.000 A 
ATOM     28  N   UNL     1       9.976  11.191  18.091  0.00  0.00    +0.000 NA
ATOM     29  H   UNL     1       8.225   9.379  20.009  0.00  0.00    +0.000 HD
ENDBRANCH  17  18
ENDBRANCH  16  17
ENDBRANCH   1  16
TORSDOF 7
ENDMDL
MODEL 2
REMARK VINA RESULT:      -8.7      5.629      9.546
REMARK  Name = 
REMARK  7 active torsions:
REMARK  status: ('A' for Active; 'I' for Inactive)
REMARK    1  A    between atoms: C_3  and  C_4
REMARK    2  A    between atoms: C_4  and  N_5
REMARK    3  A    between atoms: C_12  and  O_13
REMARK    4  A    between atoms: O_13  and  C_14
REMARK    5  A    between atoms: C_14  and  C_15
REMARK    6  A    between atoms: C_15  and  C_16
REMARK    7  A    between atoms: C_16  and  N_17
REMARK                            x       y       z     vdW  Elec       q    Type
REMARK                         _______ _______ _______ _____ _____    ______ ____
ROOT
ATOM      1  C   UNL     1       4.484   7.426  17.326  0.00  0.00    +0.000 C 
ENDROOT
BRANCH   1   2
ATOM      2  O   UNL     1       3.075   7.205  17.384  0.00  0.00    +0.000 OA
BRANCH   2   7
ATOM      3  C   UNL     1       1.532   8.021  20.672  0.00  0.00    +0.000 A 
ATOM      4  C   UNL     1       0.824   9.165  20.303  0.00  0.00    +0.000 A 
ATOM      5  C   UNL     1       0.867   9.628  18.987  0.00  0.00    +0.000 A 
ATOM      6  C   UNL     1       1.647   8.919  18.055  0.00  0.00    +0.000 A 
ATOM      7  C   UNL     1       2.370   7.773  18.412  0.00  0.00    +0.000 A 
ATOM      8  C   UNL     1       2.304   7.323  19.731  0.00  0.00    +0.000 A 
BRANCH   5   9
ATOM      9  C   UNL     1       0.031  10.813  18.551  0.00  0.00    +0.000 C 
BRANCH   9  10
ATOM     10  N   UNL     1      -1.431  10.572  18.501  0.00  0.00    +0.000 NA
ATOM     11  C   UNL     1      -2.168  11.810  18.811  0.00  0.00    +0.000 C 
ATOM     12  C   UNL     1      -3.673  11.707  18.562  0.00  0.00    +0.000 C 
ATOM     13  C   UNL     1      -3.965  11.254  17.139  0.00  0.00    +0.000 C 
ATOM     14  C   UNL     1      -3.270   9.924  16.893  0.00  0.00    +0.000 C 
ATOM     15  C   UNL     1      -1.769  10.035  17.166  0.00  0.00    +0.000 C 
ENDBRANCH   9  10
ENDBRANCH   5   9
ENDBRANCH   2   7
ENDBRANCH   1   2
BRANCH   1  16
ATOM     16  C   UNL     1       5.096   6.594  16.190  0.00  0.00    +0.000 C 
BRANCH  16  17
ATOM     17  C   UNL     1       5.821   5.302  16.636  0.00  0.00    +0.000 C 
BRANCH  17  18
ATOM     18  N   UNL     1       4.918   4.173  16.382  0.00  0.00    +0.000 N 
ATOM     19  C   UNL     1       3.962   3.813  17.354  0.00  0.00    +0.000 A 
ATOM     20  C   UNL     1       2.991   2.900  16.938  0.00  0.00    +0.000 A 
ATOM     21  C   UNL     1       1.971   2.514  17.799  0.00  0.00    +0.000 A 
ATOM     22  C   UNL     1       2.010   2.930  19.123  0.00  0.00    +0.000 A 
ATOM     23  C   UNL     1       1.051   2.463  20.042  0.00  0.00    +0.000 A 
ATOM     24  C   UNL     1       1.177   2.755  21.394  0.00  0.00    +0.000 A 
ATOM     25  C   UNL     1       2.237   3.552  21.815  0.00  0.00    +0.000 A 
ATOM     26  C   UNL     1       3.150   4.066  20.877  0.00  0.00    +0.000 A 
ATOM     27  C   UNL     1       3.076   3.771  19.517  0.00  0.00    +0.000 A 
ATOM     28  N   UNL     1       4.006   4.237  18.635  0.00  0.00    +0.000 NA
ATOM     29  H   UNL     1       4.436   4.292  15.498  0.00  0.00    +0.000 HD
ENDBRANCH  17  18
ENDBRANCH  16  17
ENDBRANCH   1  16
TORSDOF 7
ENDMDL
MODEL 3
REMARK VINA RESULT:      -8.7      1.979      2.738
REMARK  Name = 
REMARK  7 active torsions:
REMARK  status: ('A' for Active; 'I' for Inactive)
REMARK    1  A    between atoms: C_3  and  C_4
REMARK    2  A    between atoms: C_4  and  N_5
REMARK    3  A    between atoms: C_12  and  O_13
REMARK    4  A    between atoms: O_13  and  C_14
REMARK    5  A    between atoms: C_14  and  C_15
REMARK    6  A    between atoms: C_15  and  C_16
REMARK    7  A    between atoms: C_16  and  N_17
REMARK                            x       y       z     vdW  Elec       q    Type
REMARK                         _______ _______ _______ _____ _____    ______ ____
ROOT
ATOM      1  C   UNL     1       7.838   7.691  17.729  0.00  0.00    +0.000 C 
ENDROOT
BRANCH   1   2
ATOM      2  O   UNL     1       7.206   7.324  16.503  0.00  0.00    +0.000 OA
BRANCH   2   7
ATOM      3  C   UNL     1       6.036   3.850  15.859  0.00  0.00    +0.000 A 
ATOM      4  C   UNL     1       4.832   3.890  16.564  0.00  0.00    +0.000 A 
ATOM      5  C   UNL     1       4.437   5.057  17.220  0.00  0.00    +0.000 A 
ATOM      6  C   UNL     1       5.287   6.177  17.159  0.00  0.00    +0.000 A 
ATOM      7  C   UNL     1       6.502   6.149  16.462  0.00  0.00    +0.000 A 
ATOM      8  C   UNL     1       6.871   4.975  15.806  0.00  0.00    +0.000 A 
BRANCH   5   9
ATOM      9  C   UNL     1       3.092   5.145  17.910  0.00  0.00    +0.000 C 
BRANCH   9  10
ATOM     10  N   UNL     1       2.710   3.953  18.704  0.00  0.00    +0.000 NA
ATOM     11  C   UNL     1       3.490   3.895  19.953  0.00  0.00    +0.000 C 
ATOM     12  C   UNL     1       3.002   2.827  20.933  0.00  0.00    +0.000 C 
ATOM     13  C   UNL     1       1.521   2.994  21.235  0.00  0.00    +0.000 C 
ATOM     14  C   UNL     1       0.742   2.946  19.930  0.00  0.00    +0.000 C 
ATOM     15  C   UNL     1       1.253   4.005  18.952  0.00  0.00    +0.000 C 
ENDBRANCH   9  10
ENDBRANCH   5   9
ENDBRANCH   2   7
ENDBRANCH   1   2
BRANCH   1  16
ATOM     16  C   UNL     1       7.836   9.220  17.878  0.00  0.00    +0.000 C 
BRANCH  16  17
ATOM     17  C   UNL     1       8.931   9.793  18.810  0.00  0.00    +0.000 C 
BRANCH  17  18
ATOM     18  N   UNL     1       9.845  10.591  17.985  0.00  0.00    +0.000 N 
ATOM     19  C   UNL     1       9.766  11.999  18.020  0.00  0.00    +0.000 A 
ATOM     20  C   UNL     1      10.819  12.680  17.406  0.00  0.00    +0.000 A 
ATOM     21  C   UNL     1      10.867  14.068  17.425  0.00  0.00    +0.000 A 
ATOM     22  C   UNL     1       9.785  14.776  17.931  0.00  0.00    +0.000 A 
ATOM     23  C   UNL     1       9.762  16.182  17.861  0.00  0.00    +0.000 A 
ATOM     24  C   UNL     1       8.619  16.882  18.227  0.00  0.00    +0.000 A 
ATOM     25  C   UNL     1       7.521  16.175  18.705  0.00  0.00    +0.000 A 
ATOM     26  C   UNL     1       7.582  14.775  18.832  0.00  0.00    +0.000 A 
ATOM     27  C   UNL     1       8.698  14.034  18.448  0.00  0.00    +0.000 A 
ATOM     28  N   UNL     1       8.712  12.673  18.529  0.00  0.00    +0.000 NA
ATOM     29  H   UNL     1      10.809  10.328  18.160  0.00  0.00    +0.000 HD
ENDBRANCH  17  18
ENDBRANCH  16  17
ENDBRANCH   1  16
TORSDOF 7
ENDMDL
MODEL 4
REMARK VINA RESULT:      -8.6      1.463      2.131
REMARK  Name = 
REMARK  7 active torsions:
REMARK  status: ('A' for Active; 'I' for Inactive)
REMARK    1  A    between atoms: C_3  and  C_4
REMARK    2  A    between atoms: C_4  and  N_5
REMARK    3  A    between atoms: C_12  and  O_13
REMARK    4  A    between atoms: O_13  and  C_14
REMARK    5  A    between atoms: C_14  and  C_15
REMARK    6  A    between atoms: C_15  and  C_16
REMARK    7  A    between atoms: C_16  and  N_17
REMARK                            x       y       z     vdW  Elec       q    Type
REMARK                         _______ _______ _______ _____ _____    ______ ____
ROOT
ATOM      1  C   UNL     1       8.319   6.908  18.636  0.00  0.00    +0.000 C 
ENDROOT
BRANCH   1   2
ATOM      2  O   UNL     1       7.558   5.718  18.841  0.00  0.00    +0.000 OA
BRANCH   2   7
ATOM      3  C   UNL     1       6.714   4.275  15.516  0.00  0.00    +0.000 A 
ATOM      4  C   UNL     1       5.365   3.992  15.736  0.00  0.00    +0.000 A 
ATOM      5  C   UNL     1       4.772   4.293  16.964  0.00  0.00    +0.000 A 
ATOM      6  C   UNL     1       5.571   4.872  17.966  0.00  0.00    +0.000 A 
ATOM      7  C   UNL     1       6.929   5.154  17.763  0.00  0.00    +0.000 A 
ATOM      8  C   UNL     1       7.496   4.855  16.525  0.00  0.00    +0.000 A 
BRANCH   5   9
ATOM      9  C   UNL     1       3.290   4.077  17.186  0.00  0.00    +0.000 C 
BRANCH   9  10
ATOM     10  N   UNL     1       2.892   3.822  18.591  0.00  0.00    +0.000 NA
ATOM     11  C   UNL     1       2.026   4.906  19.086  0.00  0.00    +0.000 C 
ATOM     12  C   UNL     1       1.388   4.612  20.444  0.00  0.00    +0.000 C 
ATOM     13  C   UNL     1       0.632   3.292  20.421  0.00  0.00    +0.000 C 
ATOM     14  C   UNL     1       1.585   2.183  20.004  0.00  0.00    +0.000 C 
ATOM     15  C   UNL     1       2.231   2.500  18.654  0.00  0.00    +0.000 C 
ENDBRANCH   9  10
ENDBRANCH   5   9
ENDBRANCH   2   7
ENDBRANCH   1   2
BRANCH   1  16
ATOM     16  C   UNL     1       7.619   7.801  17.600  0.00  0.00    +0.000 C 
BRANCH  16  17
ATOM     17  C   UNL     1       7.975   9.304  17.678  0.00  0.00    +0.000 C 
BRANCH  17  18
ATOM     18  N   UNL     1       8.845   9.496  18.844  0.00  0.00    +0.000 N 
ATOM     19  C   UNL     1       9.384  10.772  19.109  0.00  0.00    +0.000 A 
ATOM     20  C   UNL     1       9.991  10.926  20.357  0.00  0.00    +0.000 A 
ATOM     21  C   UNL     1      10.510  12.155  20.742  0.00  0.00    +0.000 A 
ATOM     22  C   UNL     1      10.552  13.191  19.819  0.00  0.00    +0.000 A 
ATOM     23  C   UNL     1      11.173  14.411  20.148  0.00  0.00    +0.000 A 
ATOM     24  C   UNL     1      11.350  15.391  19.180  0.00  0.00    +0.000 A 
ATOM     25  C   UNL     1      10.864  15.164  17.896  0.00  0.00    +0.000 A 
ATOM     26  C   UNL     1      10.187  13.968  17.598  0.00  0.00    +0.000 A 
ATOM     27  C   UNL     1      10.016  12.948  18.533  0.00  0.00    +0.000 A 
ATOM     28  N   UNL     1       9.404  11.775  18.204  0.00  0.00    +0.000 NA
ATOM     29  H   UNL     1       8.391   9.167  19.689  0.00  0.00    +0.000 HD
ENDBRANCH  17  18
ENDBRANCH  16  17
ENDBRANCH   1  16
TORSDOF 7
ENDMDL
MODEL 5
REMARK VINA RESULT:      -8.6      1.307      2.138
REMARK  Name = 
REMARK  7 active torsions:
REMARK  status: ('A' for Active; 'I' for Inactive)
REMARK    1  A    between atoms: C_3  and  C_4
REMARK    2  A    between atoms: C_4  and  N_5
REMARK    3  A    between atoms: C_12  and  O_13
REMARK    4  A    between atoms: O_13  and  C_14
REMARK    5  A    between atoms: C_14  and  C_15
REMARK    6  A    between atoms: C_15  and  C_16
REMARK    7  A    between atoms: C_16  and  N_17
REMARK                            x       y       z     vdW  Elec       q    Type
REMARK                         _______ _______ _______ _____ _____    ______ ____
ROOT
ATOM      1  C   UNL     1       7.955   6.955  18.742  0.00  0.00    +0.000 C 
ENDROOT
BRANCH   1   2
ATOM      2  O   UNL     1       7.862   5.566  18.431  0.00  0.00    +0.000 OA
BRANCH   2   7
ATOM      3  C   UNL     1       5.560   3.934  16.004  0.00  0.00    +0.000 A 
ATOM      4  C   UNL     1       4.346   4.408  16.501  0.00  0.00    +0.000 A 
ATOM      5  C   UNL     1       4.320   5.255  17.611  0.00  0.00    +0.000 A 
ATOM      6  C   UNL     1       5.543   5.603  18.213  0.00  0.00    +0.000 A 
ATOM      7  C   UNL     1       6.770   5.129  17.729  0.00  0.00    +0.000 A 
ATOM      8  C   UNL     1       6.771   4.293  16.614  0.00  0.00    +0.000 A 
BRANCH   5   9
ATOM      9  C   UNL     1       3.018   5.851  18.105  0.00  0.00    +0.000 C 
BRANCH   9  10
ATOM     10  N   UNL     1       2.178   4.944  18.923  0.00  0.00    +0.000 NA
ATOM     11  C   UNL     1       1.549   3.919  18.073  0.00  0.00    +0.000 C 
ATOM     12  C   UNL     1       0.850   2.811  18.861  0.00  0.00    +0.000 C 
ATOM     13  C   UNL     1       1.798   2.167  19.862  0.00  0.00    +0.000 C 
ATOM     14  C   UNL     1       2.347   3.243  20.785  0.00  0.00    +0.000 C 
ATOM     15  C   UNL     1       3.025   4.355  19.982  0.00  0.00    +0.000 C 
ENDBRANCH   9  10
ENDBRANCH   5   9
ENDBRANCH   2   7
ENDBRANCH   1   2
BRANCH   1  16
ATOM     16  C   UNL     1       7.752   7.789  17.468  0.00  0.00    +0.000 C 
BRANCH  16  17
ATOM     17  C   UNL     1       8.010   9.307  17.626  0.00  0.00    +0.000 C 
BRANCH  17  18
ATOM     18  N   UNL     1       8.795   9.501  18.851  0.00  0.00    +0.000 N 
ATOM     19  C   UNL     1       9.393  10.753  19.104  0.00  0.00    +0.000 A 
ATOM     20  C   UNL     1       9.908  10.928  20.390  0.00  0.00    +0.000 A 
ATOM     21  C   UNL     1      10.474  12.141  20.763  0.00  0.00    +0.000 A 
ATOM     22  C   UNL     1      10.656  13.127  19.803  0.00  0.00    +0.000 A 
ATOM     23  C   UNL     1      11.327  14.321  20.130  0.00  0.00    +0.000 A 
ATOM     24  C   UNL     1      11.644  15.240  19.138  0.00  0.00    +0.000 A 
ATOM     25  C   UNL     1      11.247  14.982  17.830  0.00  0.00    +0.000 A 
ATOM     26  C   UNL     1      10.519  13.817  17.529  0.00  0.00    +0.000 A 
ATOM     27  C   UNL     1      10.209  12.856  18.489  0.00  0.00    +0.000 A 
ATOM     28  N   UNL     1       9.550  11.708  18.162  0.00  0.00    +0.000 NA
ATOM     29  H   UNL     1       8.255   9.241  19.668  0.00  0.00    +0.000 HD
ENDBRANCH  17  18
ENDBRANCH  16  17
ENDBRANCH   1  16
TORSDOF 7
ENDMDL
MODEL 6
REMARK VINA RESULT:      -8.6      2.809     10.233
REMARK  Name = 
REMARK  7 active torsions:
REMARK  status: ('A' for Active; 'I' for Inactive)
REMARK    1  A    between atoms: C_3  and  C_4
REMARK    2  A    between atoms: C_4  and  N_5
REMARK    3  A    between atoms: C_12  and  O_13
REMARK    4  A    between atoms: O_13  and  C_14
REMARK    5  A    between atoms: C_14  and  C_15
REMARK    6  A    between atoms: C_15  and  C_16
REMARK    7  A    between atoms: C_16  and  N_17
REMARK                            x       y       z     vdW  Elec       q    Type
REMARK                         _______ _______ _______ _____ _____    ______ ____
ROOT
ATOM      1  C   UNL     1       8.141   8.557  17.898  0.00  0.00    +0.000 C 
ENDROOT
BRANCH   1   2
ATOM      2  O   UNL     1       8.979   8.975  18.976  0.00  0.00    +0.000 OA
BRANCH   2   7
ATOM      3  C   UNL     1       9.961  12.513  18.363  0.00  0.00    +0.000 A 
ATOM      4  C   UNL     1       9.788  13.014  19.653  0.00  0.00    +0.000 A 
ATOM      5  C   UNL     1       9.366  12.175  20.686  0.00  0.00    +0.000 A 
ATOM      6  C   UNL     1       9.109  10.825  20.386  0.00  0.00    +0.000 A 
ATOM      7  C   UNL     1       9.270  10.309  19.093  0.00  0.00    +0.000 A 
ATOM      8  C   UNL     1       9.703  11.163  18.080  0.00  0.00    +0.000 A 
BRANCH   5   9
ATOM      9  C   UNL     1       9.263  12.683  22.109  0.00  0.00    +0.000 C 
BRANCH   9  10
ATOM     10  N   UNL     1       8.011  12.328  22.819  0.00  0.00    +0.000 NA
ATOM     11  C   UNL     1       8.306  11.875  24.189  0.00  0.00    +0.000 C 
ATOM     12  C   UNL     1       7.062  11.705  25.061  0.00  0.00    +0.000 C 
ATOM     13  C   UNL     1       6.231  12.980  25.087  0.00  0.00    +0.000 C 
ATOM     14  C   UNL     1       5.862  13.357  23.662  0.00  0.00    +0.000 C 
ATOM     15  C   UNL     1       7.114  13.503  22.795  0.00  0.00    +0.000 C 
ENDBRANCH   9  10
ENDBRANCH   5   9
ENDBRANCH   2   7
ENDBRANCH   1   2
BRANCH   1  16
ATOM     16  C   UNL     1       7.807   7.065  18.046  0.00  0.00    +0.000 C 
BRANCH  16  17
ATOM     17  C   UNL     1       6.957   6.464  16.902  0.00  0.00    +0.000 C 
BRANCH  17  18
ATOM     18  N   UNL     1       5.590   6.981  17.043  0.00  0.00    +0.000 N 
ATOM     19  C   UNL     1       4.563   6.124  17.490  0.00  0.00    +0.000 A 
ATOM     20  C   UNL     1       3.361   6.746  17.829  0.00  0.00    +0.000 A 
ATOM     21  C   UNL     1       2.299   6.002  18.328  0.00  0.00    +0.000 A 
ATOM     22  C   UNL     1       2.393   4.617  18.347  0.00  0.00    +0.000 A 
ATOM     23  C   UNL     1       1.290   3.837  18.744  0.00  0.00    +0.000 A 
ATOM     24  C   UNL     1       1.330   2.454  18.619  0.00  0.00    +0.000 A 
ATOM     25  C   UNL     1       2.491   1.854  18.141  0.00  0.00    +0.000 A 
ATOM     26  C   UNL     1       3.608   2.642  17.811  0.00  0.00    +0.000 A 
ATOM     27  C   UNL     1       3.597   4.033  17.893  0.00  0.00    +0.000 A 
ATOM     28  N   UNL     1       4.675   4.778  17.515  0.00  0.00    +0.000 NA
ATOM     29  H   UNL     1       5.579   7.812  17.625  0.00  0.00    +0.000 HD
ENDBRANCH  17  18
ENDBRANCH  16  17
ENDBRANCH   1  16
TORSDOF 7
ENDMDL
MODEL 7
REMARK VINA RESULT:      -8.5      1.875      2.721
REMARK  Name = 
REMARK  7 active torsions:
REMARK  status: ('A' for Active; 'I' for Inactive)
REMARK    1  A    between atoms: C_3  and  C_4
REMARK    2  A    between atoms: C_4  and  N_5
REMARK    3  A    between atoms: C_12  and  O_13
REMARK    4  A    between atoms: O_13  and  C_14
REMARK    5  A    between atoms: C_14  and  C_15
REMARK    6  A    between atoms: C_15  and  C_16
REMARK    7  A    between atoms: C_16  and  N_17
REMARK                            x       y       z     vdW  Elec       q    Type
REMARK                         _______ _______ _______ _____ _____    ______ ____
ROOT
ATOM      1  C   UNL     1       7.565   7.823  17.449  0.00  0.00    +0.000 C 
ENDROOT
BRANCH   1   2
ATOM      2  O   UNL     1       7.570   6.428  17.748  0.00  0.00    +0.000 OA
BRANCH   2   7
ATOM      3  C   UNL     1       6.338   4.273  14.975  0.00  0.00    +0.000 A 
ATOM      4  C   UNL     1       5.129   3.861  15.537  0.00  0.00    +0.000 A 
ATOM      5  C   UNL     1       4.751   4.312  16.803  0.00  0.00    +0.000 A 
ATOM      6  C   UNL     1       5.623   5.173  17.493  0.00  0.00    +0.000 A 
ATOM      7  C   UNL     1       6.844   5.588  16.944  0.00  0.00    +0.000 A 
ATOM      8  C   UNL     1       7.195   5.134  15.674  0.00  0.00    +0.000 A 
BRANCH   5   9
ATOM      9  C   UNL     1       3.401   3.949  17.388  0.00  0.00    +0.000 C 
BRANCH   9  10
ATOM     10  N   UNL     1       3.297   4.069  18.862  0.00  0.00    +0.000 NA
ATOM     11  C   UNL     1       2.210   4.994  19.227  0.00  0.00    +0.000 C 
ATOM     12  C   UNL     1       1.886   5.002  20.721  0.00  0.00    +0.000 C 
ATOM     13  C   UNL     1       1.587   3.599  21.226  0.00  0.00    +0.000 C 
ATOM     14  C   UNL     1       2.775   2.701  20.921  0.00  0.00    +0.000 C 
ATOM     15  C   UNL     1       3.101   2.717  19.426  0.00  0.00    +0.000 C 
ENDBRANCH   9  10
ENDBRANCH   5   9
ENDBRANCH   2   7
ENDBRANCH   1   2
BRANCH   1  16
ATOM     16  C   UNL     1       8.498   8.567  18.417  0.00  0.00    +0.000 C 
BRANCH  16  17
ATOM     17  C   UNL     1       8.418  10.110  18.354  0.00  0.00    +0.000 C 
BRANCH  17  18
ATOM     18  N   UNL     1       9.720  10.606  17.892  0.00  0.00    +0.000 N 
ATOM     19  C   UNL     1       9.995  11.988  17.938  0.00  0.00    +0.000 A 
ATOM     20  C   UNL     1      11.326  12.347  17.715  0.00  0.00    +0.000 A 
ATOM     21  C   UNL     1      11.718  13.678  17.787  0.00  0.00    +0.000 A 
ATOM     22  C   UNL     1      10.750  14.662  17.936  0.00  0.00    +0.000 A 
ATOM     23  C   UNL     1      11.110  16.022  17.901  0.00  0.00    +0.000 A 
ATOM     24  C   UNL     1      10.130  17.006  17.897  0.00  0.00    +0.000 A 
ATOM     25  C   UNL     1       8.794  16.625  17.975  0.00  0.00    +0.000 A 
ATOM     26  C   UNL     1       8.452  15.265  18.076  0.00  0.00    +0.000 A 
ATOM     27  C   UNL     1       9.404  14.247  18.053  0.00  0.00    +0.000 A 
ATOM     28  N   UNL     1       9.044  12.933  18.097  0.00  0.00    +0.000 NA
ATOM     29  H   UNL     1      10.476  10.120  18.361  0.00  0.00    +0.000 HD
ENDBRANCH  17  18
ENDBRANCH  16  17
ENDBRANCH   1  16
TORSDOF 7
ENDMDL
MODEL 8
REMARK VINA RESULT:      -8.5      1.484      2.528
REMARK  Name = 
REMARK  7 active torsions:
REMARK  status: ('A' for Active; 'I' for Inactive)
REMARK    1  A    between atoms: C_3  and  C_4
REMARK    2  A    between atoms: C_4  and  N_5
REMARK    3  A    between atoms: C_12  and  O_13
REMARK    4  A    between atoms: O_13  and  C_14
REMARK    5  A    between atoms: C_14  and  C_15
REMARK    6  A    between atoms: C_15  and  C_16
REMARK    7  A    between atoms: C_16  and  N_17
REMARK                            x       y       z     vdW  Elec       q    Type
REMARK                         _______ _______ _______ _____ _____    ______ ____
ROOT
ATOM      1  C   UNL     1       8.144   6.436  19.010  0.00  0.00    +0.000 C 
ENDROOT
BRANCH   1   2
ATOM      2  O   UNL     1       7.611   5.112  19.031  0.00  0.00    +0.000 OA
BRANCH   2   7
ATOM      3  C   UNL     1       6.325   4.217  15.655  0.00  0.00    +0.000 A 
ATOM      4  C   UNL     1       5.041   3.804  16.012  0.00  0.00    +0.000 A 
ATOM      5  C   UNL     1       4.633   3.842  17.347  0.00  0.00    +0.000 A 
ATOM      6  C   UNL     1       5.552   4.292  18.312  0.00  0.00    +0.000 A 
ATOM      7  C   UNL     1       6.848   4.702  17.969  0.00  0.00    +0.000 A 
ATOM      8  C   UNL     1       7.229   4.666  16.629  0.00  0.00    +0.000 A 
BRANCH   5   9
ATOM      9  C   UNL     1       3.214   3.486  17.738  0.00  0.00    +0.000 C 
BRANCH   9  10
ATOM     10  N   UNL     1       2.406   4.608  18.274  0.00  0.00    +0.000 NA
ATOM     11  C   UNL     1       2.365   4.554  19.746  0.00  0.00    +0.000 C 
ATOM     12  C   UNL     1       1.745   5.795  20.389  0.00  0.00    +0.000 C 
ATOM     13  C   UNL     1       2.442   7.063  19.919  0.00  0.00    +0.000 C 
ATOM     14  C   UNL     1       2.374   7.131  18.402  0.00  0.00    +0.000 C 
ATOM     15  C   UNL     1       2.978   5.875  17.773  0.00  0.00    +0.000 C 
ENDBRANCH   9  10
ENDBRANCH   5   9
ENDBRANCH   2   7
ENDBRANCH   1   2
BRANCH   1  16
ATOM     16  C   UNL     1       7.600   7.197  17.792  0.00  0.00    +0.000 C 
BRANCH  16  17
ATOM     17  C   UNL     1       7.998   8.690  17.716  0.00  0.00    +0.000 C 
BRANCH  17  18
ATOM     18  N   UNL     1       8.655   9.041  18.982  0.00  0.00    +0.000 N 
ATOM     19  C   UNL     1       9.341  10.268  19.093  0.00  0.00    +0.000 A 
ATOM     20  C   UNL     1       9.722  10.633  20.386  0.00  0.00    +0.000 A 
ATOM     21  C   UNL     1      10.360  11.845  20.618  0.00  0.00    +0.000 A 
ATOM     22  C   UNL     1      10.747  12.623  19.535  0.00  0.00    +0.000 A 
ATOM     23  C   UNL     1      11.493  13.800  19.739  0.00  0.00    +0.000 A 
ATOM     24  C   UNL     1      12.011  14.497  18.655  0.00  0.00    +0.000 A 
ATOM     25  C   UNL     1      11.742  14.038  17.369  0.00  0.00    +0.000 A 
ATOM     26  C   UNL     1      10.940  12.898  17.179  0.00  0.00    +0.000 A 
ATOM     27  C   UNL     1      10.428  12.154  18.240  0.00  0.00    +0.000 A 
ATOM     28  N   UNL     1       9.700  11.021  18.031  0.00  0.00    +0.000 NA
ATOM     29  H   UNL     1       8.002   8.977  19.755  0.00  0.00    +0.000 HD
ENDBRANCH  17  18
ENDBRANCH  16  17
ENDBRANCH   1  16
TORSDOF 7
ENDMDL
MODEL 9
REMARK VINA RESULT:      -8.5      6.487     10.538
REMARK  Name = 
REMARK  7 active torsions:
REMARK  status: ('A' for Active; 'I' for Inactive)
REMARK    1  A    between atoms: C_3  and  C_4
REMARK    2  A    between atoms: C_4  and  N_5
REMARK    3  A    between atoms: C_12  and  O_13
REMARK    4  A    between atoms: O_13  and  C_14
REMARK    5  A    between atoms: C_14  and  C_15
REMARK    6  A    between atoms: C_15  and  C_16
REMARK    7  A    between atoms: C_16  and  N_17
REMARK                            x       y       z     vdW  Elec       q    Type
REMARK                         _______ _______ _______ _____ _____    ______ ____
ROOT
ATOM      1  C   UNL     1       0.834  10.710  18.451  0.00  0.00    +0.000 C 
ENDROOT
BRANCH   1   2
ATOM      2  O   UNL     1       1.060  11.371  19.695  0.00  0.00    +0.000 OA
BRANCH   2   7
ATOM      3  C   UNL     1      -0.129   9.203  22.477  0.00  0.00    +0.000 A 
ATOM      4  C   UNL     1      -0.907  10.135  23.164  0.00  0.00    +0.000 A 
ATOM      5  C   UNL     1      -1.025  11.442  22.689  0.00  0.00    +0.000 A 
ATOM      6  C   UNL     1      -0.333  11.791  21.515  0.00  0.00    +0.000 A 
ATOM      7  C   UNL     1       0.458  10.867  20.818  0.00  0.00    +0.000 A 
ATOM      8  C   UNL     1       0.552   9.565  21.305  0.00  0.00    +0.000 A 
BRANCH   5   9
ATOM      9  C   UNL     1      -1.938  12.439  23.372  0.00  0.00    +0.000 C 
BRANCH   9  10
ATOM     10  N   UNL     1      -3.389  12.168  23.230  0.00  0.00    +0.000 NA
ATOM     11  C   UNL     1      -4.117  12.621  24.428  0.00  0.00    +0.000 C 
ATOM     12  C   UNL     1      -5.638  12.586  24.272  0.00  0.00    +0.000 C 
ATOM     13  C   UNL     1      -6.083  13.371  23.047  0.00  0.00    +0.000 C 
ATOM     14  C   UNL     1      -5.386  12.807  21.819  0.00  0.00    +0.000 C 
ATOM     15  C   UNL     1      -3.867  12.828  21.997  0.00  0.00    +0.000 C 
ENDBRANCH   9  10
ENDBRANCH   5   9
ENDBRANCH   2   7
ENDBRANCH   1   2
BRANCH   1  16
ATOM     16  C   UNL     1       2.094   9.934  18.036  0.00  0.00    +0.000 C 
BRANCH  16  17
ATOM     17  C   UNL     1       1.861   8.452  17.658  0.00  0.00    +0.000 C 
BRANCH  17  18
ATOM     18  N   UNL     1       3.146   7.753  17.781  0.00  0.00    +0.000 N 
ATOM     19  C   UNL     1       3.199   6.501  18.427  0.00  0.00    +0.000 A 
ATOM     20  C   UNL     1       4.397   5.798  18.286  0.00  0.00    +0.000 A 
ATOM     21  C   UNL     1       4.540   4.532  18.840  0.00  0.00    +0.000 A 
ATOM     22  C   UNL     1       3.536   4.034  19.660  0.00  0.00    +0.000 A 
ATOM     23  C   UNL     1       3.706   2.803  20.322  0.00  0.00    +0.000 A 
ATOM     24  C   UNL     1       2.772   2.377  21.257  0.00  0.00    +0.000 A 
ATOM     25  C   UNL     1       1.648   3.163  21.493  0.00  0.00    +0.000 A 
ATOM     26  C   UNL     1       1.459   4.358  20.777  0.00  0.00    +0.000 A 
ATOM     27  C   UNL     1       2.387   4.835  19.852  0.00  0.00    +0.000 A 
ATOM     28  N   UNL     1       2.207   6.025  19.211  0.00  0.00    +0.000 NA
ATOM     29  H   UNL     1       3.589   7.657  16.874  0.00  0.00    +0.000 HD
ENDBRANCH  17  18
ENDBRANCH  16  17
ENDBRANCH   1  16
TORSDOF 7
ENDMDL
