MODEL 1
REMARK VINA RESULT:      -7.6      0.000      0.000
REMARK  Name = 
REMARK  5 active torsions:
REMARK  status: ('A' for Active; 'I' for Inactive)
REMARK    1  A    between atoms: C_1  and  N_2
REMARK    2  A    between atoms: C_3  and  C_5
REMARK    3  A    between atoms: C_8  and  O_9
REMARK    4  A    between atoms: O_9  and  C_10
REMARK    5  A    between atoms: C_13  and  C_14
REMARK                            x       y       z     vdW  Elec       q    Type
REMARK                         _______ _______ _______ _____ _____    ______ ____
ROOT
ATOM      1  C   UNL     1       4.803   4.058  17.248  0.00  0.00    +0.000 A 
ATOM      2  C   UNL     1       4.360   4.919  18.234  0.00  0.00    +0.000 A 
ATOM      3  C   UNL     1       3.167   4.463  18.902  0.00  0.00    +0.000 A 
ATOM      4  C   UNL     1       2.386   5.044  19.928  0.00  0.00    +0.000 A 
ATOM      5  C   UNL     1       1.226   4.365  20.295  0.00  0.00    +0.000 A 
ATOM      6  N   UNL     1       0.856   3.159  19.820  0.00  0.00    +0.000 NA
ATOM      7  C   UNL     1       1.631   2.569  18.885  0.00  0.00    +0.000 A 
ATOM      8  C   UNL     1       2.765   3.223  18.401  0.00  0.00    +0.000 A 
ATOM      9  S   UNL     1       3.821   2.663  17.171  0.00  0.00    +0.000 S 
ENDROOT
BRANCH   1  12
ATOM     10  C   UNL     1       6.647   4.481  14.001  0.00  0.00    +0.000 C 
ATOM     11  N   UNL     1       5.641   4.319  15.015  0.00  0.00    +0.000 N 
ATOM     12  C   UNL     1       5.946   4.243  16.360  0.00  0.00    +0.000 C 
ATOM     13  O   UNL     1       7.103   4.334  16.765  0.00  0.00    +0.000 OA
ATOM     14  H   UNL     1       4.671   4.226  14.740  0.00  0.00    +0.000 HD
ENDBRANCH   1  12
BRANCH   4  15
ATOM     15  O   UNL     1       2.753   6.265  20.456  0.00  0.00    +0.000 OA
BRANCH  15  16
ATOM     16  C   UNL     1       2.127   7.402  19.996  0.00  0.00    +0.000 A 
ATOM     17  C   UNL     1       2.249   7.886  18.689  0.00  0.00    +0.000 A 
ATOM     18  C   UNL     1       1.597   9.062  18.315  0.00  0.00    +0.000 A 
ATOM     19  C   UNL     1       0.766   9.731  19.219  0.00  0.00    +0.000 A 
ATOM     20  C   UNL     1       0.597   9.216  20.511  0.00  0.00    +0.000 A 
ATOM     21  C   UNL     1       1.282   8.057  20.897  0.00  0.00    +0.000 A 
BRANCH  19  22
ATOM     22  C   UNL     1       0.040  10.944  18.763  0.00  0.00    +0.000 C 
ATOM     23  N   UNL     1       0.426  12.140  19.132  0.00  0.00    +0.000 NA
ATOM     24  C   UNL     1      -0.536  13.079  18.504  0.00  0.00    +0.000 C 
ATOM     25  C   UNL     1      -1.527  12.236  17.699  0.00  0.00    +0.000 C 
ATOM     26  N   UNL     1      -1.048  10.891  17.926  0.00  0.00    +0.000 N 
ATOM     27  H   UNL     1      -1.751  10.193  18.135  0.00  0.00    +0.000 HD
ENDBRANCH  19  22
ENDBRANCH  15  16
ENDBRANCH   4  15
TORSDOF 4
ENDMDL
MODEL 2
REMARK VINA RESULT:      -7.5      1.790      1.960
REMARK  Name = 
REMARK  5 active torsions:
REMARK  status: ('A' for Active; 'I' for Inactive)
REMARK    1  A    between atoms: C_1  and  N_2
REMARK    2  A    between atoms: C_3  and  C_5
REMARK    3  A    between atoms: C_8  and  O_9
REMARK    4  A    between atoms: O_9  and  C_10
REMARK    5  A    between atoms: C_13  and  C_14
REMARK                            x       y       z     vdW  Elec       q    Type
REMARK                         _______ _______ _______ _____ _____    ______ ____
ROOT
ATOM      1  C   UNL     1       5.571   5.754  17.326  0.00  0.00    +0.000 A 
ATOM      2  C   UNL     1       4.706   6.032  18.367  0.00  0.00    +0.000 A 
ATOM      3  C   UNL     1       3.547   5.176  18.396  0.00  0.00    +0.000 A 
ATOM      4  C   UNL     1       2.427   5.142  19.258  0.00  0.00    +0.000 A 
ATOM      5  C   UNL     1       1.425   4.223  18.951  0.00  0.00    +0.000 A 
ATOM      6  N   UNL     1       1.496   3.307  17.964  0.00  0.00    +0.000 NA
ATOM      7  C   UNL     1       2.592   3.293  17.175  0.00  0.00    +0.000 A 
ATOM      8  C   UNL     1       3.602   4.237  17.363  0.00  0.00    +0.000 A 
ATOM      9  S   UNL     1       5.023   4.415  16.418  0.00  0.00    +0.000 S 
ENDROOT
BRANCH   1  12
ATOM     10  C   UNL     1       8.214   8.421  17.511  0.00  0.00    +0.000 C 
ATOM     11  N   UNL     1       7.055   7.598  17.726  0.00  0.00    +0.000 N 
ATOM     12  C   UNL     1       6.804   6.458  16.987  0.00  0.00    +0.000 C 
ATOM     13  O   UNL     1       7.578   6.073  16.114  0.00  0.00    +0.000 OA
ATOM     14  H   UNL     1       6.375   7.873  18.425  0.00  0.00    +0.000 HD
ENDBRANCH   1  12
BRANCH   4  15
ATOM     15  O   UNL     1       2.338   6.048  20.295  0.00  0.00    +0.000 OA
BRANCH  15  16
ATOM     16  C   UNL     1       1.834   7.303  20.038  0.00  0.00    +0.000 A 
ATOM     17  C   UNL     1       1.955   7.956  18.807  0.00  0.00    +0.000 A 
ATOM     18  C   UNL     1       1.435   9.240  18.642  0.00  0.00    +0.000 A 
ATOM     19  C   UNL     1       0.731   9.859  19.681  0.00  0.00    +0.000 A 
ATOM     20  C   UNL     1       0.559   9.184  20.896  0.00  0.00    +0.000 A 
ATOM     21  C   UNL     1       1.115   7.910  21.073  0.00  0.00    +0.000 A 
BRANCH  19  22
ATOM     22  C   UNL     1       0.138  11.201  19.444  0.00  0.00    +0.000 C 
ATOM     23  N   UNL     1      -0.588  11.789  20.361  0.00  0.00    +0.000 NA
ATOM     24  C   UNL     1      -1.013  13.079  19.765  0.00  0.00    +0.000 C 
ATOM     25  C   UNL     1      -0.402  13.150  18.365  0.00  0.00    +0.000 C 
ATOM     26  N   UNL     1       0.325  11.904  18.278  0.00  0.00    +0.000 N 
ATOM     27  H   UNL     1       0.231  11.387  17.413  0.00  0.00    +0.000 HD
ENDBRANCH  19  22
ENDBRANCH  15  16
ENDBRANCH   4  15
TORSDOF 4
ENDMDL
MODEL 3
REMARK VINA RESULT:      -7.4      0.696      1.386
REMARK  Name = 
REMARK  5 active torsions:
REMARK  status: ('A' for Active; 'I' for Inactive)
REMARK    1  A    between atoms: C_1  and  N_2
REMARK    2  A    between atoms: C_3  and  C_5
REMARK    3  A    between atoms: C_8  and  O_9
REMARK    4  A    between atoms: O_9  and  C_10
REMARK    5  A    between atoms: C_13  and  C_14
REMARK                            x       y       z     vdW  Elec       q    Type
REMARK                         _______ _______ _______ _____ _____    ______ ____
ROOT
ATOM      1  C   UNL     1       5.411   4.282  16.770  0.00  0.00    +0.000 A 
ATOM      2  C   UNL     1       4.880   5.088  17.759  0.00  0.00    +0.000 A 
ATOM      3  C   UNL     1       3.638   4.594  18.300  0.00  0.00    +0.000 A 
ATOM      4  C   UNL     1       2.771   5.118  19.285  0.00  0.00    +0.000 A 
ATOM      5  C   UNL     1       1.588   4.417  19.517  0.00  0.00    +0.000 A 
ATOM      6  N   UNL     1       1.268   3.237  18.950  0.00  0.00    +0.000 NA
ATOM      7  C   UNL     1       2.123   2.700  18.053  0.00  0.00    +0.000 A 
ATOM      8  C   UNL     1       3.289   3.382  17.702  0.00  0.00    +0.000 A 
ATOM      9  S   UNL     1       4.448   2.890  16.537  0.00  0.00    +0.000 S 
ENDROOT
BRANCH   1  12
ATOM     10  C   UNL     1       7.503   5.025  13.738  0.00  0.00    +0.000 C 
ATOM     11  N   UNL     1       6.420   4.788  14.653  0.00  0.00    +0.000 N 
ATOM     12  C   UNL     1       6.622   4.517  15.992  0.00  0.00    +0.000 C 
ATOM     13  O   UNL     1       7.750   4.487  16.480  0.00  0.00    +0.000 OA
ATOM     14  H   UNL     1       5.469   4.788  14.304  0.00  0.00    +0.000 HD
ENDBRANCH   1  12
BRANCH   4  15
ATOM     15  O   UNL     1       3.084   6.310  19.906  0.00  0.00    +0.000 OA
BRANCH  15  16
ATOM     16  C   UNL     1       2.298   7.413  19.659  0.00  0.00    +0.000 A 
ATOM     17  C   UNL     1       1.542   8.069  20.637  0.00  0.00    +0.000 A 
ATOM     18  C   UNL     1       0.753   9.167  20.292  0.00  0.00    +0.000 A 
ATOM     19  C   UNL     1       0.760   9.662  18.984  0.00  0.00    +0.000 A 
ATOM     20  C   UNL     1       1.561   9.042  18.016  0.00  0.00    +0.000 A 
ATOM     21  C   UNL     1       2.322   7.917  18.355  0.00  0.00    +0.000 A 
BRANCH  19  22
ATOM     22  C   UNL     1      -0.045  10.872  18.672  0.00  0.00    +0.000 C 
ATOM     23  N   UNL     1      -1.349  10.808  18.575  0.00  0.00    +0.000 NA
ATOM     24  C   UNL     1      -1.791  12.184  18.241  0.00  0.00    +0.000 C 
ATOM     25  C   UNL     1      -0.536  13.056  18.178  0.00  0.00    +0.000 C 
ATOM     26  N   UNL     1       0.515  12.112  18.487  0.00  0.00    +0.000 N 
ATOM     27  H   UNL     1       1.345  12.158  17.909  0.00  0.00    +0.000 HD
ENDBRANCH  19  22
ENDBRANCH  15  16
ENDBRANCH   4  15
TORSDOF 4
ENDMDL
MODEL 4
REMARK VINA RESULT:      -7.3      3.875      8.501
REMARK  Name = 
REMARK  5 active torsions:
REMARK  status: ('A' for Active; 'I' for Inactive)
REMARK    1  A    between atoms: C_1  and  N_2
REMARK    2  A    between atoms: C_3  and  C_5
REMARK    3  A    between atoms: C_8  and  O_9
REMARK    4  A    between atoms: O_9  and  C_10
REMARK    5  A    between atoms: C_13  and  C_14
REMARK                            x       y       z     vdW  Elec       q    Type
REMARK                         _______ _______ _______ _____ _____    ______ ____
ROOT
ATOM      1  C   UNL     1      -2.543  11.151  17.721  0.00  0.00    +0.000 A 
ATOM      2  C   UNL     1      -1.244  10.702  17.867  0.00  0.00    +0.000 A 
ATOM      3  C   UNL     1      -0.623  11.128  19.097  0.00  0.00    +0.000 A 
ATOM      4  C   UNL     1       0.676  10.917  19.613  0.00  0.00    +0.000 A 
ATOM      5  C   UNL     1       0.984  11.549  20.816  0.00  0.00    +0.000 A 
ATOM      6  N   UNL     1       0.109  12.254  21.563  0.00  0.00    +0.000 NA
ATOM      7  C   UNL     1      -1.152  12.406  21.105  0.00  0.00    +0.000 A 
ATOM      8  C   UNL     1      -1.517  11.876  19.867  0.00  0.00    +0.000 A 
ATOM      9  S   UNL     1      -3.042  12.031  19.098  0.00  0.00    +0.000 S 
ENDROOT
BRANCH   1  12
ATOM     10  C   UNL     1      -3.557  10.134  14.248  0.00  0.00    +0.000 C 
ATOM     11  N   UNL     1      -2.834  10.391  15.464  0.00  0.00    +0.000 N 
ATOM     12  C   UNL     1      -3.430  10.939  16.582  0.00  0.00    +0.000 C 
ATOM     13  O   UNL     1      -4.627  11.217  16.604  0.00  0.00    +0.000 OA
ATOM     14  H   UNL     1      -1.841  10.194  15.501  0.00  0.00    +0.000 HD
ENDBRANCH   1  12
BRANCH   4  15
ATOM     15  O   UNL     1       1.587  10.177  18.887  0.00  0.00    +0.000 OA
BRANCH  15  16
ATOM     16  C   UNL     1       1.759   8.847  19.198  0.00  0.00    +0.000 A 
ATOM     17  C   UNL     1       1.436   8.287  20.438  0.00  0.00    +0.000 A 
ATOM     18  C   UNL     1       1.667   6.932  20.675  0.00  0.00    +0.000 A 
ATOM     19  C   UNL     1       2.160   6.108  19.658  0.00  0.00    +0.000 A 
ATOM     20  C   UNL     1       2.430   6.655  18.397  0.00  0.00    +0.000 A 
ATOM     21  C   UNL     1       2.234   8.023  18.173  0.00  0.00    +0.000 A 
BRANCH  19  22
ATOM     22  C   UNL     1       2.332   4.657  19.932  0.00  0.00    +0.000 C 
ATOM     23  N   UNL     1       3.464   4.052  19.672  0.00  0.00    +0.000 NA
ATOM     24  C   UNL     1       3.252   2.633  20.054  0.00  0.00    +0.000 C 
ATOM     25  C   UNL     1       1.825   2.521  20.591  0.00  0.00    +0.000 C 
ATOM     26  N   UNL     1       1.342   3.879  20.480  0.00  0.00    +0.000 N 
ATOM     27  H   UNL     1       0.409   3.996  20.106  0.00  0.00    +0.000 HD
ENDBRANCH  19  22
ENDBRANCH  15  16
ENDBRANCH   4  15
TORSDOF 4
ENDMDL
MODEL 5
REMARK VINA RESULT:      -7.3      3.843      8.399
REMARK  Name = 
REMARK  5 active torsions:
REMARK  status: ('A' for Active; 'I' for Inactive)
REMARK    1  A    between atoms: C_1  and  N_2
REMARK    2  A    between atoms: C_3  and  C_5
REMARK    3  A    between atoms: C_8  and  O_9
REMARK    4  A    between atoms: O_9  and  C_10
REMARK    5  A    between atoms: C_13  and  C_14
REMARK                            x       y       z     vdW  Elec       q    Type
REMARK                         _______ _______ _______ _____ _____    ______ ____
ROOT
ATOM      1  C   UNL     1      -2.537  10.964  17.485  0.00  0.00    +0.000 A 
ATOM      2  C   UNL     1      -1.236  10.519  17.623  0.00  0.00    +0.000 A 
ATOM      3  C   UNL     1      -0.623  10.912  18.867  0.00  0.00    +0.000 A 
ATOM      4  C   UNL     1       0.675  10.693  19.382  0.00  0.00    +0.000 A 
ATOM      5  C   UNL     1       0.975  11.291  20.605  0.00  0.00    +0.000 A 
ATOM      6  N   UNL     1       0.093  11.968  21.369  0.00  0.00    +0.000 NA
ATOM      7  C   UNL     1      -1.167  12.126  20.910  0.00  0.00    +0.000 A 
ATOM      8  C   UNL     1      -1.523  11.631  19.656  0.00  0.00    +0.000 A 
ATOM      9  S   UNL     1      -3.047  11.801  18.885  0.00  0.00    +0.000 S 
ENDROOT
BRANCH   1  12
ATOM     10  C   UNL     1      -3.524  10.080  13.969  0.00  0.00    +0.000 C 
ATOM     11  N   UNL     1      -2.808  10.301  15.195  0.00  0.00    +0.000 N 
ATOM     12  C   UNL     1      -3.418  10.781  16.337  0.00  0.00    +0.000 C 
ATOM     13  O   UNL     1      -4.623  11.026  16.370  0.00  0.00    +0.000 OA
ATOM     14  H   UNL     1      -1.811  10.129  15.224  0.00  0.00    +0.000 HD
ENDBRANCH   1  12
BRANCH   4  15
ATOM     15  O   UNL     1       1.594   9.980  18.638  0.00  0.00    +0.000 OA
BRANCH  15  16
ATOM     16  C   UNL     1       1.847   8.669  18.976  0.00  0.00    +0.000 A 
ATOM     17  C   UNL     1       2.461   7.748  18.122  0.00  0.00    +0.000 A 
ATOM     18  C   UNL     1       2.657   6.431  18.539  0.00  0.00    +0.000 A 
ATOM     19  C   UNL     1       2.304   6.037  19.833  0.00  0.00    +0.000 A 
ATOM     20  C   UNL     1       1.742   6.973  20.711  0.00  0.00    +0.000 A 
ATOM     21  C   UNL     1       1.510   8.285  20.277  0.00  0.00    +0.000 A 
BRANCH  19  22
ATOM     22  C   UNL     1       2.588   4.642  20.260  0.00  0.00    +0.000 C 
ATOM     23  N   UNL     1       1.996   4.123  21.306  0.00  0.00    +0.000 NA
ATOM     24  C   UNL     1       2.536   2.746  21.427  0.00  0.00    +0.000 C 
ATOM     25  C   UNL     1       3.521   2.548  20.273  0.00  0.00    +0.000 C 
ATOM     26  N   UNL     1       3.457   3.818  19.587  0.00  0.00    +0.000 N 
ATOM     27  H   UNL     1       4.342   4.222  19.303  0.00  0.00    +0.000 HD
ENDBRANCH  19  22
ENDBRANCH  15  16
ENDBRANCH   4  15
TORSDOF 4
ENDMDL
MODEL 6
REMARK VINA RESULT:      -7.2      4.109      8.460
REMARK  Name = 
REMARK  5 active torsions:
REMARK  status: ('A' for Active; 'I' for Inactive)
REMARK    1  A    between atoms: C_1  and  N_2
REMARK    2  A    between atoms: C_3  and  C_5
REMARK    3  A    between atoms: C_8  and  O_9
REMARK    4  A    between atoms: O_9  and  C_10
REMARK    5  A    between atoms: C_13  and  C_14
REMARK                            x       y       z     vdW  Elec       q    Type
REMARK                         _______ _______ _______ _____ _____    ______ ____
ROOT
ATOM      1  C   UNL     1      -3.055  10.632  15.809  0.00  0.00    +0.000 A 
ATOM      2  C   UNL     1      -1.881  10.802  16.517  0.00  0.00    +0.000 A 
ATOM      3  C   UNL     1      -2.078  11.361  17.832  0.00  0.00    +0.000 A 
ATOM      4  C   UNL     1      -1.160  11.713  18.848  0.00  0.00    +0.000 A 
ATOM      5  C   UNL     1      -1.686  12.317  19.988  0.00  0.00    +0.000 A 
ATOM      6  N   UNL     1      -3.001  12.493  20.230  0.00  0.00    +0.000 NA
ATOM      7  C   UNL     1      -3.887  12.101  19.290  0.00  0.00    +0.000 A 
ATOM      8  C   UNL     1      -3.436  11.565  18.082  0.00  0.00    +0.000 A 
ATOM      9  S   UNL     1      -4.407  11.083  16.753  0.00  0.00    +0.000 S 
ENDROOT
BRANCH   1  12
ATOM     10  C   UNL     1      -4.824   9.624  12.651  0.00  0.00    +0.000 C 
ATOM     11  N   UNL     1      -4.498  10.100  13.967  0.00  0.00    +0.000 N 
ATOM     12  C   UNL     1      -3.203  10.138  14.445  0.00  0.00    +0.000 C 
ATOM     13  O   UNL     1      -2.250   9.785  13.753  0.00  0.00    +0.000 OA
ATOM     14  H   UNL     1      -5.244  10.393  14.587  0.00  0.00    +0.000 HD
ENDBRANCH   1  12
BRANCH   4  15
ATOM     15  O   UNL     1       0.191  11.520  18.643  0.00  0.00    +0.000 OA
BRANCH  15  16
ATOM     16  C   UNL     1       0.740  10.294  18.947  0.00  0.00    +0.000 A 
ATOM     17  C   UNL     1       0.656   9.692  20.207  0.00  0.00    +0.000 A 
ATOM     18  C   UNL     1       1.264   8.457  20.434  0.00  0.00    +0.000 A 
ATOM     19  C   UNL     1       1.903   7.779  19.391  0.00  0.00    +0.000 A 
ATOM     20  C   UNL     1       1.938   8.353  18.114  0.00  0.00    +0.000 A 
ATOM     21  C   UNL     1       1.361   9.611  17.897  0.00  0.00    +0.000 A 
BRANCH  19  22
ATOM     22  C   UNL     1       2.482   6.437  19.658  0.00  0.00    +0.000 C 
ATOM     23  N   UNL     1       3.663   6.108  19.198  0.00  0.00    +0.000 NA
ATOM     24  C   UNL     1       3.889   4.711  19.644  0.00  0.00    +0.000 C 
ATOM     25  C   UNL     1       2.658   4.292  20.449  0.00  0.00    +0.000 C 
ATOM     26  N   UNL     1       1.837   5.481  20.404  0.00  0.00    +0.000 N 
ATOM     27  H   UNL     1       0.852   5.341  20.214  0.00  0.00    +0.000 HD
ENDBRANCH  19  22
ENDBRANCH  15  16
ENDBRANCH   4  15
TORSDOF 4
ENDMDL
MODEL 7
REMARK VINA RESULT:      -7.2      0.646      1.159
REMARK  Name = 
REMARK  5 active torsions:
REMARK  status: ('A' for Active; 'I' for Inactive)
REMARK    1  A    between atoms: C_1  and  N_2
REMARK    2  A    between atoms: C_3  and  C_5
REMARK    3  A    between atoms: C_8  and  O_9
REMARK    4  A    between atoms: O_9  and  C_10
REMARK    5  A    between atoms: C_13  and  C_14
REMARK                            x       y       z     vdW  Elec       q    Type
REMARK                         _______ _______ _______ _____ _____    ______ ____
ROOT
ATOM      1  C   UNL     1       4.940   4.194  18.003  0.00  0.00    +0.000 A 
ATOM      2  C   UNL     1       4.344   5.003  18.950  0.00  0.00    +0.000 A 
ATOM      3  C   UNL     1       3.059   4.522  19.393  0.00  0.00    +0.000 A 
ATOM      4  C   UNL     1       2.124   5.053  20.310  0.00  0.00    +0.000 A 
ATOM      5  C   UNL     1       0.919   4.366  20.448  0.00  0.00    +0.000 A 
ATOM      6  N   UNL     1       0.630   3.191  19.853  0.00  0.00    +0.000 NA
ATOM      7  C   UNL     1       1.545   2.647  19.023  0.00  0.00    +0.000 A 
ATOM      8  C   UNL     1       2.742   3.316  18.765  0.00  0.00    +0.000 A 
ATOM      9  S   UNL     1       3.982   2.814  17.690  0.00  0.00    +0.000 S 
ENDROOT
BRANCH   1  12
ATOM     10  C   UNL     1       7.273   4.857  15.132  0.00  0.00    +0.000 C 
ATOM     11  N   UNL     1       6.119   4.639  15.960  0.00  0.00    +0.000 N 
ATOM     12  C   UNL     1       6.210   4.417  17.320  0.00  0.00    +0.000 C 
ATOM     13  O   UNL     1       7.293   4.417  17.902  0.00  0.00    +0.000 OA
ATOM     14  H   UNL     1       5.200   4.615  15.534  0.00  0.00    +0.000 HD
ENDBRANCH   1  12
BRANCH   4  15
ATOM     15  O   UNL     1       2.402   6.240  20.958  0.00  0.00    +0.000 OA
BRANCH  15  16
ATOM     16  C   UNL     1       1.790   7.394  20.520  0.00  0.00    +0.000 A 
ATOM     17  C   UNL     1       0.908   8.153  21.296  0.00  0.00    +0.000 A 
ATOM     18  C   UNL     1       0.314   9.297  20.763  0.00  0.00    +0.000 A 
ATOM     19  C   UNL     1       0.643   9.732  19.475  0.00  0.00    +0.000 A 
ATOM     20  C   UNL     1       1.570   9.005  18.717  0.00  0.00    +0.000 A 
ATOM     21  C   UNL     1       2.137   7.836  19.240  0.00  0.00    +0.000 A 
BRANCH  19  22
ATOM     22  C   UNL     1       0.037  10.990  18.968  0.00  0.00    +0.000 C 
ATOM     23  N   UNL     1       0.735  12.096  18.900  0.00  0.00    +0.000 NA
ATOM     24  C   UNL     1      -0.197  13.122  18.371  0.00  0.00    +0.000 C 
ATOM     25  C   UNL     1      -1.538  12.429  18.128  0.00  0.00    +0.000 C 
ATOM     26  N   UNL     1      -1.262  11.068  18.529  0.00  0.00    +0.000 N 
ATOM     27  H   UNL     1      -1.966  10.616  19.100  0.00  0.00    +0.000 HD
ENDBRANCH  19  22
ENDBRANCH  15  16
ENDBRANCH   4  15
TORSDOF 4
ENDMDL
MODEL 8
REMARK VINA RESULT:      -7.2      1.330      1.665
REMARK  Name = 
REMARK  5 active torsions:
REMARK  status: ('A' for Active; 'I' for Inactive)
REMARK    1  A    between atoms: C_1  and  N_2
REMARK    2  A    between atoms: C_3  and  C_5
REMARK    3  A    between atoms: C_8  and  O_9
REMARK    4  A    between atoms: O_9  and  C_10
REMARK    5  A    between atoms: C_13  and  C_14
REMARK                            x       y       z     vdW  Elec       q    Type
REMARK                         _______ _______ _______ _____ _____    ______ ____
ROOT
ATOM      1  C   UNL     1       4.473   4.969  16.758  0.00  0.00    +0.000 A 
ATOM      2  C   UNL     1       4.094   5.861  17.742  0.00  0.00    +0.000 A 
ATOM      3  C   UNL     1       3.131   5.320  18.669  0.00  0.00    +0.000 A 
ATOM      4  C   UNL     1       2.475   5.894  19.782  0.00  0.00    +0.000 A 
ATOM      5  C   UNL     1       1.522   5.106  20.425  0.00  0.00    +0.000 A 
ATOM      6  N   UNL     1       1.261   3.816  20.129  0.00  0.00    +0.000 NA
ATOM      7  C   UNL     1       1.930   3.243  19.106  0.00  0.00    +0.000 A 
ATOM      8  C   UNL     1       2.839   3.990  18.356  0.00  0.00    +0.000 A 
ATOM      9  S   UNL     1       3.721   3.452  16.987  0.00  0.00    +0.000 S 
ENDROOT
BRANCH   1  12
ATOM     10  C   UNL     1       6.542   4.176  13.722  0.00  0.00    +0.000 C 
ATOM     11  N   UNL     1       5.650   4.117  14.848  0.00  0.00    +0.000 N 
ATOM     12  C   UNL     1       5.387   5.213  15.647  0.00  0.00    +0.000 C 
ATOM     13  O   UNL     1       5.890   6.311  15.420  0.00  0.00    +0.000 OA
ATOM     14  H   UNL     1       5.216   3.235  15.090  0.00  0.00    +0.000 HD
ENDBRANCH   1  12
BRANCH   4  15
ATOM     15  O   UNL     1       2.741   7.203  20.129  0.00  0.00    +0.000 OA
BRANCH  15  16
ATOM     16  C   UNL     1       1.718   8.123  20.081  0.00  0.00    +0.000 A 
ATOM     17  C   UNL     1       0.899   8.439  21.171  0.00  0.00    +0.000 A 
ATOM     18  C   UNL     1      -0.132   9.367  21.025  0.00  0.00    +0.000 A 
ATOM     19  C   UNL     1      -0.316  10.039  19.812  0.00  0.00    +0.000 A 
ATOM     20  C   UNL     1       0.540   9.767  18.737  0.00  0.00    +0.000 A 
ATOM     21  C   UNL     1       1.550   8.806  18.873  0.00  0.00    +0.000 A 
BRANCH  19  22
ATOM     22  C   UNL     1      -1.384  11.067  19.717  0.00  0.00    +0.000 C 
ATOM     23  N   UNL     1      -1.484  12.021  20.608  0.00  0.00    +0.000 NA
ATOM     24  C   UNL     1      -2.659  12.828  20.198  0.00  0.00    +0.000 C 
ATOM     25  C   UNL     1      -3.212  12.198  18.918  0.00  0.00    +0.000 C 
ATOM     26  N   UNL     1      -2.307  11.092  18.699  0.00  0.00    +0.000 N 
ATOM     27  H   UNL     1      -2.729  10.208  18.443  0.00  0.00    +0.000 HD
ENDBRANCH  19  22
ENDBRANCH  15  16
ENDBRANCH   4  15
TORSDOF 4
ENDMDL
MODEL 9
REMARK VINA RESULT:      -7.2      1.197      1.465
REMARK  Name = 
REMARK  5 active torsions:
REMARK  status: ('A' for Active; 'I' for Inactive)
REMARK    1  A    between atoms: C_1  and  N_2
REMARK    2  A    between atoms: C_3  and  C_5
REMARK    3  A    between atoms: C_8  and  O_9
REMARK    4  A    between atoms: O_9  and  C_10
REMARK    5  A    between atoms: C_13  and  C_14
REMARK                            x       y       z     vdW  Elec       q    Type
REMARK                         _______ _______ _______ _____ _____    ______ ____
ROOT
ATOM      1  C   UNL     1       5.521   5.068  16.443  0.00  0.00    +0.000 A 
ATOM      2  C   UNL     1       4.941   5.761  17.487  0.00  0.00    +0.000 A 
ATOM      3  C   UNL     1       3.773   5.112  18.030  0.00  0.00    +0.000 A 
ATOM      4  C   UNL     1       2.886   5.490  19.064  0.00  0.00    +0.000 A 
ATOM      5  C   UNL     1       1.790   4.658  19.286  0.00  0.00    +0.000 A 
ATOM      6  N   UNL     1       1.576   3.482  18.661  0.00  0.00    +0.000 NA
ATOM      7  C   UNL     1       2.454   3.085  17.716  0.00  0.00    +0.000 A 
ATOM      8  C   UNL     1       3.533   3.903  17.374  0.00  0.00    +0.000 A 
ATOM      9  S   UNL     1       4.701   3.597  16.156  0.00  0.00    +0.000 S 
ENDROOT
BRANCH   1  12
ATOM     10  C   UNL     1       7.752   5.310  13.428  0.00  0.00    +0.000 C 
ATOM     11  N   UNL     1       6.681   5.023  14.342  0.00  0.00    +0.000 N 
ATOM     12  C   UNL     1       6.678   5.468  15.649  0.00  0.00    +0.000 C 
ATOM     13  O   UNL     1       7.591   6.160  16.096  0.00  0.00    +0.000 OA
ATOM     14  H   UNL     1       5.907   4.446  14.033  0.00  0.00    +0.000 HD
ENDBRANCH   1  12
BRANCH   4  15
ATOM     15  O   UNL     1       3.093   6.674  19.742  0.00  0.00    +0.000 OA
BRANCH  15  16
ATOM     16  C   UNL     1       2.176   7.691  19.595  0.00  0.00    +0.000 A 
ATOM     17  C   UNL     1       1.884   8.308  18.374  0.00  0.00    +0.000 A 
ATOM     18  C   UNL     1       0.957   9.350  18.321  0.00  0.00    +0.000 A 
ATOM     19  C   UNL     1       0.266   9.743  19.471  0.00  0.00    +0.000 A 
ATOM     20  C   UNL     1       0.515   9.088  20.684  0.00  0.00    +0.000 A 
ATOM     21  C   UNL     1       1.474   8.068  20.743  0.00  0.00    +0.000 A 
BRANCH  19  22
ATOM     22  C   UNL     1      -0.759  10.813  19.360  0.00  0.00    +0.000 C 
ATOM     23  N   UNL     1      -1.540  10.893  18.313  0.00  0.00    +0.000 NA
ATOM     24  C   UNL     1      -2.403  12.077  18.549  0.00  0.00    +0.000 C 
ATOM     25  C   UNL     1      -2.007  12.657  19.908  0.00  0.00    +0.000 C 
ATOM     26  N   UNL     1      -0.960  11.757  20.338  0.00  0.00    +0.000 N 
ATOM     27  H   UNL     1      -0.134  12.185  20.737  0.00  0.00    +0.000 HD
ENDBRANCH  19  22
ENDBRANCH  15  16
ENDBRANCH   4  15
TORSDOF 4
ENDMDL
