MODEL 1
REMARK VINA RESULT:      -7.2      0.000      0.000
REMARK  Name = 
REMARK  5 active torsions:
REMARK  status: ('A' for Active; 'I' for Inactive)
REMARK    1  A    between atoms: C_2  and  C_3
REMARK    2  A    between atoms: N_8  and  C_9
REMARK    3  A    between atoms: C_9  and  C_10
REMARK    4  A    between atoms: C_17  and  C_18
REMARK    5  A    between atoms: C_22  and  C_23
REMARK                            x       y       z     vdW  Elec       q    Type
REMARK                         _______ _______ _______ _____ _____    ______ ____
ROOT
ATOM      1  O   UNL     1      -1.147  13.926  18.961  0.00  0.00    +0.000 OA
ATOM      2  C   UNL     1      -0.368  13.021  19.279  0.00  0.00    +0.000 C 
ATOM      3  N   UNL     1      -0.862  11.704  19.353  0.00  0.00    +0.000 N 
ATOM      4  C   UNL     1      -0.058  10.669  19.769  0.00  0.00    +0.000 A 
ATOM      5  N   UNL     1       0.575   9.843  18.971  0.00  0.00    +0.000 NA
ATOM      6  C   UNL     1       1.262   8.915  19.729  0.00  0.00    +0.000 A 
ATOM      7  C   UNL     1       1.074   9.024  21.100  0.00  0.00    +0.000 A 
ATOM      8  S   UNL     1       0.034  10.351  21.442  0.00  0.00    +0.000 S 
ENDROOT
BRANCH   6   9
ATOM      9  C   UNL     1       2.137   7.931  19.102  0.00  0.00    +0.000 A 
ATOM     10  C   UNL     1       2.802   8.214  17.904  0.00  0.00    +0.000 A 
ATOM     11  C   UNL     1       3.625   7.258  17.307  0.00  0.00    +0.000 A 
ATOM     12  C   UNL     1       3.788   6.006  17.898  0.00  0.00    +0.000 A 
ATOM     13  C   UNL     1       3.135   5.695  19.100  0.00  0.00    +0.000 A 
ATOM     14  C   UNL     1       2.317   6.672  19.699  0.00  0.00    +0.000 A 
BRANCH  13  15
ATOM     15  C   UNL     1       3.295   4.336  19.737  0.00  0.00    +0.000 C 
ATOM     16  F   UNL     1       4.593   3.929  19.828  0.00  0.00    +0.000 F 
ATOM     17  F   UNL     1       2.802   4.287  21.006  0.00  0.00    +0.000 F 
ATOM     18  F   UNL     1       2.648   3.357  19.045  0.00  0.00    +0.000 F 
ENDBRANCH  13  15
ENDBRANCH   6   9
BRANCH   2  19
ATOM     19  C   UNL     1       1.040  13.312  19.594  0.00  0.00    +0.000 A 
ATOM     20  C   UNL     1       1.697  13.543  20.792  0.00  0.00    +0.000 A 
ATOM     21  C   UNL     1       3.070  13.882  20.627  0.00  0.00    +0.000 A 
ATOM     22  C   UNL     1       3.462  13.794  19.313  0.00  0.00    +0.000 A 
ATOM     23  S   UNL     1       2.168  13.355  18.289  0.00  0.00    +0.000 S 
ENDBRANCH   2  19
BRANCH   3  24
ATOM     24  C   UNL     1      -2.277  11.441  19.090  0.00  0.00    +0.000 C 
BRANCH  24  25
ATOM     25  C   UNL     1      -2.562  10.439  17.961  0.00  0.00    +0.000 C 
ATOM     26  C   UNL     1      -4.038  10.221  17.648  0.00  0.00    +0.000 C 
ATOM     27  C   UNL     1      -4.280  11.086  16.437  0.00  0.00    +0.000 C 
ATOM     28  C   UNL     1      -2.952  11.001  15.723  0.00  0.00    +0.000 C 
ATOM     29  O   UNL     1      -1.957  10.957  16.751  0.00  0.00    +0.000 OA
ENDBRANCH  24  25
ENDBRANCH   3  24
TORSDOF 5
ENDMDL
MODEL 2
REMARK VINA RESULT:      -6.9      5.505      8.413
REMARK  Name = 
REMARK  5 active torsions:
REMARK  status: ('A' for Active; 'I' for Inactive)
REMARK    1  A    between atoms: C_2  and  C_3
REMARK    2  A    between atoms: N_8  and  C_9
REMARK    3  A    between atoms: C_9  and  C_10
REMARK    4  A    between atoms: C_17  and  C_18
REMARK    5  A    between atoms: C_22  and  C_23
REMARK                            x       y       z     vdW  Elec       q    Type
REMARK                         _______ _______ _______ _____ _____    ______ ____
ROOT
ATOM      1  O   UNL     1       2.439   4.782  20.314  0.00  0.00    +0.000 OA
ATOM      2  C   UNL     1       3.226   5.142  19.433  0.00  0.00    +0.000 C 
ATOM      3  N   UNL     1       4.304   4.295  19.107  0.00  0.00    +0.000 N 
ATOM      4  C   UNL     1       5.249   4.676  18.184  0.00  0.00    +0.000 A 
ATOM      5  N   UNL     1       5.252   4.320  16.922  0.00  0.00    +0.000 NA
ATOM      6  C   UNL     1       6.361   4.860  16.300  0.00  0.00    +0.000 A 
ATOM      7  C   UNL     1       7.215   5.566  17.135  0.00  0.00    +0.000 A 
ATOM      8  S   UNL     1       6.586   5.578  18.736  0.00  0.00    +0.000 S 
ENDROOT
BRANCH   6   9
ATOM      9  C   UNL     1       6.565   4.708  14.863  0.00  0.00    +0.000 A 
ATOM     10  C   UNL     1       7.706   5.225  14.237  0.00  0.00    +0.000 A 
ATOM     11  C   UNL     1       7.882   5.085  12.860  0.00  0.00    +0.000 A 
ATOM     12  C   UNL     1       6.917   4.433  12.092  0.00  0.00    +0.000 A 
ATOM     13  C   UNL     1       5.767   3.904  12.694  0.00  0.00    +0.000 A 
ATOM     14  C   UNL     1       5.606   4.039  14.086  0.00  0.00    +0.000 A 
BRANCH  13  15
ATOM     15  C   UNL     1       4.712   3.209  11.866  0.00  0.00    +0.000 C 
ATOM     16  F   UNL     1       4.354   3.904  10.749  0.00  0.00    +0.000 F 
ATOM     17  F   UNL     1       5.109   1.983  11.427  0.00  0.00    +0.000 F 
ATOM     18  F   UNL     1       3.558   3.004  12.560  0.00  0.00    +0.000 F 
ENDBRANCH  13  15
ENDBRANCH   6   9
BRANCH   2  19
ATOM     19  C   UNL     1       3.057   6.435  18.750  0.00  0.00    +0.000 A 
ATOM     20  C   UNL     1       3.526   6.916  17.538  0.00  0.00    +0.000 A 
ATOM     21  C   UNL     1       3.193   8.281  17.305  0.00  0.00    +0.000 A 
ATOM     22  C   UNL     1       2.381   8.783  18.293  0.00  0.00    +0.000 A 
ATOM     23  S   UNL     1       2.069   7.628  19.512  0.00  0.00    +0.000 S 
ENDBRANCH   2  19
BRANCH   3  24
ATOM     24  C   UNL     1       4.488   3.038  19.833  0.00  0.00    +0.000 C 
BRANCH  24  25
ATOM     25  C   UNL     1       3.724   1.833  19.266  0.00  0.00    +0.000 C 
ATOM     26  C   UNL     1       2.300   1.667  19.787  0.00  0.00    +0.000 C 
ATOM     27  C   UNL     1       1.447   2.250  18.688  0.00  0.00    +0.000 C 
ATOM     28  C   UNL     1       2.244   1.901  17.455  0.00  0.00    +0.000 C 
ATOM     29  O   UNL     1       3.620   2.012  17.833  0.00  0.00    +0.000 OA
ENDBRANCH  24  25
ENDBRANCH   3  24
TORSDOF 5
ENDMDL
MODEL 3
REMARK VINA RESULT:      -6.8      0.847      1.247
REMARK  Name = 
REMARK  5 active torsions:
REMARK  status: ('A' for Active; 'I' for Inactive)
REMARK    1  A    between atoms: C_2  and  C_3
REMARK    2  A    between atoms: N_8  and  C_9
REMARK    3  A    between atoms: C_9  and  C_10
REMARK    4  A    between atoms: C_17  and  C_18
REMARK    5  A    between atoms: C_22  and  C_23
REMARK                            x       y       z     vdW  Elec       q    Type
REMARK                         _______ _______ _______ _____ _____    ______ ____
ROOT
ATOM      1  O   UNL     1      -1.149  14.381  19.486  0.00  0.00    +0.000 OA
ATOM      2  C   UNL     1      -0.387  13.444  19.743  0.00  0.00    +0.000 C 
ATOM      3  N   UNL     1      -0.927  12.146  19.842  0.00  0.00    +0.000 N 
ATOM      4  C   UNL     1      -0.138  11.077  20.194  0.00  0.00    +0.000 A 
ATOM      5  N   UNL     1       0.405  10.234  19.348  0.00  0.00    +0.000 NA
ATOM      6  C   UNL     1       1.104   9.272  20.050  0.00  0.00    +0.000 A 
ATOM      7  C   UNL     1       1.016   9.376  21.431  0.00  0.00    +0.000 A 
ATOM      8  S   UNL     1       0.057  10.739  21.854  0.00  0.00    +0.000 S 
ENDROOT
BRANCH   6   9
ATOM      9  C   UNL     1       1.894   8.260  19.357  0.00  0.00    +0.000 A 
ATOM     10  C   UNL     1       2.482   8.527  18.115  0.00  0.00    +0.000 A 
ATOM     11  C   UNL     1       3.222   7.545  17.456  0.00  0.00    +0.000 A 
ATOM     12  C   UNL     1       3.378   6.283  18.028  0.00  0.00    +0.000 A 
ATOM     13  C   UNL     1       2.801   5.989  19.272  0.00  0.00    +0.000 A 
ATOM     14  C   UNL     1       2.067   6.991  19.934  0.00  0.00    +0.000 A 
BRANCH  13  15
ATOM     15  C   UNL     1       2.954   4.620  19.889  0.00  0.00    +0.000 C 
ATOM     16  F   UNL     1       2.217   3.657  19.265  0.00  0.00    +0.000 F 
ATOM     17  F   UNL     1       4.240   4.172  19.869  0.00  0.00    +0.000 F 
ATOM     18  F   UNL     1       2.567   4.591  21.195  0.00  0.00    +0.000 F 
ENDBRANCH  13  15
ENDBRANCH   6   9
BRANCH   2  19
ATOM     19  C   UNL     1       1.051  13.676  19.960  0.00  0.00    +0.000 A 
ATOM     20  C   UNL     1       1.786  13.954  21.102  0.00  0.00    +0.000 A 
ATOM     21  C   UNL     1       3.163  14.201  20.840  0.00  0.00    +0.000 A 
ATOM     22  C   UNL     1       3.475  13.998  19.517  0.00  0.00    +0.000 A 
ATOM     23  S   UNL     1       2.103  13.561  18.598  0.00  0.00    +0.000 S 
ENDBRANCH   2  19
BRANCH   3  24
ATOM     24  C   UNL     1      -2.366  11.942  19.676  0.00  0.00    +0.000 C 
BRANCH  24  25
ATOM     25  C   UNL     1      -2.860  11.888  18.223  0.00  0.00    +0.000 C 
ATOM     26  C   UNL     1      -2.325  10.719  17.402  0.00  0.00    +0.000 C 
ATOM     27  C   UNL     1      -3.451   9.716  17.430  0.00  0.00    +0.000 C 
ATOM     28  C   UNL     1      -4.666  10.612  17.457  0.00  0.00    +0.000 C 
ATOM     29  O   UNL     1      -4.301  11.744  18.253  0.00  0.00    +0.000 OA
ENDBRANCH  24  25
ENDBRANCH   3  24
TORSDOF 5
ENDMDL
MODEL 4
REMARK VINA RESULT:      -6.8      1.657      2.208
REMARK  Name = 
REMARK  5 active torsions:
REMARK  status: ('A' for Active; 'I' for Inactive)
REMARK    1  A    between atoms: C_2  and  C_3
REMARK    2  A    between atoms: N_8  and  C_9
REMARK    3  A    between atoms: C_9  and  C_10
REMARK    4  A    between atoms: C_17  and  C_18
REMARK    5  A    between atoms: C_22  and  C_23
REMARK                            x       y       z     vdW  Elec       q    Type
REMARK                         _______ _______ _______ _____ _____    ______ ____
ROOT
ATOM      1  O   UNL     1      -1.004  13.632  18.112  0.00  0.00    +0.000 OA
ATOM      2  C   UNL     1      -0.244  12.796  18.611  0.00  0.00    +0.000 C 
ATOM      3  N   UNL     1      -0.788  11.578  19.064  0.00  0.00    +0.000 N 
ATOM      4  C   UNL     1      -0.000  10.641  19.689  0.00  0.00    +0.000 A 
ATOM      5  N   UNL     1       0.533   9.596  19.103  0.00  0.00    +0.000 NA
ATOM      6  C   UNL     1       1.235   8.858  20.036  0.00  0.00    +0.000 A 
ATOM      7  C   UNL     1       1.158   9.335  21.337  0.00  0.00    +0.000 A 
ATOM      8  S   UNL     1       0.207  10.768  21.377  0.00  0.00    +0.000 S 
ENDROOT
BRANCH   6   9
ATOM      9  C   UNL     1       2.015   7.691  19.640  0.00  0.00    +0.000 A 
ATOM     10  C   UNL     1       1.958   6.500  20.374  0.00  0.00    +0.000 A 
ATOM     11  C   UNL     1       2.722   5.396  19.993  0.00  0.00    +0.000 A 
ATOM     12  C   UNL     1       3.556   5.471  18.878  0.00  0.00    +0.000 A 
ATOM     13  C   UNL     1       3.631   6.651  18.124  0.00  0.00    +0.000 A 
ATOM     14  C   UNL     1       2.846   7.755  18.510  0.00  0.00    +0.000 A 
BRANCH  13  15
ATOM     15  C   UNL     1       4.542   6.744  16.924  0.00  0.00    +0.000 C 
ATOM     16  F   UNL     1       4.041   7.518  15.919  0.00  0.00    +0.000 F 
ATOM     17  F   UNL     1       5.760   7.274  17.227  0.00  0.00    +0.000 F 
ATOM     18  F   UNL     1       4.791   5.528  16.364  0.00  0.00    +0.000 F 
ENDBRANCH  13  15
ENDBRANCH   6   9
BRANCH   2  19
ATOM     19  C   UNL     1       1.196  13.070  18.748  0.00  0.00    +0.000 A 
ATOM     20  C   UNL     1       2.291  12.696  17.985  0.00  0.00    +0.000 A 
ATOM     21  C   UNL     1       3.535  13.112  18.540  0.00  0.00    +0.000 A 
ATOM     22  C   UNL     1       3.358  13.892  19.658  0.00  0.00    +0.000 A 
ATOM     23  S   UNL     1       1.707  14.074  20.055  0.00  0.00    +0.000 S 
ENDBRANCH   2  19
BRANCH   3  24
ATOM     24  C   UNL     1      -2.229  11.344  18.969  0.00  0.00    +0.000 C 
BRANCH  24  25
ATOM     25  C   UNL     1      -2.661  10.320  17.909  0.00  0.00    +0.000 C 
ATOM     26  C   UNL     1      -4.134  10.380  17.517  0.00  0.00    +0.000 C 
ATOM     27  C   UNL     1      -4.130  11.159  16.226  0.00  0.00    +0.000 C 
ATOM     28  C   UNL     1      -2.817  10.739  15.612  0.00  0.00    +0.000 C 
ATOM     29  O   UNL     1      -1.904  10.588  16.704  0.00  0.00    +0.000 OA
ENDBRANCH  24  25
ENDBRANCH   3  24
TORSDOF 5
ENDMDL
MODEL 5
REMARK VINA RESULT:      -6.7      5.178      8.774
REMARK  Name = 
REMARK  5 active torsions:
REMARK  status: ('A' for Active; 'I' for Inactive)
REMARK    1  A    between atoms: C_2  and  C_3
REMARK    2  A    between atoms: N_8  and  C_9
REMARK    3  A    between atoms: C_9  and  C_10
REMARK    4  A    between atoms: C_17  and  C_18
REMARK    5  A    between atoms: C_22  and  C_23
REMARK                            x       y       z     vdW  Elec       q    Type
REMARK                         _______ _______ _______ _____ _____    ______ ____
ROOT
ATOM      1  O   UNL     1       3.294   1.684  17.332  0.00  0.00    +0.000 OA
ATOM      2  C   UNL     1       3.185   2.728  17.984  0.00  0.00    +0.000 C 
ATOM      3  N   UNL     1       3.521   3.947  17.362  0.00  0.00    +0.000 N 
ATOM      4  C   UNL     1       3.484   5.130  18.060  0.00  0.00    +0.000 A 
ATOM      5  N   UNL     1       2.487   5.983  18.041  0.00  0.00    +0.000 NA
ATOM      6  C   UNL     1       2.803   7.070  18.832  0.00  0.00    +0.000 A 
ATOM      7  C   UNL     1       4.076   7.042  19.384  0.00  0.00    +0.000 A 
ATOM      8  S   UNL     1       4.880   5.593  18.922  0.00  0.00    +0.000 S 
ENDROOT
BRANCH   6   9
ATOM      9  C   UNL     1       1.833   8.132  19.074  0.00  0.00    +0.000 A 
ATOM     10  C   UNL     1       1.427   8.990  18.045  0.00  0.00    +0.000 A 
ATOM     11  C   UNL     1       0.509  10.011  18.294  0.00  0.00    +0.000 A 
ATOM     12  C   UNL     1      -0.010  10.189  19.576  0.00  0.00    +0.000 A 
ATOM     13  C   UNL     1       0.377   9.343  20.625  0.00  0.00    +0.000 A 
ATOM     14  C   UNL     1       1.294   8.308  20.360  0.00  0.00    +0.000 A 
BRANCH  13  15
ATOM     15  C   UNL     1      -0.170   9.540  22.018  0.00  0.00    +0.000 C 
ATOM     16  F   UNL     1      -0.983   8.526  22.431  0.00  0.00    +0.000 F 
ATOM     17  F   UNL     1       0.809   9.636  22.961  0.00  0.00    +0.000 F 
ATOM     18  F   UNL     1      -0.912  10.677  22.131  0.00  0.00    +0.000 F 
ENDBRANCH  13  15
ENDBRANCH   6   9
BRANCH   2  19
ATOM     19  C   UNL     1       2.732   2.700  19.384  0.00  0.00    +0.000 A 
ATOM     20  C   UNL     1       3.418   2.559  20.581  0.00  0.00    +0.000 A 
ATOM     21  C   UNL     1       2.563   2.494  21.717  0.00  0.00    +0.000 A 
ATOM     22  C   UNL     1       1.247   2.699  21.377  0.00  0.00    +0.000 A 
ATOM     23  S   UNL     1       1.049   2.917  19.695  0.00  0.00    +0.000 S 
ENDBRANCH   2  19
BRANCH   3  24
ATOM     24  C   UNL     1       4.020   3.950  15.987  0.00  0.00    +0.000 C 
BRANCH  24  25
ATOM     25  C   UNL     1       5.466   3.465  15.810  0.00  0.00    +0.000 C 
ATOM     26  C   UNL     1       6.084   3.760  14.448  0.00  0.00    +0.000 C 
ATOM     27  C   UNL     1       6.921   4.990  14.693  0.00  0.00    +0.000 C 
ATOM     28  C   UNL     1       7.378   4.779  16.116  0.00  0.00    +0.000 C 
ATOM     29  O   UNL     1       6.283   4.151  16.790  0.00  0.00    +0.000 OA
ENDBRANCH  24  25
ENDBRANCH   3  24
TORSDOF 5
ENDMDL
MODEL 6
REMARK VINA RESULT:      -6.7      2.906      4.856
REMARK  Name = 
REMARK  5 active torsions:
REMARK  status: ('A' for Active; 'I' for Inactive)
REMARK    1  A    between atoms: C_2  and  C_3
REMARK    2  A    between atoms: N_8  and  C_9
REMARK    3  A    between atoms: C_9  and  C_10
REMARK    4  A    between atoms: C_17  and  C_18
REMARK    5  A    between atoms: C_22  and  C_23
REMARK                            x       y       z     vdW  Elec       q    Type
REMARK                         _______ _______ _______ _____ _____    ______ ____
ROOT
ATOM      1  O   UNL     1      -4.440  12.556  19.264  0.00  0.00    +0.000 OA
ATOM      2  C   UNL     1      -3.406  11.963  18.940  0.00  0.00    +0.000 C 
ATOM      3  N   UNL     1      -2.277  12.074  19.775  0.00  0.00    +0.000 N 
ATOM      4  C   UNL     1      -1.081  11.492  19.429  0.00  0.00    +0.000 A 
ATOM      5  N   UNL     1      -0.656  10.330  19.864  0.00  0.00    +0.000 NA
ATOM      6  C   UNL     1       0.594  10.075  19.335  0.00  0.00    +0.000 A 
ATOM      7  C   UNL     1       1.118  11.095  18.553  0.00  0.00    +0.000 A 
ATOM      8  S   UNL     1      -0.007  12.391  18.455  0.00  0.00    +0.000 S 
ENDROOT
BRANCH   6   9
ATOM      9  C   UNL     1       1.266   8.802  19.573  0.00  0.00    +0.000 A 
ATOM     10  C   UNL     1       1.080   8.099  20.769  0.00  0.00    +0.000 A 
ATOM     11  C   UNL     1       1.740   6.889  20.990  0.00  0.00    +0.000 A 
ATOM     12  C   UNL     1       2.600   6.373  20.020  0.00  0.00    +0.000 A 
ATOM     13  C   UNL     1       2.803   7.056  18.813  0.00  0.00    +0.000 A 
ATOM     14  C   UNL     1       2.122   8.268  18.595  0.00  0.00    +0.000 A 
BRANCH  13  15
ATOM     15  C   UNL     1       3.743   6.509  17.765  0.00  0.00    +0.000 C 
ATOM     16  F   UNL     1       3.322   5.332  17.219  0.00  0.00    +0.000 F 
ATOM     17  F   UNL     1       3.919   7.362  16.718  0.00  0.00    +0.000 F 
ATOM     18  F   UNL     1       4.988   6.262  18.261  0.00  0.00    +0.000 F 
ENDBRANCH  13  15
ENDBRANCH   6   9
BRANCH   2  19
ATOM     19  C   UNL     1      -3.345  11.174  17.698  0.00  0.00    +0.000 A 
ATOM     20  C   UNL     1      -2.588  10.073  17.332  0.00  0.00    +0.000 A 
ATOM     21  C   UNL     1      -2.784   9.677  15.978  0.00  0.00    +0.000 A 
ATOM     22  C   UNL     1      -3.769  10.417  15.369  0.00  0.00    +0.000 A 
ATOM     23  S   UNL     1      -4.412  11.607  16.413  0.00  0.00    +0.000 S 
ENDBRANCH   2  19
BRANCH   3  24
ATOM     24  C   UNL     1      -2.339  12.905  20.977  0.00  0.00    +0.000 C 
BRANCH  24  25
ATOM     25  C   UNL     1      -2.678  12.161  22.277  0.00  0.00    +0.000 C 
ATOM     26  C   UNL     1      -1.964  12.677  23.522  0.00  0.00    +0.000 C 
ATOM     27  C   UNL     1      -2.997  13.549  24.191  0.00  0.00    +0.000 C 
ATOM     28  C   UNL     1      -4.281  12.836  23.842  0.00  0.00    +0.000 C 
ATOM     29  O   UNL     1      -4.096  12.321  22.519  0.00  0.00    +0.000 OA
ENDBRANCH  24  25
ENDBRANCH   3  24
TORSDOF 5
ENDMDL
MODEL 7
REMARK VINA RESULT:      -6.7      6.834      9.620
REMARK  Name = 
REMARK  5 active torsions:
REMARK  status: ('A' for Active; 'I' for Inactive)
REMARK    1  A    between atoms: C_2  and  C_3
REMARK    2  A    between atoms: N_8  and  C_9
REMARK    3  A    between atoms: C_9  and  C_10
REMARK    4  A    between atoms: C_17  and  C_18
REMARK    5  A    between atoms: C_22  and  C_23
REMARK                            x       y       z     vdW  Elec       q    Type
REMARK                         _______ _______ _______ _____ _____    ______ ____
ROOT
ATOM      1  O   UNL     1       4.217   4.173  15.895  0.00  0.00    +0.000 OA
ATOM      2  C   UNL     1       4.794   4.989  16.620  0.00  0.00    +0.000 C 
ATOM      3  N   UNL     1       6.153   5.265  16.374  0.00  0.00    +0.000 N 
ATOM      4  C   UNL     1       6.862   6.113  17.191  0.00  0.00    +0.000 A 
ATOM      5  N   UNL     1       7.087   7.381  16.945  0.00  0.00    +0.000 NA
ATOM      6  C   UNL     1       7.855   7.914  17.963  0.00  0.00    +0.000 A 
ATOM      7  C   UNL     1       8.253   7.004  18.933  0.00  0.00    +0.000 A 
ATOM      8  S   UNL     1       7.614   5.449  18.571  0.00  0.00    +0.000 S 
ENDROOT
BRANCH   6   9
ATOM      9  C   UNL     1       8.174   9.336  17.999  0.00  0.00    +0.000 A 
ATOM     10  C   UNL     1       7.458  10.258  17.225  0.00  0.00    +0.000 A 
ATOM     11  C   UNL     1       7.783  11.614  17.258  0.00  0.00    +0.000 A 
ATOM     12  C   UNL     1       8.832  12.065  18.060  0.00  0.00    +0.000 A 
ATOM     13  C   UNL     1       9.564  11.164  18.847  0.00  0.00    +0.000 A 
ATOM     14  C   UNL     1       9.219   9.800  18.815  0.00  0.00    +0.000 A 
BRANCH  13  15
ATOM     15  C   UNL     1      10.709  11.643  19.706  0.00  0.00    +0.000 C 
ATOM     16  F   UNL     1      10.908  12.991  19.644  0.00  0.00    +0.000 F 
ATOM     17  F   UNL     1      10.535  11.355  21.026  0.00  0.00    +0.000 F 
ATOM     18  F   UNL     1      11.897  11.079  19.352  0.00  0.00    +0.000 F 
ENDBRANCH  13  15
ENDBRANCH   6   9
BRANCH   2  19
ATOM     19  C   UNL     1       4.085   5.646  17.731  0.00  0.00    +0.000 A 
ATOM     20  C   UNL     1       3.505   6.899  17.853  0.00  0.00    +0.000 A 
ATOM     21  C   UNL     1       2.998   7.163  19.157  0.00  0.00    +0.000 A 
ATOM     22  C   UNL     1       3.102   6.063  19.975  0.00  0.00    +0.000 A 
ATOM     23  S   UNL     1       3.849   4.747  19.184  0.00  0.00    +0.000 S 
ENDBRANCH   2  19
BRANCH   3  24
ATOM     24  C   UNL     1       6.856   4.563  15.300  0.00  0.00    +0.000 C 
BRANCH  24  25
ATOM     25  C   UNL     1       6.403   4.916  13.876  0.00  0.00    +0.000 C 
ATOM     26  C   UNL     1       7.522   4.993  12.842  0.00  0.00    +0.000 C 
ATOM     27  C   UNL     1       7.448   3.662  12.136  0.00  0.00    +0.000 C 
ATOM     28  C   UNL     1       5.969   3.369  12.174  0.00  0.00    +0.000 C 
ATOM     29  O   UNL     1       5.502   3.873  13.430  0.00  0.00    +0.000 OA
ENDBRANCH  24  25
ENDBRANCH   3  24
TORSDOF 5
ENDMDL
MODEL 8
REMARK VINA RESULT:      -6.6      1.500      1.994
REMARK  Name = 
REMARK  5 active torsions:
REMARK  status: ('A' for Active; 'I' for Inactive)
REMARK    1  A    between atoms: C_2  and  C_3
REMARK    2  A    between atoms: N_8  and  C_9
REMARK    3  A    between atoms: C_9  and  C_10
REMARK    4  A    between atoms: C_17  and  C_18
REMARK    5  A    between atoms: C_22  and  C_23
REMARK                            x       y       z     vdW  Elec       q    Type
REMARK                         _______ _______ _______ _____ _____    ______ ____
ROOT
ATOM      1  O   UNL     1      -0.990  13.944  18.512  0.00  0.00    +0.000 OA
ATOM      2  C   UNL     1      -0.323  13.056  19.053  0.00  0.00    +0.000 C 
ATOM      3  N   UNL     1      -0.957  11.838  19.370  0.00  0.00    +0.000 N 
ATOM      4  C   UNL     1      -0.282  10.842  20.034  0.00  0.00    +0.000 A 
ATOM      5  N   UNL     1       0.288   9.809  19.462  0.00  0.00    +0.000 NA
ATOM      6  C   UNL     1       0.845   9.000  20.433  0.00  0.00    +0.000 A 
ATOM      7  C   UNL     1       0.621   9.414  21.738  0.00  0.00    +0.000 A 
ATOM      8  S   UNL     1      -0.283  10.877  21.739  0.00  0.00    +0.000 S 
ENDROOT
BRANCH   6   9
ATOM      9  C   UNL     1       1.632   7.826  20.073  0.00  0.00    +0.000 A 
ATOM     10  C   UNL     1       1.601   6.666  20.856  0.00  0.00    +0.000 A 
ATOM     11  C   UNL     1       2.371   5.555  20.508  0.00  0.00    +0.000 A 
ATOM     12  C   UNL     1       3.186   5.594  19.377  0.00  0.00    +0.000 A 
ATOM     13  C   UNL     1       3.235   6.742  18.574  0.00  0.00    +0.000 A 
ATOM     14  C   UNL     1       2.445   7.852  18.927  0.00  0.00    +0.000 A 
BRANCH  13  15
ATOM     15  C   UNL     1       4.127   6.795  17.357  0.00  0.00    +0.000 C 
ATOM     16  F   UNL     1       5.429   7.074  17.649  0.00  0.00    +0.000 F 
ATOM     17  F   UNL     1       4.146   5.621  16.665  0.00  0.00    +0.000 F 
ATOM     18  F   UNL     1       3.736   7.749  16.466  0.00  0.00    +0.000 F 
ENDBRANCH  13  15
ENDBRANCH   6   9
BRANCH   2  19
ATOM     19  C   UNL     1       1.096  13.270  19.381  0.00  0.00    +0.000 A 
ATOM     20  C   UNL     1       1.739  13.594  20.565  0.00  0.00    +0.000 A 
ATOM     21  C   UNL     1       3.140  13.798  20.410  0.00  0.00    +0.000 A 
ATOM     22  C   UNL     1       3.557  13.518  19.130  0.00  0.00    +0.000 A 
ATOM     23  S   UNL     1       2.257  13.060  18.121  0.00  0.00    +0.000 S 
ENDBRANCH   2  19
BRANCH   3  24
ATOM     24  C   UNL     1      -2.381  11.663  19.086  0.00  0.00    +0.000 C 
BRANCH  24  25
ATOM     25  C   UNL     1      -2.719  10.566  18.066  0.00  0.00    +0.000 C 
ATOM     26  C   UNL     1      -4.179  10.520  17.627  0.00  0.00    +0.000 C 
ATOM     27  C   UNL     1      -4.176  11.234  16.298  0.00  0.00    +0.000 C 
ATOM     28  C   UNL     1      -2.821  10.861  15.748  0.00  0.00    +0.000 C 
ATOM     29  O   UNL     1      -1.938  10.817  16.873  0.00  0.00    +0.000 OA
ENDBRANCH  24  25
ENDBRANCH   3  24
TORSDOF 5
ENDMDL
MODEL 9
REMARK VINA RESULT:      -6.6      1.960      4.726
REMARK  Name = 
REMARK  5 active torsions:
REMARK  status: ('A' for Active; 'I' for Inactive)
REMARK    1  A    between atoms: C_2  and  C_3
REMARK    2  A    between atoms: N_8  and  C_9
REMARK    3  A    between atoms: C_9  and  C_10
REMARK    4  A    between atoms: C_17  and  C_18
REMARK    5  A    between atoms: C_22  and  C_23
REMARK                            x       y       z     vdW  Elec       q    Type
REMARK                         _______ _______ _______ _____ _____    ______ ____
ROOT
ATOM      1  O   UNL     1      -1.430  12.886  20.027  0.00  0.00    +0.000 OA
ATOM      2  C   UNL     1      -0.906  11.888  19.521  0.00  0.00    +0.000 C 
ATOM      3  N   UNL     1       0.389  11.523  19.940  0.00  0.00    +0.000 N 
ATOM      4  C   UNL     1       1.047  10.464  19.362  0.00  0.00    +0.000 A 
ATOM      5  N   UNL     1       1.098   9.251  19.857  0.00  0.00    +0.000 NA
ATOM      6  C   UNL     1       1.867   8.454  19.031  0.00  0.00    +0.000 A 
ATOM      7  C   UNL     1       2.440   9.112  17.952  0.00  0.00    +0.000 A 
ATOM      8  S   UNL     1       1.970  10.766  17.960  0.00  0.00    +0.000 S 
ENDROOT
BRANCH   6   9
ATOM      9  C   UNL     1       2.012   7.025  19.287  0.00  0.00    +0.000 A 
ATOM     10  C   UNL     1       1.642   6.469  20.517  0.00  0.00    +0.000 A 
ATOM     11  C   UNL     1       1.801   5.103  20.754  0.00  0.00    +0.000 A 
ATOM     12  C   UNL     1       2.337   4.278  19.765  0.00  0.00    +0.000 A 
ATOM     13  C   UNL     1       2.714   4.808  18.523  0.00  0.00    +0.000 A 
ATOM     14  C   UNL     1       2.538   6.185  18.291  0.00  0.00    +0.000 A 
BRANCH  13  15
ATOM     15  C   UNL     1       3.309   3.923  17.455  0.00  0.00    +0.000 C 
ATOM     16  F   UNL     1       2.373   3.257  16.718  0.00  0.00    +0.000 F 
ATOM     17  F   UNL     1       4.063   4.615  16.556  0.00  0.00    +0.000 F 
ATOM     18  F   UNL     1       4.126   2.962  17.969  0.00  0.00    +0.000 F 
ENDBRANCH  13  15
ENDBRANCH   6   9
BRANCH   2  19
ATOM     19  C   UNL     1      -1.608  11.107  18.489  0.00  0.00    +0.000 A 
ATOM     20  C   UNL     1      -1.185  10.100  17.636  0.00  0.00    +0.000 A 
ATOM     21  C   UNL     1      -2.187   9.680  16.717  0.00  0.00    +0.000 A 
ATOM     22  C   UNL     1      -3.390  10.298  16.958  0.00  0.00    +0.000 A 
ATOM     23  S   UNL     1      -3.290  11.409  18.252  0.00  0.00    +0.000 S 
ENDBRANCH   2  19
BRANCH   3  24
ATOM     24  C   UNL     1       1.092  12.342  20.927  0.00  0.00    +0.000 C 
BRANCH  24  25
ATOM     25  C   UNL     1       2.217  13.226  20.369  0.00  0.00    +0.000 C 
ATOM     26  C   UNL     1       1.752  14.399  19.512  0.00  0.00    +0.000 C 
ATOM     27  C   UNL     1       1.803  15.574  20.456  0.00  0.00    +0.000 C 
ATOM     28  C   UNL     1       2.976  15.217  21.335  0.00  0.00    +0.000 C 
ATOM     29  O   UNL     1       2.929  13.795  21.494  0.00  0.00    +0.000 OA
ENDBRANCH  24  25
ENDBRANCH   3  24
TORSDOF 5
ENDMDL
