MODEL 1
REMARK VINA RESULT:      -8.9      0.000      0.000
REMARK  Name = 
REMARK  5 active torsions:
REMARK  status: ('A' for Active; 'I' for Inactive)
REMARK    1  A    between atoms: C_2  and  C_16
REMARK    2  A    between atoms: C_6  and  C_7
REMARK    3  A    between atoms: N_19  and  C_20
REMARK    4  A    between atoms: C_20  and  C_21
REMARK    5  A    between atoms: C_22  and  C_23
REMARK                            x       y       z     vdW  Elec       q    Type
REMARK                         _______ _______ _______ _____ _____    ______ ____
ROOT
ATOM      1  O   UNL     1       5.757   6.622  15.807  0.00  0.00    +0.000 OA
ATOM      2  C   UNL     1       6.290   5.941  16.676  0.00  0.00    +0.000 C 
ATOM      3  N   UNL     1       7.258   6.378  17.564  0.00  0.00    +0.000 N 
ATOM      4  C   UNL     1       7.622   7.703  17.728  0.00  0.00    +0.000 A 
ATOM      5  C   UNL     1       8.626   8.137  18.629  0.00  0.00    +0.000 A 
ATOM      6  C   UNL     1       8.669   9.506  18.485  0.00  0.00    +0.000 A 
ATOM      7  O   UNL     1       7.726   9.866  17.570  0.00  0.00    +0.000 OA
ATOM      8  N   UNL     1       7.074   8.747  17.104  0.00  0.00    +0.000 NA
ATOM      9  H   UNL     1       7.741   5.705  18.140  0.00  0.00    +0.000 HD
ENDROOT
BRANCH   6  10
ATOM     10  C   UNL     1       9.474  10.586  19.048  0.00  0.00    +0.000 A 
ATOM     11  C   UNL     1       9.504  10.826  20.432  0.00  0.00    +0.000 A 
ATOM     12  C   UNL     1      10.229  11.897  20.963  0.00  0.00    +0.000 A 
ATOM     13  C   UNL     1      10.941  12.743  20.118  0.00  0.00    +0.000 A 
ATOM     14  C   UNL     1      10.933  12.504  18.746  0.00  0.00    +0.000 A 
ATOM     15 BR   UNL     1      11.895  13.652  17.591  0.00  0.00    +0.000 Br
ATOM     16  C   UNL     1      10.213  11.433  18.211  0.00  0.00    +0.000 A 
ENDBRANCH   6  10
BRANCH   2  17
ATOM     17  C   UNL     1       5.937   4.457  16.867  0.00  0.00    +0.000 C 
ATOM     18  C   UNL     1       4.467   4.171  16.539  0.00  0.00    +0.000 C 
ATOM     19  C   UNL     1       3.502   4.732  17.595  0.00  0.00    +0.000 C 
ATOM     20  N   UNL     1       3.869   4.360  18.976  0.00  0.00    +0.000 NA
ATOM     21  C   UNL     1       5.267   4.695  19.273  0.00  0.00    +0.000 C 
ATOM     22  C   UNL     1       6.208   3.989  18.299  0.00  0.00    +0.000 C 
BRANCH  20  23
ATOM     23  C   UNL     1       3.006   5.056  19.946  0.00  0.00    +0.000 C 
BRANCH  23  24
ATOM     24  C   UNL     1       2.636   6.440  19.511  0.00  0.00    +0.000 C 
ATOM     25  C   UNL     1       1.920   7.287  20.267  0.00  0.00    +0.000 C 
BRANCH  25  26
ATOM     26  C   UNL     1       1.507   8.593  19.762  0.00  0.00    +0.000 A 
ATOM     27  C   UNL     1       0.849   9.481  20.618  0.00  0.00    +0.000 A 
ATOM     28  C   UNL     1       0.433  10.730  20.151  0.00  0.00    +0.000 A 
ATOM     29  C   UNL     1       0.676  11.093  18.828  0.00  0.00    +0.000 A 
ATOM     30  C   UNL     1       1.333  10.212  17.970  0.00  0.00    +0.000 A 
ATOM     31  C   UNL     1       1.747   8.960  18.435  0.00  0.00    +0.000 A 
ENDBRANCH  25  26
ENDBRANCH  23  24
ENDBRANCH  20  23
ENDBRANCH   2  17
TORSDOF 5
ENDMDL
MODEL 2
REMARK VINA RESULT:      -8.7      3.453      7.810
REMARK  Name = 
REMARK  5 active torsions:
REMARK  status: ('A' for Active; 'I' for Inactive)
REMARK    1  A    between atoms: C_2  and  C_16
REMARK    2  A    between atoms: C_6  and  C_7
REMARK    3  A    between atoms: N_19  and  C_20
REMARK    4  A    between atoms: C_20  and  C_21
REMARK    5  A    between atoms: C_22  and  C_23
REMARK                            x       y       z     vdW  Elec       q    Type
REMARK                         _______ _______ _______ _____ _____    ______ ____
ROOT
ATOM      1  O   UNL     1       3.210   5.362  19.088  0.00  0.00    +0.000 OA
ATOM      2  C   UNL     1       3.461   5.960  18.047  0.00  0.00    +0.000 C 
ATOM      3  N   UNL     1       2.950   7.192  17.679  0.00  0.00    +0.000 N 
ATOM      4  C   UNL     1       2.233   8.020  18.525  0.00  0.00    +0.000 A 
ATOM      5  C   UNL     1       1.699   9.273  18.133  0.00  0.00    +0.000 A 
ATOM      6  C   UNL     1       1.073   9.764  19.256  0.00  0.00    +0.000 A 
ATOM      7  O   UNL     1       1.247   8.866  20.265  0.00  0.00    +0.000 OA
ATOM      8  N   UNL     1       1.971   7.786  19.811  0.00  0.00    +0.000 NA
ATOM      9  H   UNL     1       3.098   7.529  16.740  0.00  0.00    +0.000 HD
ENDROOT
BRANCH   6  10
ATOM     10  C   UNL     1       0.291  10.954  19.574  0.00  0.00    +0.000 A 
ATOM     11  C   UNL     1       0.094  11.971  18.624  0.00  0.00    +0.000 A 
ATOM     12  C   UNL     1      -0.607  13.136  18.950  0.00  0.00    +0.000 A 
ATOM     13  C   UNL     1      -1.126  13.302  20.231  0.00  0.00    +0.000 A 
ATOM     14  C   UNL     1      -0.953  12.293  21.175  0.00  0.00    +0.000 A 
ATOM     15 BR   UNL     1      -1.652  12.514  22.918  0.00  0.00    +0.000 Br
ATOM     16  C   UNL     1      -0.257  11.126  20.853  0.00  0.00    +0.000 A 
ENDBRANCH   6  10
BRANCH   2  17
ATOM     17  C   UNL     1       4.400   5.366  16.984  0.00  0.00    +0.000 C 
ATOM     18  C   UNL     1       5.426   4.405  17.597  0.00  0.00    +0.000 C 
ATOM     19  C   UNL     1       6.505   5.133  18.415  0.00  0.00    +0.000 C 
ATOM     20  N   UNL     1       7.127   6.258  17.691  0.00  0.00    +0.000 NA
ATOM     21  C   UNL     1       6.118   7.185  17.162  0.00  0.00    +0.000 C 
ATOM     22  C   UNL     1       5.158   6.457  16.224  0.00  0.00    +0.000 C 
BRANCH  20  23
ATOM     23  C   UNL     1       8.031   7.010  18.579  0.00  0.00    +0.000 C 
BRANCH  23  24
ATOM     24  C   UNL     1       8.303   8.400  18.095  0.00  0.00    +0.000 C 
ATOM     25  C   UNL     1       8.958   9.321  18.818  0.00  0.00    +0.000 C 
BRANCH  25  26
ATOM     26  C   UNL     1       9.119  10.690  18.338  0.00  0.00    +0.000 A 
ATOM     27  C   UNL     1      10.368  11.312  18.448  0.00  0.00    +0.000 A 
ATOM     28  C   UNL     1      10.539  12.626  18.008  0.00  0.00    +0.000 A 
ATOM     29  C   UNL     1       9.465  13.320  17.455  0.00  0.00    +0.000 A 
ATOM     30  C   UNL     1       8.218  12.705  17.343  0.00  0.00    +0.000 A 
ATOM     31  C   UNL     1       8.043  11.391  17.786  0.00  0.00    +0.000 A 
ENDBRANCH  25  26
ENDBRANCH  23  24
ENDBRANCH  20  23
ENDBRANCH   2  17
TORSDOF 5
ENDMDL
MODEL 3
REMARK VINA RESULT:      -8.7      1.694      2.486
REMARK  Name = 
REMARK  5 active torsions:
REMARK  status: ('A' for Active; 'I' for Inactive)
REMARK    1  A    between atoms: C_2  and  C_16
REMARK    2  A    between atoms: C_6  and  C_7
REMARK    3  A    between atoms: N_19  and  C_20
REMARK    4  A    between atoms: C_20  and  C_21
REMARK    5  A    between atoms: C_22  and  C_23
REMARK                            x       y       z     vdW  Elec       q    Type
REMARK                         _______ _______ _______ _____ _____    ______ ____
ROOT
ATOM      1  O   UNL     1       7.178   7.320  16.859  0.00  0.00    +0.000 OA
ATOM      2  C   UNL     1       7.758   6.995  17.889  0.00  0.00    +0.000 C 
ATOM      3  N   UNL     1       8.535   7.827  18.676  0.00  0.00    +0.000 N 
ATOM      4  C   UNL     1       8.609   9.200  18.519  0.00  0.00    +0.000 A 
ATOM      5  C   UNL     1       9.420  10.040  19.321  0.00  0.00    +0.000 A 
ATOM      6  C   UNL     1       9.200  11.313  18.843  0.00  0.00    +0.000 A 
ATOM      7  O   UNL     1       8.289  11.235  17.833  0.00  0.00    +0.000 OA
ATOM      8  N   UNL     1       7.920   9.923  17.635  0.00  0.00    +0.000 NA
ATOM      9  H   UNL     1       9.090   7.429  19.419  0.00  0.00    +0.000 HD
ENDROOT
BRANCH   6  10
ATOM     10  C   UNL     1       9.717  12.643  19.150  0.00  0.00    +0.000 A 
ATOM     11  C   UNL     1      10.478  13.362  18.214  0.00  0.00    +0.000 A 
ATOM     12  C   UNL     1      11.021  14.610  18.531  0.00  0.00    +0.000 A 
ATOM     13  C   UNL     1      10.809  15.162  19.792  0.00  0.00    +0.000 A 
ATOM     14  C   UNL     1      10.042  14.466  20.722  0.00  0.00    +0.000 A 
ATOM     15 BR   UNL     1       9.753  15.208  22.438  0.00  0.00    +0.000 Br
ATOM     16  C   UNL     1       9.494  13.220  20.408  0.00  0.00    +0.000 A 
ENDBRANCH   6  10
BRANCH   2  17
ATOM     17  C   UNL     1       7.694   5.556  18.429  0.00  0.00    +0.000 C 
ATOM     18  C   UNL     1       7.357   4.544  17.328  0.00  0.00    +0.000 C 
ATOM     19  C   UNL     1       5.895   4.636  16.865  0.00  0.00    +0.000 C 
ATOM     20  N   UNL     1       4.927   4.621  17.979  0.00  0.00    +0.000 NA
ATOM     21  C   UNL     1       5.250   5.637  18.989  0.00  0.00    +0.000 C 
ATOM     22  C   UNL     1       6.655   5.415  19.545  0.00  0.00    +0.000 C 
BRANCH  20  23
ATOM     23  C   UNL     1       3.563   4.873  17.484  0.00  0.00    +0.000 C 
BRANCH  23  24
ATOM     24  C   UNL     1       2.823   5.887  18.300  0.00  0.00    +0.000 C 
ATOM     25  C   UNL     1       2.610   7.149  17.897  0.00  0.00    +0.000 C 
BRANCH  25  26
ATOM     26  C   UNL     1       1.962   8.125  18.767  0.00  0.00    +0.000 A 
ATOM     27  C   UNL     1       1.526   9.340  18.228  0.00  0.00    +0.000 A 
ATOM     28  C   UNL     1       0.917  10.294  19.046  0.00  0.00    +0.000 A 
ATOM     29  C   UNL     1       0.741  10.035  20.403  0.00  0.00    +0.000 A 
ATOM     30  C   UNL     1       1.173   8.825  20.947  0.00  0.00    +0.000 A 
ATOM     31  C   UNL     1       1.786   7.871  20.130  0.00  0.00    +0.000 A 
ENDBRANCH  25  26
ENDBRANCH  23  24
ENDBRANCH  20  23
ENDBRANCH   2  17
TORSDOF 5
ENDMDL
MODEL 4
REMARK VINA RESULT:      -8.6      1.764      2.388
REMARK  Name = 
REMARK  5 active torsions:
REMARK  status: ('A' for Active; 'I' for Inactive)
REMARK    1  A    between atoms: C_2  and  C_16
REMARK    2  A    between atoms: C_6  and  C_7
REMARK    3  A    between atoms: N_19  and  C_20
REMARK    4  A    between atoms: C_20  and  C_21
REMARK    5  A    between atoms: C_22  and  C_23
REMARK                            x       y       z     vdW  Elec       q    Type
REMARK                         _______ _______ _______ _____ _____    ______ ____
ROOT
ATOM      1  O   UNL     1       7.841   6.309  18.776  0.00  0.00    +0.000 OA
ATOM      2  C   UNL     1       7.461   6.746  17.695  0.00  0.00    +0.000 C 
ATOM      3  N   UNL     1       7.526   8.068  17.289  0.00  0.00    +0.000 N 
ATOM      4  C   UNL     1       8.213   9.057  17.970  0.00  0.00    +0.000 A 
ATOM      5  C   UNL     1       8.259  10.411  17.555  0.00  0.00    +0.000 A 
ATOM      6  C   UNL     1       9.038  11.049  18.494  0.00  0.00    +0.000 A 
ATOM      7  O   UNL     1       9.452  10.121  19.402  0.00  0.00    +0.000 OA
ATOM      8  N   UNL     1       8.942   8.884  19.074  0.00  0.00    +0.000 NA
ATOM      9  H   UNL     1       7.052   8.350  16.445  0.00  0.00    +0.000 HD
ENDROOT
BRANCH   6  10
ATOM     10  C   UNL     1       9.469  12.423  18.727  0.00  0.00    +0.000 A 
ATOM     11  C   UNL     1       9.955  13.222  17.679  0.00  0.00    +0.000 A 
ATOM     12  C   UNL     1      10.422  14.518  17.915  0.00  0.00    +0.000 A 
ATOM     13  C   UNL     1      10.407  15.039  19.206  0.00  0.00    +0.000 A 
ATOM     14  C   UNL     1       9.911  14.263  20.251  0.00  0.00    +0.000 A 
ATOM     15 BR   UNL     1       9.891  14.963  22.007  0.00  0.00    +0.000 Br
ATOM     16  C   UNL     1       9.440  12.969  20.018  0.00  0.00    +0.000 A 
ENDBRANCH   6  10
BRANCH   2  17
ATOM     17  C   UNL     1       6.825   5.830  16.636  0.00  0.00    +0.000 C 
ATOM     18  C   UNL     1       5.502   6.397  16.107  0.00  0.00    +0.000 C 
ATOM     19  C   UNL     1       4.366   6.309  17.138  0.00  0.00    +0.000 C 
ATOM     20  N   UNL     1       4.222   4.968  17.736  0.00  0.00    +0.000 NA
ATOM     21  C   UNL     1       5.496   4.478  18.278  0.00  0.00    +0.000 C 
ATOM     22  C   UNL     1       6.561   4.426  17.185  0.00  0.00    +0.000 C 
BRANCH  20  23
ATOM     23  C   UNL     1       3.230   4.990  18.825  0.00  0.00    +0.000 C 
BRANCH  23  24
ATOM     24  C   UNL     1       2.502   6.294  18.926  0.00  0.00    +0.000 C 
ATOM     25  C   UNL     1       2.282   6.932  20.086  0.00  0.00    +0.000 C 
BRANCH  25  26
ATOM     26  C   UNL     1       1.488   8.155  20.142  0.00  0.00    +0.000 A 
ATOM     27  C   UNL     1       1.490   9.023  19.045  0.00  0.00    +0.000 A 
ATOM     28  C   UNL     1       0.749  10.206  19.084  0.00  0.00    +0.000 A 
ATOM     29  C   UNL     1       0.003  10.523  20.217  0.00  0.00    +0.000 A 
ATOM     30  C   UNL     1      -0.002   9.661  21.314  0.00  0.00    +0.000 A 
ATOM     31  C   UNL     1       0.742   8.478  21.278  0.00  0.00    +0.000 A 
ENDBRANCH  25  26
ENDBRANCH  23  24
ENDBRANCH  20  23
ENDBRANCH   2  17
TORSDOF 5
ENDMDL
MODEL 5
REMARK VINA RESULT:      -8.6      0.604      1.067
REMARK  Name = 
REMARK  5 active torsions:
REMARK  status: ('A' for Active; 'I' for Inactive)
REMARK    1  A    between atoms: C_2  and  C_16
REMARK    2  A    between atoms: C_6  and  C_7
REMARK    3  A    between atoms: N_19  and  C_20
REMARK    4  A    between atoms: C_20  and  C_21
REMARK    5  A    between atoms: C_22  and  C_23
REMARK                            x       y       z     vdW  Elec       q    Type
REMARK                         _______ _______ _______ _____ _____    ______ ____
ROOT
ATOM      1  O   UNL     1       5.797   6.841  15.924  0.00  0.00    +0.000 OA
ATOM      2  C   UNL     1       6.494   6.179  16.683  0.00  0.00    +0.000 C 
ATOM      3  N   UNL     1       7.501   6.673  17.494  0.00  0.00    +0.000 N 
ATOM      4  C   UNL     1       7.734   8.020  17.712  0.00  0.00    +0.000 A 
ATOM      5  C   UNL     1       8.778   8.515  18.531  0.00  0.00    +0.000 A 
ATOM      6  C   UNL     1       8.655   9.886  18.480  0.00  0.00    +0.000 A 
ATOM      7  O   UNL     1       7.583  10.186  17.695  0.00  0.00    +0.000 OA
ATOM      8  N   UNL     1       7.009   9.027  17.222  0.00  0.00    +0.000 NA
ATOM      9  H   UNL     1       8.116   6.029  17.969  0.00  0.00    +0.000 HD
ENDROOT
BRANCH   6  10
ATOM     10  C   UNL     1       9.395  11.017  19.030  0.00  0.00    +0.000 A 
ATOM     11  C   UNL     1       9.973  10.957  20.309  0.00  0.00    +0.000 A 
ATOM     12  C   UNL     1      10.631  12.062  20.856  0.00  0.00    +0.000 A 
ATOM     13  C   UNL     1      10.724  13.247  20.131  0.00  0.00    +0.000 A 
ATOM     14  C   UNL     1      10.170  13.313  18.855  0.00  0.00    +0.000 A 
ATOM     15 BR   UNL     1      10.291  14.920  17.866  0.00  0.00    +0.000 Br
ATOM     16  C   UNL     1       9.516  12.210  18.302  0.00  0.00    +0.000 A 
ENDBRANCH   6  10
BRANCH   2  17
ATOM     17  C   UNL     1       6.328   4.655  16.806  0.00  0.00    +0.000 C 
ATOM     18  C   UNL     1       4.938   4.191  16.357  0.00  0.00    +0.000 C 
ATOM     19  C   UNL     1       3.832   4.582  17.350  0.00  0.00    +0.000 C 
ATOM     20  N   UNL     1       4.143   4.210  18.744  0.00  0.00    +0.000 NA
ATOM     21  C   UNL     1       5.458   4.714  19.158  0.00  0.00    +0.000 C 
ATOM     22  C   UNL     1       6.554   4.174  18.242  0.00  0.00    +0.000 C 
BRANCH  20  23
ATOM     23  C   UNL     1       3.126   4.751  19.663  0.00  0.00    +0.000 C 
BRANCH  23  24
ATOM     24  C   UNL     1       2.608   6.091  19.239  0.00  0.00    +0.000 C 
ATOM     25  C   UNL     1       2.253   7.054  20.102  0.00  0.00    +0.000 C 
BRANCH  25  26
ATOM     26  C   UNL     1       1.669   8.310  19.641  0.00  0.00    +0.000 A 
ATOM     27  C   UNL     1       1.931   8.750  18.339  0.00  0.00    +0.000 A 
ATOM     28  C   UNL     1       1.394   9.955  17.883  0.00  0.00    +0.000 A 
ATOM     29  C   UNL     1       0.592  10.722  18.725  0.00  0.00    +0.000 A 
ATOM     30  C   UNL     1       0.326  10.288  20.024  0.00  0.00    +0.000 A 
ATOM     31  C   UNL     1       0.866   9.083  20.484  0.00  0.00    +0.000 A 
ENDBRANCH  25  26
ENDBRANCH  23  24
ENDBRANCH  20  23
ENDBRANCH   2  17
TORSDOF 5
ENDMDL
MODEL 6
REMARK VINA RESULT:      -8.5      1.671      2.126
REMARK  Name = 
REMARK  5 active torsions:
REMARK  status: ('A' for Active; 'I' for Inactive)
REMARK    1  A    between atoms: C_2  and  C_16
REMARK    2  A    between atoms: C_6  and  C_7
REMARK    3  A    between atoms: N_19  and  C_20
REMARK    4  A    between atoms: C_20  and  C_21
REMARK    5  A    between atoms: C_22  and  C_23
REMARK                            x       y       z     vdW  Elec       q    Type
REMARK                         _______ _______ _______ _____ _____    ______ ____
ROOT
ATOM      1  O   UNL     1       8.075   6.537  18.860  0.00  0.00    +0.000 OA
ATOM      2  C   UNL     1       7.642   6.996  17.808  0.00  0.00    +0.000 C 
ATOM      3  N   UNL     1       7.655   8.331  17.443  0.00  0.00    +0.000 N 
ATOM      4  C   UNL     1       8.339   9.319  18.130  0.00  0.00    +0.000 A 
ATOM      5  C   UNL     1       8.332  10.685  17.757  0.00  0.00    +0.000 A 
ATOM      6  C   UNL     1       9.128  11.316  18.687  0.00  0.00    +0.000 A 
ATOM      7  O   UNL     1       9.602  10.372  19.549  0.00  0.00    +0.000 OA
ATOM      8  N   UNL     1       9.115   9.132  19.199  0.00  0.00    +0.000 NA
ATOM      9  H   UNL     1       7.141   8.626  16.627  0.00  0.00    +0.000 HD
ENDROOT
BRANCH   6  10
ATOM     10  C   UNL     1       9.529  12.694  18.949  0.00  0.00    +0.000 A 
ATOM     11  C   UNL     1       9.360  13.274  20.217  0.00  0.00    +0.000 A 
ATOM     12  C   UNL     1       9.691  14.612  20.449  0.00  0.00    +0.000 A 
ATOM     13  C   UNL     1      10.202  15.392  19.415  0.00  0.00    +0.000 A 
ATOM     14  C   UNL     1      10.391  14.823  18.159  0.00  0.00    +0.000 A 
ATOM     15 BR   UNL     1      11.081  15.879  16.749  0.00  0.00    +0.000 Br
ATOM     16  C   UNL     1      10.065  13.486  17.923  0.00  0.00    +0.000 A 
ENDBRANCH   6  10
BRANCH   2  17
ATOM     17  C   UNL     1       6.993   6.096  16.744  0.00  0.00    +0.000 C 
ATOM     18  C   UNL     1       5.657   6.664  16.250  0.00  0.00    +0.000 C 
ATOM     19  C   UNL     1       4.540   6.552  17.299  0.00  0.00    +0.000 C 
ATOM     20  N   UNL     1       4.414   5.199  17.876  0.00  0.00    +0.000 NA
ATOM     21  C   UNL     1       5.700   4.707  18.385  0.00  0.00    +0.000 C 
ATOM     22  C   UNL     1       6.746   4.681  17.272  0.00  0.00    +0.000 C 
BRANCH  20  23
ATOM     23  C   UNL     1       3.442   5.195  18.982  0.00  0.00    +0.000 C 
BRANCH  23  24
ATOM     24  C   UNL     1       2.926   6.562  19.312  0.00  0.00    +0.000 C 
ATOM     25  C   UNL     1       2.006   6.798  20.259  0.00  0.00    +0.000 C 
BRANCH  25  26
ATOM     26  C   UNL     1       1.469   8.137  20.481  0.00  0.00    +0.000 A 
ATOM     27  C   UNL     1       1.089   8.517  21.772  0.00  0.00    +0.000 A 
ATOM     28  C   UNL     1       0.559   9.788  22.003  0.00  0.00    +0.000 A 
ATOM     29  C   UNL     1       0.412  10.683  20.945  0.00  0.00    +0.000 A 
ATOM     30  C   UNL     1       0.791  10.310  19.655  0.00  0.00    +0.000 A 
ATOM     31  C   UNL     1       1.317   9.036  19.421  0.00  0.00    +0.000 A 
ENDBRANCH  25  26
ENDBRANCH  23  24
ENDBRANCH  20  23
ENDBRANCH   2  17
TORSDOF 5
ENDMDL
MODEL 7
REMARK VINA RESULT:      -8.5      1.878      2.467
REMARK  Name = 
REMARK  5 active torsions:
REMARK  status: ('A' for Active; 'I' for Inactive)
REMARK    1  A    between atoms: C_2  and  C_16
REMARK    2  A    between atoms: C_6  and  C_7
REMARK    3  A    between atoms: N_19  and  C_20
REMARK    4  A    between atoms: C_20  and  C_21
REMARK    5  A    between atoms: C_22  and  C_23
REMARK                            x       y       z     vdW  Elec       q    Type
REMARK                         _______ _______ _______ _____ _____    ______ ____
ROOT
ATOM      1  O   UNL     1       7.990   6.591  18.955  0.00  0.00    +0.000 OA
ATOM      2  C   UNL     1       7.611   6.991  17.860  0.00  0.00    +0.000 C 
ATOM      3  N   UNL     1       7.666   8.300  17.414  0.00  0.00    +0.000 N 
ATOM      4  C   UNL     1       8.341   9.317  18.068  0.00  0.00    +0.000 A 
ATOM      5  C   UNL     1       8.377  10.657  17.612  0.00  0.00    +0.000 A 
ATOM      6  C   UNL     1       9.145  11.331  18.535  0.00  0.00    +0.000 A 
ATOM      7  O   UNL     1       9.563  10.434  19.472  0.00  0.00    +0.000 OA
ATOM      8  N   UNL     1       9.066   9.184  19.179  0.00  0.00    +0.000 NA
ATOM      9  H   UNL     1       7.193   8.553  16.560  0.00  0.00    +0.000 HD
ENDROOT
BRANCH   6  10
ATOM     10  C   UNL     1       9.563  12.715  18.728  0.00  0.00    +0.000 A 
ATOM     11  C   UNL     1      10.864  13.031  19.154  0.00  0.00    +0.000 A 
ATOM     12  C   UNL     1      11.243  14.355  19.394  0.00  0.00    +0.000 A 
ATOM     13  C   UNL     1      10.327  15.387  19.208  0.00  0.00    +0.000 A 
ATOM     14  C   UNL     1       9.041  15.087  18.768  0.00  0.00    +0.000 A 
ATOM     15 BR   UNL     1       7.790  16.484  18.516  0.00  0.00    +0.000 Br
ATOM     16  C   UNL     1       8.658  13.766  18.523  0.00  0.00    +0.000 A 
ENDBRANCH   6  10
BRANCH   2  17
ATOM     17  C   UNL     1       6.989   6.038  16.826  0.00  0.00    +0.000 C 
ATOM     18  C   UNL     1       5.655   6.568  16.286  0.00  0.00    +0.000 C 
ATOM     19  C   UNL     1       4.522   6.489  17.322  0.00  0.00    +0.000 C 
ATOM     20  N   UNL     1       4.402   5.161  17.955  0.00  0.00    +0.000 NA
ATOM     21  C   UNL     1       5.685   4.707  18.506  0.00  0.00    +0.000 C 
ATOM     22  C   UNL     1       6.749   4.645  17.412  0.00  0.00    +0.000 C 
BRANCH  20  23
ATOM     23  C   UNL     1       3.412   5.194  19.045  0.00  0.00    +0.000 C 
BRANCH  23  24
ATOM     24  C   UNL     1       2.863   6.565  19.294  0.00  0.00    +0.000 C 
ATOM     25  C   UNL     1       2.037   6.859  20.310  0.00  0.00    +0.000 C 
BRANCH  25  26
ATOM     26  C   UNL     1       1.458   8.190  20.458  0.00  0.00    +0.000 A 
ATOM     27  C   UNL     1       1.351   9.019  19.336  0.00  0.00    +0.000 A 
ATOM     28  C   UNL     1       0.813  10.301  19.458  0.00  0.00    +0.000 A 
ATOM     29  C   UNL     1       0.378  10.757  20.701  0.00  0.00    +0.000 A 
ATOM     30  C   UNL     1       0.481   9.935  21.823  0.00  0.00    +0.000 A 
ATOM     31  C   UNL     1       1.023   8.652  21.703  0.00  0.00    +0.000 A 
ENDBRANCH  25  26
ENDBRANCH  23  24
ENDBRANCH  20  23
ENDBRANCH   2  17
TORSDOF 5
ENDMDL
MODEL 8
REMARK VINA RESULT:      -8.5      3.604      8.171
REMARK  Name = 
REMARK  5 active torsions:
REMARK  status: ('A' for Active; 'I' for Inactive)
REMARK    1  A    between atoms: C_2  and  C_16
REMARK    2  A    between atoms: C_6  and  C_7
REMARK    3  A    between atoms: N_19  and  C_20
REMARK    4  A    between atoms: C_20  and  C_21
REMARK    5  A    between atoms: C_22  and  C_23
REMARK                            x       y       z     vdW  Elec       q    Type
REMARK                         _______ _______ _______ _____ _____    ______ ____
ROOT
ATOM      1  O   UNL     1       3.810   5.334  19.154  0.00  0.00    +0.000 OA
ATOM      2  C   UNL     1       4.013   5.917  18.095  0.00  0.00    +0.000 C 
ATOM      3  N   UNL     1       3.321   7.025  17.636  0.00  0.00    +0.000 N 
ATOM      4  C   UNL     1       2.430   7.756  18.401  0.00  0.00    +0.000 A 
ATOM      5  C   UNL     1       1.715   8.879  17.917  0.00  0.00    +0.000 A 
ATOM      6  C   UNL     1       0.955   9.308  18.982  0.00  0.00    +0.000 A 
ATOM      7  O   UNL     1       1.223   8.501  20.046  0.00  0.00    +0.000 OA
ATOM      8  N   UNL     1       2.142   7.540  19.686  0.00  0.00    +0.000 NA
ATOM      9  H   UNL     1       3.462   7.338  16.688  0.00  0.00    +0.000 HD
ENDROOT
BRANCH   6  10
ATOM     10  C   UNL     1      -0.033  10.360  19.197  0.00  0.00    +0.000 A 
ATOM     11  C   UNL     1       0.128  11.314  20.216  0.00  0.00    +0.000 A 
ATOM     12  C   UNL     1      -0.848  12.284  20.457  0.00  0.00    +0.000 A 
ATOM     13  C   UNL     1      -2.002  12.320  19.680  0.00  0.00    +0.000 A 
ATOM     14  C   UNL     1      -2.165  11.391  18.655  0.00  0.00    +0.000 A 
ATOM     15 BR   UNL     1      -3.732  11.432  17.597  0.00  0.00    +0.000 Br
ATOM     16  C   UNL     1      -1.190  10.422  18.408  0.00  0.00    +0.000 A 
ENDBRANCH   6  10
BRANCH   2  17
ATOM     17  C   UNL     1       5.094   5.443  17.110  0.00  0.00    +0.000 C 
ATOM     18  C   UNL     1       6.196   4.639  17.810  0.00  0.00    +0.000 C 
ATOM     19  C   UNL     1       7.107   5.515  18.684  0.00  0.00    +0.000 C 
ATOM     20  N   UNL     1       7.620   6.706  17.979  0.00  0.00    +0.000 NA
ATOM     21  C   UNL     1       6.535   7.481  17.365  0.00  0.00    +0.000 C 
ATOM     22  C   UNL     1       5.749   6.618  16.380  0.00  0.00    +0.000 C 
BRANCH  20  23
ATOM     23  C   UNL     1       8.351   7.584  18.910  0.00  0.00    +0.000 C 
BRANCH  23  24
ATOM     24  C   UNL     1       8.655   8.930  18.328  0.00  0.00    +0.000 C 
ATOM     25  C   UNL     1       9.421   9.846  18.939  0.00  0.00    +0.000 C 
BRANCH  25  26
ATOM     26  C   UNL     1       9.614  11.176  18.372  0.00  0.00    +0.000 A 
ATOM     27  C   UNL     1       8.560  12.096  18.410  0.00  0.00    +0.000 A 
ATOM     28  C   UNL     1       8.720  13.370  17.860  0.00  0.00    +0.000 A 
ATOM     29  C   UNL     1       9.932  13.727  17.274  0.00  0.00    +0.000 A 
ATOM     30  C   UNL     1      10.986  12.815  17.233  0.00  0.00    +0.000 A 
ATOM     31  C   UNL     1      10.827  11.538  17.780  0.00  0.00    +0.000 A 
ENDBRANCH  25  26
ENDBRANCH  23  24
ENDBRANCH  20  23
ENDBRANCH   2  17
TORSDOF 5
ENDMDL
MODEL 9
REMARK VINA RESULT:      -8.5      3.293      7.989
REMARK  Name = 
REMARK  5 active torsions:
REMARK  status: ('A' for Active; 'I' for Inactive)
REMARK    1  A    between atoms: C_2  and  C_16
REMARK    2  A    between atoms: C_6  and  C_7
REMARK    3  A    between atoms: N_19  and  C_20
REMARK    4  A    between atoms: C_20  and  C_21
REMARK    5  A    between atoms: C_22  and  C_23
REMARK                            x       y       z     vdW  Elec       q    Type
REMARK                         _______ _______ _______ _____ _____    ______ ____
ROOT
ATOM      1  O   UNL     1       3.691   5.252  19.074  0.00  0.00    +0.000 OA
ATOM      2  C   UNL     1       3.906   5.881  18.044  0.00  0.00    +0.000 C 
ATOM      3  N   UNL     1       3.256   7.038  17.652  0.00  0.00    +0.000 N 
ATOM      4  C   UNL     1       2.403   7.764  18.465  0.00  0.00    +0.000 A 
ATOM      5  C   UNL     1       1.730   8.938  18.048  0.00  0.00    +0.000 A 
ATOM      6  C   UNL     1       0.999   9.341  19.143  0.00  0.00    +0.000 A 
ATOM      7  O   UNL     1       1.245   8.469  20.160  0.00  0.00    +0.000 OA
ATOM      8  N   UNL     1       2.120   7.493  19.740  0.00  0.00    +0.000 NA
ATOM      9  H   UNL     1       3.399   7.394  16.719  0.00  0.00    +0.000 HD
ENDROOT
BRANCH   6  10
ATOM     10  C   UNL     1       0.057  10.419  19.425  0.00  0.00    +0.000 A 
ATOM     11  C   UNL     1      -0.798  10.919  18.428  0.00  0.00    +0.000 A 
ATOM     12  C   UNL     1      -1.658  11.990  18.685  0.00  0.00    +0.000 A 
ATOM     13  C   UNL     1      -1.680  12.578  19.947  0.00  0.00    +0.000 A 
ATOM     14  C   UNL     1      -0.851  12.080  20.948  0.00  0.00    +0.000 A 
ATOM     15 BR   UNL     1      -0.874  12.877  22.663  0.00  0.00    +0.000 Br
ATOM     16  C   UNL     1       0.007  11.007  20.697  0.00  0.00    +0.000 A 
ENDBRANCH   6  10
BRANCH   2  17
ATOM     17  C   UNL     1       4.958   5.416  17.022  0.00  0.00    +0.000 C 
ATOM     18  C   UNL     1       6.057   4.569  17.675  0.00  0.00    +0.000 C 
ATOM     19  C   UNL     1       7.003   5.400  18.554  0.00  0.00    +0.000 C 
ATOM     20  N   UNL     1       7.526   6.602  17.876  0.00  0.00    +0.000 NA
ATOM     21  C   UNL     1       6.445   7.416  17.308  0.00  0.00    +0.000 C 
ATOM     22  C   UNL     1       5.621   6.600  16.314  0.00  0.00    +0.000 C 
BRANCH  20  23
ATOM     23  C   UNL     1       8.293   7.436  18.817  0.00  0.00    +0.000 C 
BRANCH  23  24
ATOM     24  C   UNL     1       8.660   8.772  18.249  0.00  0.00    +0.000 C 
ATOM     25  C   UNL     1       9.252   9.743  18.961  0.00  0.00    +0.000 C 
BRANCH  25  26
ATOM     26  C   UNL     1       9.507  11.060  18.386  0.00  0.00    +0.000 A 
ATOM     27  C   UNL     1       8.473  12.001  18.346  0.00  0.00    +0.000 A 
ATOM     28  C   UNL     1       8.692  13.262  17.787  0.00  0.00    +0.000 A 
ATOM     29  C   UNL     1       9.945  13.585  17.270  0.00  0.00    +0.000 A 
ATOM     30  C   UNL     1      10.980  12.651  17.308  0.00  0.00    +0.000 A 
ATOM     31  C   UNL     1      10.761  11.387  17.864  0.00  0.00    +0.000 A 
ENDBRANCH  25  26
ENDBRANCH  23  24
ENDBRANCH  20  23
ENDBRANCH   2  17
TORSDOF 5
ENDMDL
