MODEL 1
REMARK VINA RESULT:      -6.7      0.000      0.000
REMARK  Name = 
REMARK  7 active torsions:
REMARK  status: ('A' for Active; 'I' for Inactive)
REMARK    1  A    between atoms: S_2  and  N_4
REMARK    2  A    between atoms: S_2  and  C_13
REMARK    3  A    between atoms: N_4  and  C_5
REMARK    4  A    between atoms: C_5  and  C_6
REMARK    5  A    between atoms: C_5  and  C_8
REMARK    6  A    between atoms: C_6  and  O_7
REMARK    7  A    between atoms: C_8  and  C_9
REMARK                            x       y       z     vdW  Elec       q    Type
REMARK                         _______ _______ _______ _____ _____    ______ ____
ROOT
ATOM      1  N   UNL     1       5.327   4.207  16.692  0.00  0.00    +0.000 NA
ATOM      2  H   UNL     1       5.543   3.212  16.820  0.00  0.00    +0.000 HD
ENDROOT
BRANCH   1   4
ATOM      3  O   UNL     1       6.289   6.489  16.284  0.00  0.00    +0.000 OA
ATOM      4  S   UNL     1       6.665   5.098  16.205  0.00  0.00    +0.000 S 
ATOM      5  O   UNL     1       7.822   4.582  16.903  0.00  0.00    +0.000 OA
BRANCH   4   6
ATOM      6  C   UNL     1       6.809   4.671  14.489  0.00  0.00    +0.000 A 
ATOM      7  C   UNL     1       7.726   5.370  13.697  0.00  0.00    +0.000 A 
ATOM      8  C   UNL     1       7.783   5.104  12.331  0.00  0.00    +0.000 A 
ATOM      9  C   UNL     1       6.940   4.142  11.768  0.00  0.00    +0.000 A 
ATOM     10  C   UNL     1       6.050   3.428  12.569  0.00  0.00    +0.000 A 
ATOM     11  C   UNL     1       5.984   3.686  13.939  0.00  0.00    +0.000 A 
ENDBRANCH   4   6
ENDBRANCH   1   4
BRANCH   1  12
ATOM     12  C   UNL     1       4.287   4.726  17.622  0.00  0.00    +0.000 C 
BRANCH  12  13
ATOM     13  C   UNL     1       4.903   4.671  19.038  0.00  0.00    +0.000 C 
BRANCH  13  14
ATOM     14  O   UNL     1       5.780   3.542  19.125  0.00  0.00    +0.000 OA
ATOM     15  H   UNL     1       5.739   3.072  18.272  0.00  0.00    +0.000 HD
ENDBRANCH  13  14
ENDBRANCH  12  13
BRANCH  12  16
ATOM     16  C   UNL     1       2.979   3.944  17.523  0.00  0.00    +0.000 C 
BRANCH  16  17
ATOM     17  C   UNL     1       1.770   4.757  17.926  0.00  0.00    +0.000 C 
ATOM     18  F   UNL     1       2.026   6.083  17.946  0.00  0.00    +0.000 F 
ATOM     19  F   UNL     1       0.753   4.561  17.059  0.00  0.00    +0.000 F 
ATOM     20  F   UNL     1       1.337   4.406  19.154  0.00  0.00    +0.000 F 
ENDBRANCH  16  17
ENDBRANCH  12  16
ENDBRANCH   1  12
TORSDOF 7
ENDMDL
MODEL 2
REMARK VINA RESULT:      -6.7      2.271      2.951
REMARK  Name = 
REMARK  7 active torsions:
REMARK  status: ('A' for Active; 'I' for Inactive)
REMARK    1  A    between atoms: S_2  and  N_4
REMARK    2  A    between atoms: S_2  and  C_13
REMARK    3  A    between atoms: N_4  and  C_5
REMARK    4  A    between atoms: C_5  and  C_6
REMARK    5  A    between atoms: C_5  and  C_8
REMARK    6  A    between atoms: C_6  and  O_7
REMARK    7  A    between atoms: C_8  and  C_9
REMARK                            x       y       z     vdW  Elec       q    Type
REMARK                         _______ _______ _______ _____ _____    ______ ____
ROOT
ATOM      1  N   UNL     1       5.263   3.405  19.332  0.00  0.00    +0.000 NA
ATOM      2  H   UNL     1       5.899   2.922  19.977  0.00  0.00    +0.000 HD
ENDROOT
BRANCH   1   4
ATOM      3  O   UNL     1       4.433   5.767  19.497  0.00  0.00    +0.000 OA
ATOM      4  S   UNL     1       5.631   5.034  19.163  0.00  0.00    +0.000 S 
ATOM      5  O   UNL     1       6.886   5.281  19.839  0.00  0.00    +0.000 OA
BRANCH   4   6
ATOM      6  C   UNL     1       5.895   5.192  17.416  0.00  0.00    +0.000 A 
ATOM      7  C   UNL     1       5.072   6.057  16.687  0.00  0.00    +0.000 A 
ATOM      8  C   UNL     1       5.213   6.121  15.303  0.00  0.00    +0.000 A 
ATOM      9  C   UNL     1       6.172   5.335  14.658  0.00  0.00    +0.000 A 
ATOM     10  C   UNL     1       7.009   4.498  15.395  0.00  0.00    +0.000 A 
ATOM     11  C   UNL     1       6.877   4.426  16.783  0.00  0.00    +0.000 A 
ENDBRANCH   4   6
ENDBRANCH   1   4
BRANCH   1  12
ATOM     12  C   UNL     1       3.873   2.871  19.341  0.00  0.00    +0.000 C 
BRANCH  12  13
ATOM     13  C   UNL     1       3.991   1.349  19.581  0.00  0.00    +0.000 C 
BRANCH  13  14
ATOM     14  O   UNL     1       4.015   0.677  18.317  0.00  0.00    +0.000 OA
ATOM     15  H   UNL     1       4.728   1.074  17.785  0.00  0.00    +0.000 HD
ENDBRANCH  13  14
ENDBRANCH  12  13
BRANCH  12  16
ATOM     16  C   UNL     1       3.117   3.203  18.057  0.00  0.00    +0.000 C 
BRANCH  16  17
ATOM     17  C   UNL     1       1.719   3.722  18.309  0.00  0.00    +0.000 C 
ATOM     18  F   UNL     1       1.614   4.362  19.493  0.00  0.00    +0.000 F 
ATOM     19  F   UNL     1       1.354   4.598  17.349  0.00  0.00    +0.000 F 
ATOM     20  F   UNL     1       0.821   2.714  18.308  0.00  0.00    +0.000 F 
ENDBRANCH  16  17
ENDBRANCH  12  16
ENDBRANCH   1  12
TORSDOF 7
ENDMDL
MODEL 3
REMARK VINA RESULT:      -6.6      0.356      1.197
REMARK  Name = 
REMARK  7 active torsions:
REMARK  status: ('A' for Active; 'I' for Inactive)
REMARK    1  A    between atoms: S_2  and  N_4
REMARK    2  A    between atoms: S_2  and  C_13
REMARK    3  A    between atoms: N_4  and  C_5
REMARK    4  A    between atoms: C_5  and  C_6
REMARK    5  A    between atoms: C_5  and  C_8
REMARK    6  A    between atoms: C_6  and  O_7
REMARK    7  A    between atoms: C_8  and  C_9
REMARK                            x       y       z     vdW  Elec       q    Type
REMARK                         _______ _______ _______ _____ _____    ______ ____
ROOT
ATOM      1  N   UNL     1       5.573   4.080  16.922  0.00  0.00    +0.000 NA
ATOM      2  H   UNL     1       5.862   3.146  17.233  0.00  0.00    +0.000 HD
ENDROOT
BRANCH   1   4
ATOM      3  O   UNL     1       6.513   6.378  16.552  0.00  0.00    +0.000 OA
ATOM      4  S   UNL     1       6.858   4.992  16.342  0.00  0.00    +0.000 S 
ATOM      5  O   UNL     1       8.081   4.425  16.867  0.00  0.00    +0.000 OA
BRANCH   4   6
ATOM      6  C   UNL     1       6.798   4.678  14.597  0.00  0.00    +0.000 A 
ATOM      7  C   UNL     1       5.880   3.740  14.114  0.00  0.00    +0.000 A 
ATOM      8  C   UNL     1       5.885   3.421  12.758  0.00  0.00    +0.000 A 
ATOM      9  C   UNL     1       6.793   4.042  11.895  0.00  0.00    +0.000 A 
ATOM     10  C   UNL     1       7.685   4.999  12.380  0.00  0.00    +0.000 A 
ATOM     11  C   UNL     1       7.687   5.326  13.736  0.00  0.00    +0.000 A 
ENDBRANCH   4   6
ENDBRANCH   1   4
BRANCH   1  12
ATOM     12  C   UNL     1       4.443   4.654  17.703  0.00  0.00    +0.000 C 
BRANCH  12  13
ATOM     13  C   UNL     1       4.847   4.556  19.191  0.00  0.00    +0.000 C 
BRANCH  13  14
ATOM     14  O   UNL     1       6.274   4.624  19.295  0.00  0.00    +0.000 OA
ATOM     15  H   UNL     1       6.585   5.275  18.641  0.00  0.00    +0.000 HD
ENDBRANCH  13  14
ENDBRANCH  12  13
BRANCH  12  16
ATOM     16  C   UNL     1       3.120   3.951  17.409  0.00  0.00    +0.000 C 
BRANCH  16  17
ATOM     17  C   UNL     1       1.916   4.729  17.890  0.00  0.00    +0.000 C 
ATOM     18  F   UNL     1       2.140   6.060  17.917  0.00  0.00    +0.000 F 
ATOM     19  F   UNL     1       0.857   4.520  17.079  0.00  0.00    +0.000 F 
ATOM     20  F   UNL     1       1.560   4.350  19.136  0.00  0.00    +0.000 F 
ENDBRANCH  16  17
ENDBRANCH  12  16
ENDBRANCH   1  12
TORSDOF 7
ENDMDL
MODEL 4
REMARK VINA RESULT:      -6.6      3.300      4.032
REMARK  Name = 
REMARK  7 active torsions:
REMARK  status: ('A' for Active; 'I' for Inactive)
REMARK    1  A    between atoms: S_2  and  N_4
REMARK    2  A    between atoms: S_2  and  C_13
REMARK    3  A    between atoms: N_4  and  C_5
REMARK    4  A    between atoms: C_5  and  C_6
REMARK    5  A    between atoms: C_5  and  C_8
REMARK    6  A    between atoms: C_6  and  O_7
REMARK    7  A    between atoms: C_8  and  C_9
REMARK                            x       y       z     vdW  Elec       q    Type
REMARK                         _______ _______ _______ _____ _____    ______ ____
ROOT
ATOM      1  N   UNL     1       4.756   3.379  17.761  0.00  0.00    +0.000 NA
ATOM      2  H   UNL     1       5.718   3.111  18.002  0.00  0.00    +0.000 HD
ENDROOT
BRANCH   1   4
ATOM      3  O   UNL     1       5.001   4.583  15.573  0.00  0.00    +0.000 OA
ATOM      4  S   UNL     1       4.680   4.850  16.955  0.00  0.00    +0.000 S 
ATOM      5  O   UNL     1       3.449   5.505  17.337  0.00  0.00    +0.000 OA
BRANCH   4   6
ATOM      6  C   UNL     1       6.037   5.748  17.663  0.00  0.00    +0.000 A 
ATOM      7  C   UNL     1       6.415   6.963  17.082  0.00  0.00    +0.000 A 
ATOM      8  C   UNL     1       7.533   7.632  17.575  0.00  0.00    +0.000 A 
ATOM      9  C   UNL     1       8.257   7.095  18.643  0.00  0.00    +0.000 A 
ATOM     10  C   UNL     1       7.855   5.898  19.236  0.00  0.00    +0.000 A 
ATOM     11  C   UNL     1       6.737   5.220  18.750  0.00  0.00    +0.000 A 
ENDBRANCH   4   6
ENDBRANCH   1   4
BRANCH   1  12
ATOM     12  C   UNL     1       3.738   2.928  18.749  0.00  0.00    +0.000 C 
BRANCH  12  13
ATOM     13  C   UNL     1       4.442   1.902  19.664  0.00  0.00    +0.000 C 
BRANCH  13  14
ATOM     14  O   UNL     1       4.563   0.657  18.965  0.00  0.00    +0.000 OA
ATOM     15  H   UNL     1       4.598  -0.052  19.632  0.00  0.00    +0.000 HD
ENDBRANCH  13  14
ENDBRANCH  12  13
BRANCH  12  16
ATOM     16  C   UNL     1       2.493   2.354  18.077  0.00  0.00    +0.000 C 
BRANCH  16  17
ATOM     17  C   UNL     1       1.209   2.986  18.568  0.00  0.00    +0.000 C 
ATOM     18  F   UNL     1       0.168   2.127  18.535  0.00  0.00    +0.000 F 
ATOM     19  F   UNL     1       1.342   3.403  19.846  0.00  0.00    +0.000 F 
ATOM     20  F   UNL     1       0.879   4.058  17.818  0.00  0.00    +0.000 F 
ENDBRANCH  16  17
ENDBRANCH  12  16
ENDBRANCH   1  12
TORSDOF 7
ENDMDL
MODEL 5
REMARK VINA RESULT:      -6.5      2.304      3.180
REMARK  Name = 
REMARK  7 active torsions:
REMARK  status: ('A' for Active; 'I' for Inactive)
REMARK    1  A    between atoms: S_2  and  N_4
REMARK    2  A    between atoms: S_2  and  C_13
REMARK    3  A    between atoms: N_4  and  C_5
REMARK    4  A    between atoms: C_5  and  C_6
REMARK    5  A    between atoms: C_5  and  C_8
REMARK    6  A    between atoms: C_6  and  O_7
REMARK    7  A    between atoms: C_8  and  C_9
REMARK                            x       y       z     vdW  Elec       q    Type
REMARK                         _______ _______ _______ _____ _____    ______ ____
ROOT
ATOM      1  N   UNL     1       4.976   3.506  19.467  0.00  0.00    +0.000 NA
ATOM      2  H   UNL     1       5.663   2.917  19.950  0.00  0.00    +0.000 HD
ENDROOT
BRANCH   1   4
ATOM      3  O   UNL     1       4.457   5.962  19.480  0.00  0.00    +0.000 OA
ATOM      4  S   UNL     1       5.545   5.060  19.185  0.00  0.00    +0.000 S 
ATOM      5  O   UNL     1       6.834   5.188  19.830  0.00  0.00    +0.000 OA
BRANCH   4   6
ATOM      6  C   UNL     1       5.794   5.067  17.428  0.00  0.00    +0.000 A 
ATOM      7  C   UNL     1       6.853   4.325  16.896  0.00  0.00    +0.000 A 
ATOM      8  C   UNL     1       7.111   4.394  15.529  0.00  0.00    +0.000 A 
ATOM      9  C   UNL     1       6.310   5.189  14.704  0.00  0.00    +0.000 A 
ATOM     10  C   UNL     1       5.237   5.902  15.238  0.00  0.00    +0.000 A 
ATOM     11  C   UNL     1       4.970   5.839  16.606  0.00  0.00    +0.000 A 
ENDBRANCH   4   6
ENDBRANCH   1   4
BRANCH   1  12
ATOM     12  C   UNL     1       3.562   3.199  19.820  0.00  0.00    +0.000 C 
BRANCH  12  13
ATOM     13  C   UNL     1       3.612   2.090  20.896  0.00  0.00    +0.000 C 
BRANCH  13  14
ATOM     14  O   UNL     1       2.822   2.493  22.020  0.00  0.00    +0.000 OA
ATOM     15  H   UNL     1       3.407   2.975  22.633  0.00  0.00    +0.000 HD
ENDBRANCH  13  14
ENDBRANCH  12  13
BRANCH  12  16
ATOM     16  C   UNL     1       2.736   2.794  18.601  0.00  0.00    +0.000 C 
BRANCH  16  17
ATOM     17  C   UNL     1       1.329   3.347  18.629  0.00  0.00    +0.000 C 
ATOM     18  F   UNL     1       0.394   2.378  18.534  0.00  0.00    +0.000 F 
ATOM     19  F   UNL     1       1.100   4.011  19.783  0.00  0.00    +0.000 F 
ATOM     20  F   UNL     1       1.128   4.210  17.611  0.00  0.00    +0.000 F 
ENDBRANCH  16  17
ENDBRANCH  12  16
ENDBRANCH   1  12
TORSDOF 7
ENDMDL
MODEL 6
REMARK VINA RESULT:      -6.5      3.063      3.943
REMARK  Name = 
REMARK  7 active torsions:
REMARK  status: ('A' for Active; 'I' for Inactive)
REMARK    1  A    between atoms: S_2  and  N_4
REMARK    2  A    between atoms: S_2  and  C_13
REMARK    3  A    between atoms: N_4  and  C_5
REMARK    4  A    between atoms: C_5  and  C_6
REMARK    5  A    between atoms: C_5  and  C_8
REMARK    6  A    between atoms: C_6  and  O_7
REMARK    7  A    between atoms: C_8  and  C_9
REMARK                            x       y       z     vdW  Elec       q    Type
REMARK                         _______ _______ _______ _____ _____    ______ ____
ROOT
ATOM      1  N   UNL     1       2.684   4.056  18.242  0.00  0.00    +0.000 NA
ATOM      2  H   UNL     1       2.469   3.858  17.258  0.00  0.00    +0.000 HD
ENDROOT
BRANCH   1   4
ATOM      3  O   UNL     1       2.720   6.553  17.984  0.00  0.00    +0.000 OA
ATOM      4  S   UNL     1       3.565   5.473  18.435  0.00  0.00    +0.000 S 
ATOM      5  O   UNL     1       4.143   5.462  19.761  0.00  0.00    +0.000 OA
BRANCH   4   6
ATOM      6  C   UNL     1       4.873   5.278  17.251  0.00  0.00    +0.000 A 
ATOM      7  C   UNL     1       4.710   4.353  16.215  0.00  0.00    +0.000 A 
ATOM      8  C   UNL     1       5.766   4.129  15.334  0.00  0.00    +0.000 A 
ATOM      9  C   UNL     1       6.965   4.830  15.484  0.00  0.00    +0.000 A 
ATOM     10  C   UNL     1       7.109   5.773  16.501  0.00  0.00    +0.000 A 
ATOM     11  C   UNL     1       6.058   6.006  17.389  0.00  0.00    +0.000 A 
ENDBRANCH   4   6
ENDBRANCH   1   4
BRANCH   1  12
ATOM     12  C   UNL     1       2.892   2.838  19.072  0.00  0.00    +0.000 C 
BRANCH  12  13
ATOM     13  C   UNL     1       3.212   1.689  18.090  0.00  0.00    +0.000 C 
BRANCH  13  14
ATOM     14  O   UNL     1       4.224   0.853  18.661  0.00  0.00    +0.000 OA
ATOM     15  H   UNL     1       4.777   0.520  17.931  0.00  0.00    +0.000 HD
ENDBRANCH  13  14
ENDBRANCH  12  13
BRANCH  12  16
ATOM     16  C   UNL     1       1.688   2.530  19.959  0.00  0.00    +0.000 C 
BRANCH  16  17
ATOM     17  C   UNL     1       1.921   2.869  21.414  0.00  0.00    +0.000 C 
ATOM     18  F   UNL     1       3.060   2.325  21.893  0.00  0.00    +0.000 F 
ATOM     19  F   UNL     1       2.017   4.206  21.584  0.00  0.00    +0.000 F 
ATOM     20  F   UNL     1       0.904   2.429  22.184  0.00  0.00    +0.000 F 
ENDBRANCH  16  17
ENDBRANCH  12  16
ENDBRANCH   1  12
TORSDOF 7
ENDMDL
MODEL 7
REMARK VINA RESULT:      -6.5      2.261      2.924
REMARK  Name = 
REMARK  7 active torsions:
REMARK  status: ('A' for Active; 'I' for Inactive)
REMARK    1  A    between atoms: S_2  and  N_4
REMARK    2  A    between atoms: S_2  and  C_13
REMARK    3  A    between atoms: N_4  and  C_5
REMARK    4  A    between atoms: C_5  and  C_6
REMARK    5  A    between atoms: C_5  and  C_8
REMARK    6  A    between atoms: C_6  and  O_7
REMARK    7  A    between atoms: C_8  and  C_9
REMARK                            x       y       z     vdW  Elec       q    Type
REMARK                         _______ _______ _______ _____ _____    ______ ____
ROOT
ATOM      1  N   UNL     1       5.099   3.353  19.304  0.00  0.00    +0.000 NA
ATOM      2  H   UNL     1       5.718   2.848  19.949  0.00  0.00    +0.000 HD
ENDROOT
BRANCH   1   4
ATOM      3  O   UNL     1       4.369   5.748  19.484  0.00  0.00    +0.000 OA
ATOM      4  S   UNL     1       5.530   4.966  19.128  0.00  0.00    +0.000 S 
ATOM      5  O   UNL     1       6.807   5.161  19.780  0.00  0.00    +0.000 OA
BRANCH   4   6
ATOM      6  C   UNL     1       5.766   5.114  17.375  0.00  0.00    +0.000 A 
ATOM      7  C   UNL     1       6.785   4.371  16.769  0.00  0.00    +0.000 A 
ATOM      8  C   UNL     1       7.036   4.546  15.410  0.00  0.00    +0.000 A 
ATOM      9  C   UNL     1       6.269   5.448  14.667  0.00  0.00    +0.000 A 
ATOM     10  C   UNL     1       5.235   6.162  15.272  0.00  0.00    +0.000 A 
ATOM     11  C   UNL     1       4.975   5.993  16.633  0.00  0.00    +0.000 A 
ENDBRANCH   4   6
ENDBRANCH   1   4
BRANCH   1  12
ATOM     12  C   UNL     1       3.689   2.875  19.320  0.00  0.00    +0.000 C 
BRANCH  12  13
ATOM     13  C   UNL     1       3.748   1.350  19.562  0.00  0.00    +0.000 C 
BRANCH  13  14
ATOM     14  O   UNL     1       4.297   0.713  18.403  0.00  0.00    +0.000 OA
ATOM     15  H   UNL     1       3.707  -0.025  18.166  0.00  0.00    +0.000 HD
ENDBRANCH  13  14
ENDBRANCH  12  13
BRANCH  12  16
ATOM     16  C   UNL     1       2.940   3.235  18.038  0.00  0.00    +0.000 C 
BRANCH  16  17
ATOM     17  C   UNL     1       1.541   3.747  18.293  0.00  0.00    +0.000 C 
ATOM     18  F   UNL     1       1.450   4.441  19.447  0.00  0.00    +0.000 F 
ATOM     19  F   UNL     1       1.146   4.572  17.300  0.00  0.00    +0.000 F 
ATOM     20  F   UNL     1       0.656   2.730  18.358  0.00  0.00    +0.000 F 
ENDBRANCH  16  17
ENDBRANCH  12  16
ENDBRANCH   1  12
TORSDOF 7
ENDMDL
MODEL 8
REMARK VINA RESULT:      -6.5      2.788      3.826
REMARK  Name = 
REMARK  7 active torsions:
REMARK  status: ('A' for Active; 'I' for Inactive)
REMARK    1  A    between atoms: S_2  and  N_4
REMARK    2  A    between atoms: S_2  and  C_13
REMARK    3  A    between atoms: N_4  and  C_5
REMARK    4  A    between atoms: C_5  and  C_6
REMARK    5  A    between atoms: C_5  and  C_8
REMARK    6  A    between atoms: C_6  and  O_7
REMARK    7  A    between atoms: C_8  and  C_9
REMARK                            x       y       z     vdW  Elec       q    Type
REMARK                         _______ _______ _______ _____ _____    ______ ____
ROOT
ATOM      1  N   UNL     1       3.836   5.089  19.547  0.00  0.00    +0.000 NA
ATOM      2  H   UNL     1       3.761   6.097  19.371  0.00  0.00    +0.000 HD
ENDROOT
BRANCH   1   4
ATOM      3  O   UNL     1       6.324   5.327  19.772  0.00  0.00    +0.000 OA
ATOM      4  S   UNL     1       5.344   4.474  19.141  0.00  0.00    +0.000 S 
ATOM      5  O   UNL     1       5.321   3.046  19.368  0.00  0.00    +0.000 OA
BRANCH   4   6
ATOM      6  C   UNL     1       5.420   4.763  17.392  0.00  0.00    +0.000 A 
ATOM      7  C   UNL     1       5.852   3.727  16.557  0.00  0.00    +0.000 A 
ATOM      8  C   UNL     1       5.999   3.971  15.194  0.00  0.00    +0.000 A 
ATOM      9  C   UNL     1       5.708   5.234  14.672  0.00  0.00    +0.000 A 
ATOM     10  C   UNL     1       5.249   6.254  15.507  0.00  0.00    +0.000 A 
ATOM     11  C   UNL     1       5.097   6.020  16.874  0.00  0.00    +0.000 A 
ENDBRANCH   4   6
ENDBRANCH   1   4
BRANCH   1  12
ATOM     12  C   UNL     1       2.562   4.344  19.346  0.00  0.00    +0.000 C 
BRANCH  12  13
ATOM     13  C   UNL     1       1.780   5.105  18.252  0.00  0.00    +0.000 C 
BRANCH  13  14
ATOM     14  O   UNL     1       1.193   4.158  17.352  0.00  0.00    +0.000 OA
ATOM     15  H   UNL     1       1.876   3.905  16.705  0.00  0.00    +0.000 HD
ENDBRANCH  13  14
ENDBRANCH  12  13
BRANCH  12  16
ATOM     16  C   UNL     1       1.765   4.200  20.641  0.00  0.00    +0.000 C 
BRANCH  16  17
ATOM     17  C   UNL     1       1.798   2.797  21.204  0.00  0.00    +0.000 C 
ATOM     18  F   UNL     1       2.981   2.504  21.784  0.00  0.00    +0.000 F 
ATOM     19  F   UNL     1       0.842   2.638  22.146  0.00  0.00    +0.000 F 
ATOM     20  F   UNL     1       1.578   1.882  20.237  0.00  0.00    +0.000 F 
ENDBRANCH  16  17
ENDBRANCH  12  16
ENDBRANCH   1  12
TORSDOF 7
ENDMDL
MODEL 9
REMARK VINA RESULT:      -6.5      2.673      3.636
REMARK  Name = 
REMARK  7 active torsions:
REMARK  status: ('A' for Active; 'I' for Inactive)
REMARK    1  A    between atoms: S_2  and  N_4
REMARK    2  A    between atoms: S_2  and  C_13
REMARK    3  A    between atoms: N_4  and  C_5
REMARK    4  A    between atoms: C_5  and  C_6
REMARK    5  A    between atoms: C_5  and  C_8
REMARK    6  A    between atoms: C_6  and  O_7
REMARK    7  A    between atoms: C_8  and  C_9
REMARK                            x       y       z     vdW  Elec       q    Type
REMARK                         _______ _______ _______ _____ _____    ______ ____
ROOT
ATOM      1  N   UNL     1       3.822   5.098  19.095  0.00  0.00    +0.000 NA
ATOM      2  H   UNL     1       3.700   5.879  18.441  0.00  0.00    +0.000 HD
ENDROOT
BRANCH   1   4
ATOM      3  O   UNL     1       6.217   5.490  19.736  0.00  0.00    +0.000 OA
ATOM      4  S   UNL     1       5.390   4.497  19.094  0.00  0.00    +0.000 S 
ATOM      5  O   UNL     1       5.344   3.128  19.560  0.00  0.00    +0.000 OA
BRANCH   4   6
ATOM      6  C   UNL     1       5.798   4.487  17.367  0.00  0.00    +0.000 A 
ATOM      7  C   UNL     1       7.113   4.770  16.985  0.00  0.00    +0.000 A 
ATOM      8  C   UNL     1       7.424   4.852  15.629  0.00  0.00    +0.000 A 
ATOM      9  C   UNL     1       6.430   4.643  14.669  0.00  0.00    +0.000 A 
ATOM     10  C   UNL     1       5.127   4.331  15.058  0.00  0.00    +0.000 A 
ATOM     11  C   UNL     1       4.806   4.246  16.413  0.00  0.00    +0.000 A 
ENDBRANCH   4   6
ENDBRANCH   1   4
BRANCH   1  12
ATOM     12  C   UNL     1       2.613   4.243  19.248  0.00  0.00    +0.000 C 
BRANCH  12  13
ATOM     13  C   UNL     1       1.556   4.802  18.270  0.00  0.00    +0.000 C 
BRANCH  13  14
ATOM     14  O   UNL     1       1.306   3.833  17.246  0.00  0.00    +0.000 OA
ATOM     15  H   UNL     1       0.340   3.750  17.149  0.00  0.00    +0.000 HD
ENDBRANCH  13  14
ENDBRANCH  12  13
BRANCH  12  16
ATOM     16  C   UNL     1       2.111   4.202  20.690  0.00  0.00    +0.000 C 
BRANCH  16  17
ATOM     17  C   UNL     1       1.936   2.796  21.217  0.00  0.00    +0.000 C 
ATOM     18  F   UNL     1       1.609   1.919  20.245  0.00  0.00    +0.000 F 
ATOM     19  F   UNL     1       3.078   2.353  21.786  0.00  0.00    +0.000 F 
ATOM     20  F   UNL     1       0.965   2.747  22.154  0.00  0.00    +0.000 F 
ENDBRANCH  16  17
ENDBRANCH  12  16
ENDBRANCH   1  12
TORSDOF 7
ENDMDL
