MODEL 1
REMARK VINA RESULT:      -4.5      0.000      0.000
REMARK  Name = 
REMARK  4 active torsions:
REMARK  status: ('A' for Active; 'I' for Inactive)
REMARK    1  A    between atoms: O_1  and  C_2
REMARK    2  A    between atoms: C_2  and  C_3
REMARK    3  A    between atoms: C_6  and  O_7
REMARK    4  A    between atoms: C_8  and  O_9
REMARK                            x       y       z     vdW  Elec       q    Type
REMARK                         _______ _______ _______ _____ _____    ______ ____
ROOT
ATOM      1  C   UNK     1       5.550   5.186  18.879  0.00  0.00    +0.000 C 
ATOM      2  N   UNK     1       6.790   5.153  19.693  0.00  0.00    +0.000 NA
ATOM      3  C   UNK     1       7.716   6.007  18.925  0.00  0.00    +0.000 C 
ATOM      4  C   UNK     1       7.454   5.685  17.447  0.00  0.00    +0.000 C 
ATOM      5  C   UNK     1       6.039   5.069  17.427  0.00  0.00    +0.000 C 
ATOM      6  H   UNK     1       7.163   4.204  19.711  0.00  0.00    +0.000 HD
ENDROOT
BRANCH   4   7
ATOM      7  O   UNK     1       7.547   6.849  16.635  0.00  0.00    +0.000 OA
ATOM      8  H   UNK     1       7.098   6.674  15.787  0.00  0.00    +0.000 HD
ENDBRANCH   4   7
BRANCH   5   9
ATOM      9  O   UNK     1       6.091   3.712  16.985  0.00  0.00    +0.000 OA
ATOM     10  H   UNK     1       6.572   3.189  17.647  0.00  0.00    +0.000 HD
ENDBRANCH   5   9
BRANCH   1  11
ATOM     11  C   UNK     1       4.528   4.119  19.287  0.00  0.00    +0.000 C 
BRANCH  11  12
ATOM     12  O   UNK     1       5.165   2.866  19.523  0.00  0.00    +0.000 OA
ATOM     13  H   UNK     1       4.672   2.209  19.000  0.00  0.00    +0.000 HD
ENDBRANCH  11  12
ENDBRANCH   1  11
TORSDOF 4
ENDMDL
MODEL 2
REMARK VINA RESULT:      -4.4      2.226      3.640
REMARK  Name = 
REMARK  4 active torsions:
REMARK  status: ('A' for Active; 'I' for Inactive)
REMARK    1  A    between atoms: O_1  and  C_2
REMARK    2  A    between atoms: C_2  and  C_3
REMARK    3  A    between atoms: C_6  and  O_7
REMARK    4  A    between atoms: C_8  and  O_9
REMARK                            x       y       z     vdW  Elec       q    Type
REMARK                         _______ _______ _______ _____ _____    ______ ____
ROOT
ATOM      1  C   UNK     1       5.972   4.641  16.246  0.00  0.00    +0.000 C 
ATOM      2  N   UNK     1       5.099   3.522  16.682  0.00  0.00    +0.000 NA
ATOM      3  C   UNK     1       4.791   3.866  18.083  0.00  0.00    +0.000 C 
ATOM      4  C   UNK     1       6.088   4.438  18.669  0.00  0.00    +0.000 C 
ATOM      5  C   UNK     1       6.907   4.887  17.440  0.00  0.00    +0.000 C 
ATOM      6  H   UNK     1       5.629   2.650  16.671  0.00  0.00    +0.000 HD
ENDROOT
BRANCH   4   7
ATOM      7  O   UNK     1       5.827   5.514  19.563  0.00  0.00    +0.000 OA
ATOM      8  H   UNK     1       5.447   6.255  19.057  0.00  0.00    +0.000 HD
ENDBRANCH   4   7
BRANCH   5   9
ATOM      9  O   UNK     1       8.115   4.131  17.341  0.00  0.00    +0.000 OA
ATOM     10  H   UNK     1       8.844   4.738  17.130  0.00  0.00    +0.000 HD
ENDBRANCH   5   9
BRANCH   1  11
ATOM     11  C   UNK     1       6.697   4.365  14.924  0.00  0.00    +0.000 C 
BRANCH  11  12
ATOM     12  O   UNK     1       7.686   5.359  14.666  0.00  0.00    +0.000 OA
ATOM     13  H   UNK     1       8.263   5.376  15.449  0.00  0.00    +0.000 HD
ENDBRANCH  11  12
ENDBRANCH   1  11
TORSDOF 4
ENDMDL
MODEL 3
REMARK VINA RESULT:      -4.4      2.328      4.596
REMARK  Name = 
REMARK  4 active torsions:
REMARK  status: ('A' for Active; 'I' for Inactive)
REMARK    1  A    between atoms: O_1  and  C_2
REMARK    2  A    between atoms: C_2  and  C_3
REMARK    3  A    between atoms: C_6  and  O_7
REMARK    4  A    between atoms: C_8  and  O_9
REMARK                            x       y       z     vdW  Elec       q    Type
REMARK                         _______ _______ _______ _____ _____    ______ ____
ROOT
ATOM      1  C   UNK     1       4.187   4.129  18.848  0.00  0.00    +0.000 C 
ATOM      2  N   UNK     1       3.961   3.720  17.438  0.00  0.00    +0.000 NA
ATOM      3  C   UNK     1       2.759   2.871  17.526  0.00  0.00    +0.000 C 
ATOM      4  C   UNK     1       2.916   2.053  18.816  0.00  0.00    +0.000 C 
ATOM      5  C   UNK     1       3.925   2.855  19.665  0.00  0.00    +0.000 C 
ATOM      6  H   UNK     1       4.742   3.145  17.120  0.00  0.00    +0.000 HD
ENDROOT
BRANCH   4   7
ATOM      7  O   UNK     1       1.670   1.882  19.480  0.00  0.00    +0.000 OA
ATOM      8  H   UNK     1       1.710   1.064  20.011  0.00  0.00    +0.000 HD
ENDBRANCH   4   7
BRANCH   5   9
ATOM      9  O   UNK     1       5.118   2.096  19.873  0.00  0.00    +0.000 OA
ATOM     10  H   UNK     1       5.246   1.506  19.112  0.00  0.00    +0.000 HD
ENDBRANCH   5   9
BRANCH   1  11
ATOM     11  C   UNK     1       5.565   4.758  19.083  0.00  0.00    +0.000 C 
BRANCH  11  12
ATOM     12  O   UNK     1       6.573   4.071  18.344  0.00  0.00    +0.000 OA
ATOM     13  H   UNK     1       7.360   4.643  18.364  0.00  0.00    +0.000 HD
ENDBRANCH  11  12
ENDBRANCH   1  11
TORSDOF 4
ENDMDL
MODEL 4
REMARK VINA RESULT:      -4.3      2.036      3.527
REMARK  Name = 
REMARK  4 active torsions:
REMARK  status: ('A' for Active; 'I' for Inactive)
REMARK    1  A    between atoms: O_1  and  C_2
REMARK    2  A    between atoms: C_2  and  C_3
REMARK    3  A    between atoms: C_6  and  O_7
REMARK    4  A    between atoms: C_8  and  O_9
REMARK                            x       y       z     vdW  Elec       q    Type
REMARK                         _______ _______ _______ _____ _____    ______ ____
ROOT
ATOM      1  C   UNK     1       5.943   4.969  17.607  0.00  0.00    +0.000 C 
ATOM      2  N   UNK     1       5.361   3.605  17.671  0.00  0.00    +0.000 NA
ATOM      3  C   UNK     1       4.175   3.788  18.528  0.00  0.00    +0.000 C 
ATOM      4  C   UNK     1       4.599   4.772  19.628  0.00  0.00    +0.000 C 
ATOM      5  C   UNK     1       5.824   5.507  19.042  0.00  0.00    +0.000 C 
ATOM      6  H   UNK     1       6.011   2.978  18.147  0.00  0.00    +0.000 HD
ENDROOT
BRANCH   4   7
ATOM      7  O   UNK     1       3.545   5.665  19.964  0.00  0.00    +0.000 OA
ATOM      8  H   UNK     1       3.253   6.122  19.153  0.00  0.00    +0.000 HD
ENDBRANCH   4   7
BRANCH   5   9
ATOM      9  O   UNK     1       6.991   5.230  19.818  0.00  0.00    +0.000 OA
ATOM     10  H   UNK     1       6.746   5.234  20.758  0.00  0.00    +0.000 HD
ENDBRANCH   5   9
BRANCH   1  11
ATOM     11  C   UNK     1       7.367   4.996  17.040  0.00  0.00    +0.000 C 
BRANCH  11  12
ATOM     12  O   UNK     1       8.190   4.024  17.682  0.00  0.00    +0.000 OA
ATOM     13  H   UNK     1       7.625   3.583  18.340  0.00  0.00    +0.000 HD
ENDBRANCH  11  12
ENDBRANCH   1  11
TORSDOF 4
ENDMDL
MODEL 5
REMARK VINA RESULT:      -4.3      1.381      1.401
REMARK  Name = 
REMARK  4 active torsions:
REMARK  status: ('A' for Active; 'I' for Inactive)
REMARK    1  A    between atoms: O_1  and  C_2
REMARK    2  A    between atoms: C_2  and  C_3
REMARK    3  A    between atoms: C_6  and  O_7
REMARK    4  A    between atoms: C_8  and  O_9
REMARK                            x       y       z     vdW  Elec       q    Type
REMARK                         _______ _______ _______ _____ _____    ______ ____
ROOT
ATOM      1  C   UNK     1       5.087   4.362  17.778  0.00  0.00    +0.000 C 
ATOM      2  N   UNK     1       6.188   4.119  18.743  0.00  0.00    +0.000 NA
ATOM      3  C   UNK     1       7.285   4.951  18.214  0.00  0.00    +0.000 C 
ATOM      4  C   UNK     1       7.215   4.815  16.687  0.00  0.00    +0.000 C 
ATOM      5  C   UNK     1       5.771   4.351  16.402  0.00  0.00    +0.000 C 
ATOM      6  H   UNK     1       6.473   3.140  18.698  0.00  0.00    +0.000 HD
ENDROOT
BRANCH   4   7
ATOM      7  O   UNK     1       7.523   6.044  16.039  0.00  0.00    +0.000 OA
ATOM      8  H   UNK     1       6.904   6.727  16.357  0.00  0.00    +0.000 HD
ENDBRANCH   4   7
BRANCH   5   9
ATOM      9  O   UNK     1       5.771   3.049  15.813  0.00  0.00    +0.000 OA
ATOM     10  H   UNK     1       5.534   3.135  14.875  0.00  0.00    +0.000 HD
ENDBRANCH   5   9
BRANCH   1  11
ATOM     11  C   UNK     1       3.929   3.367  17.915  0.00  0.00    +0.000 C 
BRANCH  11  12
ATOM     12  O   UNK     1       4.406   2.081  18.308  0.00  0.00    +0.000 OA
ATOM     13  H   UNK     1       4.339   1.515  17.520  0.00  0.00    +0.000 HD
ENDBRANCH  11  12
ENDBRANCH   1  11
TORSDOF 4
ENDMDL
MODEL 6
REMARK VINA RESULT:      -4.3      1.854      3.015
REMARK  Name = 
REMARK  4 active torsions:
REMARK  status: ('A' for Active; 'I' for Inactive)
REMARK    1  A    between atoms: O_1  and  C_2
REMARK    2  A    between atoms: C_2  and  C_3
REMARK    3  A    between atoms: C_6  and  O_7
REMARK    4  A    between atoms: C_8  and  O_9
REMARK                            x       y       z     vdW  Elec       q    Type
REMARK                         _______ _______ _______ _____ _____    ______ ____
ROOT
ATOM      1  C   UNK     1       6.961   4.841  18.337  0.00  0.00    +0.000 C 
ATOM      2  N   UNK     1       5.493   5.015  18.472  0.00  0.00    +0.000 NA
ATOM      3  C   UNK     1       4.954   4.146  17.409  0.00  0.00    +0.000 C 
ATOM      4  C   UNK     1       5.898   4.315  16.210  0.00  0.00    +0.000 C 
ATOM      5  C   UNK     1       7.211   4.850  16.820  0.00  0.00    +0.000 C 
ATOM      6  H   UNK     1       5.241   5.981  18.259  0.00  0.00    +0.000 HD
ENDROOT
BRANCH   4   7
ATOM      7  O   UNK     1       6.088   3.087  15.517  0.00  0.00    +0.000 OA
ATOM      8  H   UNK     1       5.677   3.161  14.636  0.00  0.00    +0.000 HD
ENDBRANCH   4   7
BRANCH   5   9
ATOM      9  O   UNK     1       7.493   6.161  16.330  0.00  0.00    +0.000 OA
ATOM     10  H   UNK     1       7.053   6.272  15.471  0.00  0.00    +0.000 HD
ENDBRANCH   5   9
BRANCH   1  11
ATOM     11  C   UNK     1       7.769   5.885  19.115  0.00  0.00    +0.000 C 
BRANCH  11  12
ATOM     12  O   UNK     1       7.987   5.463  20.460  0.00  0.00    +0.000 OA
ATOM     13  H   UNK     1       7.780   4.513  20.482  0.00  0.00    +0.000 HD
ENDBRANCH  11  12
ENDBRANCH   1  11
TORSDOF 4
ENDMDL
MODEL 7
REMARK VINA RESULT:      -4.3      2.245      3.370
REMARK  Name = 
REMARK  4 active torsions:
REMARK  status: ('A' for Active; 'I' for Inactive)
REMARK    1  A    between atoms: O_1  and  C_2
REMARK    2  A    between atoms: C_2  and  C_3
REMARK    3  A    between atoms: C_6  and  O_7
REMARK    4  A    between atoms: C_8  and  O_9
REMARK                            x       y       z     vdW  Elec       q    Type
REMARK                         _______ _______ _______ _____ _____    ______ ____
ROOT
ATOM      1  C   UNK     1       6.652   6.078  17.720  0.00  0.00    +0.000 C 
ATOM      2  N   UNK     1       6.363   6.526  16.334  0.00  0.00    +0.000 NA
ATOM      3  C   UNK     1       5.419   5.504  15.844  0.00  0.00    +0.000 C 
ATOM      4  C   UNK     1       5.923   4.165  16.402  0.00  0.00    +0.000 C 
ATOM      5  C   UNK     1       6.804   4.553  17.608  0.00  0.00    +0.000 C 
ATOM      6  H   UNK     1       7.214   6.476  15.774  0.00  0.00    +0.000 HD
ENDROOT
BRANCH   4   7
ATOM      7  O   UNK     1       4.844   3.316  16.775  0.00  0.00    +0.000 OA
ATOM      8  H   UNK     1       4.641   3.466  17.717  0.00  0.00    +0.000 HD
ENDBRANCH   4   7
BRANCH   5   9
ATOM      9  O   UNK     1       8.160   4.164  17.381  0.00  0.00    +0.000 OA
ATOM     10  H   UNK     1       8.174   3.228  17.121  0.00  0.00    +0.000 HD
ENDBRANCH   5   9
BRANCH   1  11
ATOM     11  C   UNK     1       7.857   6.788  18.348  0.00  0.00    +0.000 C 
BRANCH  11  12
ATOM     12  O   UNK     1       8.286   6.117  19.530  0.00  0.00    +0.000 OA
ATOM     13  H   UNK     1       8.423   6.809  20.200  0.00  0.00    +0.000 HD
ENDBRANCH  11  12
ENDBRANCH   1  11
TORSDOF 4
ENDMDL
MODEL 8
REMARK VINA RESULT:      -4.3      2.296      3.755
REMARK  Name = 
REMARK  4 active torsions:
REMARK  status: ('A' for Active; 'I' for Inactive)
REMARK    1  A    between atoms: O_1  and  C_2
REMARK    2  A    between atoms: C_2  and  C_3
REMARK    3  A    between atoms: C_6  and  O_7
REMARK    4  A    between atoms: C_8  and  O_9
REMARK                            x       y       z     vdW  Elec       q    Type
REMARK                         _______ _______ _______ _____ _____    ______ ____
ROOT
ATOM      1  C   UNK     1       6.520   4.456  15.801  0.00  0.00    +0.000 C 
ATOM      2  N   UNK     1       7.793   4.571  16.555  0.00  0.00    +0.000 NA
ATOM      3  C   UNK     1       7.341   4.739  17.949  0.00  0.00    +0.000 C 
ATOM      4  C   UNK     1       6.106   5.648  17.883  0.00  0.00    +0.000 C 
ATOM      5  C   UNK     1       5.602   5.516  16.430  0.00  0.00    +0.000 C 
ATOM      6  H   UNK     1       8.285   5.419  16.269  0.00  0.00    +0.000 HD
ENDROOT
BRANCH   4   7
ATOM      7  O   UNK     1       5.120   5.259  18.832  0.00  0.00    +0.000 OA
ATOM      8  H   UNK     1       4.668   4.461  18.502  0.00  0.00    +0.000 HD
ENDBRANCH   4   7
BRANCH   5   9
ATOM      9  O   UNK     1       5.691   6.772  15.754  0.00  0.00    +0.000 OA
ATOM     10  H   UNK     1       6.560   6.831  15.325  0.00  0.00    +0.000 HD
ENDBRANCH   5   9
BRANCH   1  11
ATOM     11  C   UNK     1       6.697   4.595  14.285  0.00  0.00    +0.000 C 
BRANCH  11  12
ATOM     12  O   UNK     1       7.757   5.497  13.976  0.00  0.00    +0.000 OA
ATOM     13  H   UNK     1       8.474   4.956  13.603  0.00  0.00    +0.000 HD
ENDBRANCH  11  12
ENDBRANCH   1  11
TORSDOF 4
ENDMDL
MODEL 9
REMARK VINA RESULT:      -4.2      2.129      2.856
REMARK  Name = 
REMARK  4 active torsions:
REMARK  status: ('A' for Active; 'I' for Inactive)
REMARK    1  A    between atoms: O_1  and  C_2
REMARK    2  A    between atoms: C_2  and  C_3
REMARK    3  A    between atoms: C_6  and  O_7
REMARK    4  A    between atoms: C_8  and  O_9
REMARK                            x       y       z     vdW  Elec       q    Type
REMARK                         _______ _______ _______ _____ _____    ______ ____
ROOT
ATOM      1  C   UNK     1       7.280   4.979  16.779  0.00  0.00    +0.000 C 
ATOM      2  N   UNK     1       7.391   6.459  16.758  0.00  0.00    +0.000 NA
ATOM      3  C   UNK     1       7.782   6.784  18.143  0.00  0.00    +0.000 C 
ATOM      4  C   UNK     1       6.980   5.830  19.040  0.00  0.00    +0.000 C 
ATOM      5  C   UNK     1       6.582   4.664  18.112  0.00  0.00    +0.000 C 
ATOM      6  H   UNK     1       6.474   6.869  16.576  0.00  0.00    +0.000 HD
ENDROOT
BRANCH   4   7
ATOM      7  O   UNK     1       7.747   5.393  20.155  0.00  0.00    +0.000 OA
ATOM      8  H   UNK     1       7.424   4.516  20.431  0.00  0.00    +0.000 HD
ENDBRANCH   4   7
BRANCH   5   9
ATOM      9  O   UNK     1       5.162   4.598  17.971  0.00  0.00    +0.000 OA
ATOM     10  H   UNK     1       4.777   5.409  18.342  0.00  0.00    +0.000 HD
ENDBRANCH   5   9
BRANCH   1  11
ATOM     11  C   UNK     1       6.572   4.406  15.546  0.00  0.00    +0.000 C 
BRANCH  11  12
ATOM     12  O   UNK     1       6.121   3.075  15.787  0.00  0.00    +0.000 OA
ATOM     13  H   UNK     1       5.929   3.023  16.740  0.00  0.00    +0.000 HD
ENDBRANCH  11  12
ENDBRANCH   1  11
TORSDOF 4
ENDMDL
