MODEL 1
REMARK VINA RESULT:      -8.5      0.000      0.000
REMARK  Name = 
REMARK  5 active torsions:
REMARK  status: ('A' for Active; 'I' for Inactive)
REMARK    1  A    between atoms: C_1  and  S_2
REMARK    2  A    between atoms: S_2  and  C_5
REMARK    3  A    between atoms: C_9  and  C_10
REMARK    4  A    between atoms: C_13  and  C_14
REMARK    5  A    between atoms: C_18  and  N_19
REMARK                            x       y       z     vdW  Elec       q    Type
REMARK                         _______ _______ _______ _____ _____    ______ ____
ROOT
ATOM      1  C   UNL     1       2.373   7.668  18.862  0.00  0.00    +0.000 A 
ATOM      2  C   UNL     1       1.726   8.082  20.069  0.00  0.00    +0.000 A 
ATOM      3  C   UNL     1       1.006   9.308  19.996  0.00  0.00    +0.000 A 
ATOM      4  C   UNL     1      -0.002  10.068  20.714  0.00  0.00    +0.000 A 
ATOM      5  N   UNL     1      -0.874  10.495  19.771  0.00  0.00    +0.000 NA
ATOM      6  N   UNL     1      -0.021  10.835  18.804  0.00  0.00    +0.000 N 
ATOM      7  C   UNL     1       1.030   9.970  18.764  0.00  0.00    +0.000 A 
ATOM      8  C   UNL     1       1.910   9.680  17.752  0.00  0.00    +0.000 A 
ATOM      9  N   UNL     1       2.578   8.509  17.825  0.00  0.00    +0.000 NA
ATOM     10  H   UNL     1      -0.313  11.536  18.138  0.00  0.00    +0.000 HD
ENDROOT
BRANCH   1  15
ATOM     11  C   UNL     1       2.454   3.843  18.505  0.00  0.00    +0.000 A 
ATOM     12  C   UNL     1       3.491   3.723  17.600  0.00  0.00    +0.000 A 
ATOM     13  N   UNL     1       4.155   4.795  17.135  0.00  0.00    +0.000 NA
ATOM     14  C   UNL     1       3.745   6.014  17.591  0.00  0.00    +0.000 A 
ATOM     15  C   UNL     1       2.694   6.259  18.496  0.00  0.00    +0.000 A 
ATOM     16  C   UNL     1       2.031   5.110  18.947  0.00  0.00    +0.000 A 
BRANCH  11  18
ATOM     17  C   UNL     1       1.461   2.690  20.821  0.00  0.00    +0.000 C 
ATOM     18  S   UNL     1       1.693   2.366  19.096  0.00  0.00    +0.000 S 
ATOM     19  O   UNL     1       2.655   1.281  18.956  0.00  0.00    +0.000 OA
ATOM     20  O   UNL     1       0.385   2.280  18.462  0.00  0.00    +0.000 OA
ENDBRANCH  11  18
ENDBRANCH   1  15
BRANCH   4  21
ATOM     21  C   UNL     1      -0.079  10.914  21.939  0.00  0.00    +0.000 A 
ATOM     22  C   UNL     1      -1.122  10.603  22.809  0.00  0.00    +0.000 A 
ATOM     23  C   UNL     1      -1.863  11.649  23.340  0.00  0.00    +0.000 A 
ATOM     24  C   UNL     1      -1.510  12.958  23.037  0.00  0.00    +0.000 A 
ATOM     25  C   UNL     1      -0.362  13.244  22.290  0.00  0.00    +0.000 A 
ATOM     26  N   UNL     1       0.343  12.224  21.732  0.00  0.00    +0.000 NA
BRANCH  25  27
ATOM     27  N   UNL     1      -0.043  14.583  22.077  0.00  0.00    +0.000 N 
ATOM     28  C   UNL     1       1.305  14.933  21.588  0.00  0.00    +0.000 C 
ATOM     29  C   UNL     1       1.268  15.368  20.110  0.00  0.00    +0.000 C 
ATOM     30  N   UNL     1       0.339  16.484  19.868  0.00  0.00    +0.000 NA
ATOM     31  C   UNL     1      -1.011  16.089  20.328  0.00  0.00    +0.000 C 
ATOM     32  C   UNL     1      -1.062  15.604  21.797  0.00  0.00    +0.000 C 
ATOM     33  H   UNL     1       0.306  16.678  18.867  0.00  0.00    +0.000 HD
ENDBRANCH  25  27
ENDBRANCH   4  21
TORSDOF 4
ENDMDL
MODEL 2
REMARK VINA RESULT:      -8.4      3.067      4.205
REMARK  Name = 
REMARK  5 active torsions:
REMARK  status: ('A' for Active; 'I' for Inactive)
REMARK    1  A    between atoms: C_1  and  S_2
REMARK    2  A    between atoms: S_2  and  C_5
REMARK    3  A    between atoms: C_9  and  C_10
REMARK    4  A    between atoms: C_13  and  C_14
REMARK    5  A    between atoms: C_18  and  N_19
REMARK                            x       y       z     vdW  Elec       q    Type
REMARK                         _______ _______ _______ _____ _____    ______ ____
ROOT
ATOM      1  C   UNL     1       2.229   7.127  19.354  0.00  0.00    +0.000 A 
ATOM      2  C   UNL     1       1.901   8.433  18.871  0.00  0.00    +0.000 A 
ATOM      3  C   UNL     1       1.220   9.280  19.791  0.00  0.00    +0.000 A 
ATOM      4  C   UNL     1       0.884  10.676  20.003  0.00  0.00    +0.000 A 
ATOM      5  N   UNL     1       1.158  10.922  21.306  0.00  0.00    +0.000 NA
ATOM      6  N   UNL     1       0.693   9.799  21.855  0.00  0.00    +0.000 N 
ATOM      7  C   UNL     1       0.937   8.731  21.047  0.00  0.00    +0.000 A 
ATOM      8  C   UNL     1       1.004   7.391  21.334  0.00  0.00    +0.000 A 
ATOM      9  N   UNL     1       1.663   6.600  20.462  0.00  0.00    +0.000 NA
ATOM     10  H   UNL     1       0.393   9.832  22.819  0.00  0.00    +0.000 HD
ENDROOT
BRANCH   1  15
ATOM     11  C   UNL     1       5.143   5.603  17.365  0.00  0.00    +0.000 A 
ATOM     12  C   UNL     1       5.470   4.559  18.210  0.00  0.00    +0.000 A 
ATOM     13  N   UNL     1       4.793   4.327  19.347  0.00  0.00    +0.000 NA
ATOM     14  C   UNL     1       3.771   5.183  19.636  0.00  0.00    +0.000 A 
ATOM     15  C   UNL     1       3.359   6.286  18.863  0.00  0.00    +0.000 A 
ATOM     16  C   UNL     1       4.099   6.488  17.692  0.00  0.00    +0.000 A 
BRANCH  11  18
ATOM     17  C   UNL     1       6.043   4.143  15.189  0.00  0.00    +0.000 C 
ATOM     18  S   UNL     1       6.059   5.778  15.870  0.00  0.00    +0.000 S 
ATOM     19  O   UNL     1       7.431   6.117  16.222  0.00  0.00    +0.000 OA
ATOM     20  O   UNL     1       5.284   6.650  14.997  0.00  0.00    +0.000 OA
ENDBRANCH  11  18
ENDBRANCH   1  15
BRANCH   4  21
ATOM     21  C   UNL     1      -0.085  11.671  19.461  0.00  0.00    +0.000 A 
ATOM     22  C   UNL     1       0.459  12.621  18.599  0.00  0.00    +0.000 A 
ATOM     23  C   UNL     1       0.083  13.945  18.766  0.00  0.00    +0.000 A 
ATOM     24  C   UNL     1      -0.856  14.271  19.736  0.00  0.00    +0.000 A 
ATOM     25  C   UNL     1      -1.504  13.278  20.478  0.00  0.00    +0.000 A 
ATOM     26  N   UNL     1      -1.110  11.983  20.350  0.00  0.00    +0.000 NA
BRANCH  25  27
ATOM     27  N   UNL     1      -2.476  13.681  21.392  0.00  0.00    +0.000 N 
ATOM     28  C   UNL     1      -3.875  13.820  20.941  0.00  0.00    +0.000 C 
ATOM     29  C   UNL     1      -4.753  12.674  21.483  0.00  0.00    +0.000 C 
ATOM     30  N   UNL     1      -4.705  12.564  22.950  0.00  0.00    +0.000 NA
ATOM     31  C   UNL     1      -3.297  12.383  23.369  0.00  0.00    +0.000 C 
ATOM     32  C   UNL     1      -2.334  13.474  22.840  0.00  0.00    +0.000 C 
ATOM     33  H   UNL     1      -5.246  11.750  23.240  0.00  0.00    +0.000 HD
ENDBRANCH  25  27
ENDBRANCH   4  21
TORSDOF 4
ENDMDL
MODEL 3
REMARK VINA RESULT:      -8.4      3.661      4.889
REMARK  Name = 
REMARK  5 active torsions:
REMARK  status: ('A' for Active; 'I' for Inactive)
REMARK    1  A    between atoms: C_1  and  S_2
REMARK    2  A    between atoms: S_2  and  C_5
REMARK    3  A    between atoms: C_9  and  C_10
REMARK    4  A    between atoms: C_13  and  C_14
REMARK    5  A    between atoms: C_18  and  N_19
REMARK                            x       y       z     vdW  Elec       q    Type
REMARK                         _______ _______ _______ _____ _____    ______ ____
ROOT
ATOM      1  C   UNL     1       2.508   6.871  19.226  0.00  0.00    +0.000 A 
ATOM      2  C   UNL     1       2.161   8.191  18.797  0.00  0.00    +0.000 A 
ATOM      3  C   UNL     1       1.421   8.971  19.731  0.00  0.00    +0.000 A 
ATOM      4  C   UNL     1       1.037  10.345  19.999  0.00  0.00    +0.000 A 
ATOM      5  N   UNL     1       1.255  10.532  21.322  0.00  0.00    +0.000 NA
ATOM      6  N   UNL     1       0.802   9.370  21.796  0.00  0.00    +0.000 N 
ATOM      7  C   UNL     1       1.108   8.351  20.946  0.00  0.00    +0.000 A 
ATOM      8  C   UNL     1       1.202   7.000  21.169  0.00  0.00    +0.000 A 
ATOM      9  N   UNL     1       1.917   6.273  20.284  0.00  0.00    +0.000 NA
ATOM     10  H   UNL     1       0.466   9.345  22.749  0.00  0.00    +0.000 HD
ENDROOT
BRANCH   1  15
ATOM     11  C   UNL     1       5.421   5.413  17.187  0.00  0.00    +0.000 A 
ATOM     12  C   UNL     1       5.900   4.497  18.103  0.00  0.00    +0.000 A 
ATOM     13  N   UNL     1       5.323   4.325  19.304  0.00  0.00    +0.000 NA
ATOM     14  C   UNL     1       4.244   5.112  19.582  0.00  0.00    +0.000 A 
ATOM     15  C   UNL     1       3.679   6.087  18.739  0.00  0.00    +0.000 A 
ATOM     16  C   UNL     1       4.320   6.231  17.502  0.00  0.00    +0.000 A 
BRANCH  11  18
ATOM     17  C   UNL     1       6.019   3.882  14.957  0.00  0.00    +0.000 C 
ATOM     18  S   UNL     1       6.218   5.513  15.618  0.00  0.00    +0.000 S 
ATOM     19  O   UNL     1       7.638   5.745  15.852  0.00  0.00    +0.000 OA
ATOM     20  O   UNL     1       5.442   6.439  14.806  0.00  0.00    +0.000 OA
ENDBRANCH  11  18
ENDBRANCH   1  15
BRANCH   4  21
ATOM     21  C   UNL     1       0.060  11.340  19.470  0.00  0.00    +0.000 A 
ATOM     22  C   UNL     1      -0.227  12.401  20.326  0.00  0.00    +0.000 A 
ATOM     23  C   UNL     1      -1.553  12.778  20.475  0.00  0.00    +0.000 A 
ATOM     24  C   UNL     1      -2.534  12.133  19.734  0.00  0.00    +0.000 A 
ATOM     25  C   UNL     1      -2.200  11.181  18.765  0.00  0.00    +0.000 A 
ATOM     26  N   UNL     1      -0.908  10.776  18.643  0.00  0.00    +0.000 NA
BRANCH  25  27
ATOM     27  N   UNL     1      -3.237  10.620  18.021  0.00  0.00    +0.000 N 
ATOM     28  C   UNL     1      -4.600  11.171  18.158  0.00  0.00    +0.000 C 
ATOM     29  C   UNL     1      -5.001  11.983  16.909  0.00  0.00    +0.000 C 
ATOM     30  N   UNL     1      -4.892  11.205  15.664  0.00  0.00    +0.000 NA
ATOM     31  C   UNL     1      -3.507  10.702  15.535  0.00  0.00    +0.000 C 
ATOM     32  C   UNL     1      -3.007   9.901  16.761  0.00  0.00    +0.000 C 
ATOM     33  H   UNL     1      -5.101  11.814  14.874  0.00  0.00    +0.000 HD
ENDBRANCH  25  27
ENDBRANCH   4  21
TORSDOF 4
ENDMDL
MODEL 4
REMARK VINA RESULT:      -8.4      5.232      9.672
REMARK  Name = 
REMARK  5 active torsions:
REMARK  status: ('A' for Active; 'I' for Inactive)
REMARK    1  A    between atoms: C_1  and  S_2
REMARK    2  A    between atoms: S_2  and  C_5
REMARK    3  A    between atoms: C_9  and  C_10
REMARK    4  A    between atoms: C_13  and  C_14
REMARK    5  A    between atoms: C_18  and  N_19
REMARK                            x       y       z     vdW  Elec       q    Type
REMARK                         _______ _______ _______ _____ _____    ______ ____
ROOT
ATOM      1  C   UNL     1      -1.641  11.344  18.974  0.00  0.00    +0.000 A 
ATOM      2  C   UNL     1      -0.974  10.088  18.813  0.00  0.00    +0.000 A 
ATOM      3  C   UNL     1       0.075   9.822  19.738  0.00  0.00    +0.000 A 
ATOM      4  C   UNL     1       0.880   8.726  20.244  0.00  0.00    +0.000 A 
ATOM      5  N   UNL     1       0.896   8.878  21.590  0.00  0.00    +0.000 NA
ATOM      6  N   UNL     1       1.039  10.202  21.670  0.00  0.00    +0.000 N 
ATOM      7  C   UNL     1       0.340  10.822  20.680  0.00  0.00    +0.000 A 
ATOM      8  C   UNL     1      -0.123  12.111  20.586  0.00  0.00    +0.000 A 
ATOM      9  N   UNL     1      -1.126  12.349  19.715  0.00  0.00    +0.000 NA
ATOM     10  H   UNL     1       1.470  10.583  22.501  0.00  0.00    +0.000 HD
ENDROOT
BRANCH   1  15
ATOM     11  C   UNL     1      -5.335  12.394  18.821  0.00  0.00    +0.000 A 
ATOM     12  C   UNL     1      -5.593  12.114  17.493  0.00  0.00    +0.000 A 
ATOM     13  N   UNL     1      -4.656  11.597  16.681  0.00  0.00    +0.000 NA
ATOM     14  C   UNL     1      -3.427  11.373  17.229  0.00  0.00    +0.000 A 
ATOM     15  C   UNL     1      -3.044  11.633  18.559  0.00  0.00    +0.000 A 
ATOM     16  C   UNL     1      -4.055  12.176  19.363  0.00  0.00    +0.000 A 
BRANCH  11  18
ATOM     17  C   UNL     1      -7.479  11.543  20.357  0.00  0.00    +0.000 C 
ATOM     18  S   UNL     1      -6.655  13.013  19.811  0.00  0.00    +0.000 S 
ATOM     19  O   UNL     1      -7.560  13.751  18.940  0.00  0.00    +0.000 OA
ATOM     20  O   UNL     1      -6.051  13.660  20.968  0.00  0.00    +0.000 OA
ENDBRANCH  11  18
ENDBRANCH   1  15
BRANCH   4  21
ATOM     21  C   UNL     1       2.034   7.901  19.784  0.00  0.00    +0.000 A 
ATOM     22  C   UNL     1       2.491   8.185  18.499  0.00  0.00    +0.000 A 
ATOM     23  C   UNL     1       2.774   7.120  17.657  0.00  0.00    +0.000 A 
ATOM     24  C   UNL     1       2.651   5.821  18.134  0.00  0.00    +0.000 A 
ATOM     25  C   UNL     1       2.346   5.569  19.476  0.00  0.00    +0.000 A 
ATOM     26  N   UNL     1       2.025   6.606  20.295  0.00  0.00    +0.000 NA
BRANCH  25  27
ATOM     27  N   UNL     1       2.296   4.240  19.892  0.00  0.00    +0.000 N 
ATOM     28  C   UNL     1       0.983   3.582  20.045  0.00  0.00    +0.000 C 
ATOM     29  C   UNL     1       0.732   2.568  18.910  0.00  0.00    +0.000 C 
ATOM     30  N   UNL     1       1.795   1.556  18.804  0.00  0.00    +0.000 NA
ATOM     31  C   UNL     1       3.091   2.243  18.610  0.00  0.00    +0.000 C 
ATOM     32  C   UNL     1       3.412   3.306  19.689  0.00  0.00    +0.000 C 
ATOM     33  H   UNL     1       1.609   0.962  17.997  0.00  0.00    +0.000 HD
ENDBRANCH  25  27
ENDBRANCH   4  21
TORSDOF 4
ENDMDL
MODEL 5
REMARK VINA RESULT:      -8.4      2.924      3.896
REMARK  Name = 
REMARK  5 active torsions:
REMARK  status: ('A' for Active; 'I' for Inactive)
REMARK    1  A    between atoms: C_1  and  S_2
REMARK    2  A    between atoms: S_2  and  C_5
REMARK    3  A    between atoms: C_9  and  C_10
REMARK    4  A    between atoms: C_13  and  C_14
REMARK    5  A    between atoms: C_18  and  N_19
REMARK                            x       y       z     vdW  Elec       q    Type
REMARK                         _______ _______ _______ _____ _____    ______ ____
ROOT
ATOM      1  C   UNL     1       1.874   8.140  19.566  0.00  0.00    +0.000 A 
ATOM      2  C   UNL     1       0.940   8.815  20.414  0.00  0.00    +0.000 A 
ATOM      3  C   UNL     1       0.251   9.913  19.824  0.00  0.00    +0.000 A 
ATOM      4  C   UNL     1      -0.911  10.757  20.033  0.00  0.00    +0.000 A 
ATOM      5  N   UNL     1      -1.522  10.839  18.827  0.00  0.00    +0.000 NA
ATOM      6  N   UNL     1      -0.455  10.968  18.037  0.00  0.00    +0.000 N 
ATOM      7  C   UNL     1       0.579  10.212  18.497  0.00  0.00    +0.000 A 
ATOM      8  C   UNL     1       1.689   9.727  17.851  0.00  0.00    +0.000 A 
ATOM      9  N   UNL     1       2.326   8.678  18.412  0.00  0.00    +0.000 NA
ATOM     10  H   UNL     1      -0.576  11.434  17.149  0.00  0.00    +0.000 HD
ENDROOT
BRANCH   1  15
ATOM     11  C   UNL     1       3.531   4.693  19.185  0.00  0.00    +0.000 A 
ATOM     12  C   UNL     1       2.903   4.027  20.220  0.00  0.00    +0.000 A 
ATOM     13  N   UNL     1       1.982   4.624  20.994  0.00  0.00    +0.000 NA
ATOM     14  C   UNL     1       1.704   5.931  20.717  0.00  0.00    +0.000 A 
ATOM     15  C   UNL     1       2.289   6.714  19.704  0.00  0.00    +0.000 A 
ATOM     16  C   UNL     1       3.246   6.047  18.928  0.00  0.00    +0.000 A 
BRANCH  11  18
ATOM     17  C   UNL     1       4.731   4.724  16.688  0.00  0.00    +0.000 C 
ATOM     18  S   UNL     1       4.678   3.794  18.194  0.00  0.00    +0.000 S 
ATOM     19  O   UNL     1       4.098   2.488  17.910  0.00  0.00    +0.000 OA
ATOM     20  O   UNL     1       5.976   3.899  18.847  0.00  0.00    +0.000 OA
ENDBRANCH  11  18
ENDBRANCH   1  15
BRANCH   4  21
ATOM     21  C   UNL     1      -1.302  11.897  20.911  0.00  0.00    +0.000 A 
ATOM     22  C   UNL     1      -0.831  11.827  22.220  0.00  0.00    +0.000 A 
ATOM     23  C   UNL     1      -1.712  12.130  23.247  0.00  0.00    +0.000 A 
ATOM     24  C   UNL     1      -3.001  12.546  22.941  0.00  0.00    +0.000 A 
ATOM     25  C   UNL     1      -3.397  12.762  21.616  0.00  0.00    +0.000 A 
ATOM     26  N   UNL     1      -2.554  12.425  20.604  0.00  0.00    +0.000 NA
BRANCH  25  27
ATOM     27  N   UNL     1      -4.689  13.234  21.393  0.00  0.00    +0.000 N 
ATOM     28  C   UNL     1      -5.426  12.774  20.200  0.00  0.00    +0.000 C 
ATOM     29  C   UNL     1      -6.542  11.780  20.582  0.00  0.00    +0.000 C 
ATOM     30  N   UNL     1      -7.480  12.331  21.574  0.00  0.00    +0.000 NA
ATOM     31  C   UNL     1      -6.718  12.744  22.773  0.00  0.00    +0.000 C 
ATOM     32  C   UNL     1      -5.552  13.718  22.478  0.00  0.00    +0.000 C 
ATOM     33  H   UNL     1      -8.148  11.607  21.837  0.00  0.00    +0.000 HD
ENDBRANCH  25  27
ENDBRANCH   4  21
TORSDOF 4
ENDMDL
MODEL 6
REMARK VINA RESULT:      -8.3      3.616      4.982
REMARK  Name = 
REMARK  5 active torsions:
REMARK  status: ('A' for Active; 'I' for Inactive)
REMARK    1  A    between atoms: C_1  and  S_2
REMARK    2  A    between atoms: S_2  and  C_5
REMARK    3  A    between atoms: C_9  and  C_10
REMARK    4  A    between atoms: C_13  and  C_14
REMARK    5  A    between atoms: C_18  and  N_19
REMARK                            x       y       z     vdW  Elec       q    Type
REMARK                         _______ _______ _______ _____ _____    ______ ____
ROOT
ATOM      1  C   UNL     1       2.441   6.660  19.435  0.00  0.00    +0.000 A 
ATOM      2  C   UNL     1       2.149   7.970  18.938  0.00  0.00    +0.000 A 
ATOM      3  C   UNL     1       1.419   8.817  19.820  0.00  0.00    +0.000 A 
ATOM      4  C   UNL     1       1.079  10.215  20.016  0.00  0.00    +0.000 A 
ATOM      5  N   UNL     1       1.277  10.455  21.333  0.00  0.00    +0.000 NA
ATOM      6  N   UNL     1       0.774   9.333  21.851  0.00  0.00    +0.000 N 
ATOM      7  C   UNL     1       1.061   8.266  21.055  0.00  0.00    +0.000 A 
ATOM      8  C   UNL     1       1.103   6.924  21.342  0.00  0.00    +0.000 A 
ATOM      9  N   UNL     1       1.809   6.133  20.506  0.00  0.00    +0.000 NA
ATOM     10  H   UNL     1       0.419   9.364  22.796  0.00  0.00    +0.000 HD
ENDROOT
BRANCH   1  15
ATOM     11  C   UNL     1       5.638   5.268  17.819  0.00  0.00    +0.000 A 
ATOM     12  C   UNL     1       5.672   4.025  18.422  0.00  0.00    +0.000 A 
ATOM     13  N   UNL     1       4.721   3.628  19.285  0.00  0.00    +0.000 NA
ATOM     14  C   UNL     1       3.723   4.520  19.548  0.00  0.00    +0.000 A 
ATOM     15  C   UNL     1       3.593   5.814  19.009  0.00  0.00    +0.000 A 
ATOM     16  C   UNL     1       4.612   6.182  18.120  0.00  0.00    +0.000 A 
BRANCH  11  18
ATOM     17  C   UNL     1       7.626   7.133  17.324  0.00  0.00    +0.000 C 
ATOM     18  S   UNL     1       6.903   5.661  16.656  0.00  0.00    +0.000 S 
ATOM     19  O   UNL     1       6.261   5.995  15.392  0.00  0.00    +0.000 OA
ATOM     20  O   UNL     1       7.888   4.590  16.723  0.00  0.00    +0.000 OA
ENDBRANCH  11  18
ENDBRANCH   1  15
BRANCH   4  21
ATOM     21  C   UNL     1       0.148  11.216  19.421  0.00  0.00    +0.000 A 
ATOM     22  C   UNL     1      -0.126  12.321  20.224  0.00  0.00    +0.000 A 
ATOM     23  C   UNL     1      -1.442  12.746  20.324  0.00  0.00    +0.000 A 
ATOM     24  C   UNL     1      -2.425  12.101  19.584  0.00  0.00    +0.000 A 
ATOM     25  C   UNL     1      -2.098  11.099  18.664  0.00  0.00    +0.000 A 
ATOM     26  N   UNL     1      -0.817  10.649  18.594  0.00  0.00    +0.000 NA
BRANCH  25  27
ATOM     27  N   UNL     1      -3.134  10.540  17.918  0.00  0.00    +0.000 N 
ATOM     28  C   UNL     1      -4.506  11.055  18.093  0.00  0.00    +0.000 C 
ATOM     29  C   UNL     1      -4.945  11.900  16.879  0.00  0.00    +0.000 C 
ATOM     30  N   UNL     1      -4.839  11.167  15.607  0.00  0.00    +0.000 NA
ATOM     31  C   UNL     1      -3.445  10.700  15.440  0.00  0.00    +0.000 C 
ATOM     32  C   UNL     1      -2.908   9.869  16.631  0.00  0.00    +0.000 C 
ATOM     33  H   UNL     1      -5.073  11.797  14.841  0.00  0.00    +0.000 HD
ENDBRANCH  25  27
ENDBRANCH   4  21
TORSDOF 4
ENDMDL
MODEL 7
REMARK VINA RESULT:      -8.3      0.749      1.290
REMARK  Name = 
REMARK  5 active torsions:
REMARK  status: ('A' for Active; 'I' for Inactive)
REMARK    1  A    between atoms: C_1  and  S_2
REMARK    2  A    between atoms: S_2  and  C_5
REMARK    3  A    between atoms: C_9  and  C_10
REMARK    4  A    between atoms: C_13  and  C_14
REMARK    5  A    between atoms: C_18  and  N_19
REMARK                            x       y       z     vdW  Elec       q    Type
REMARK                         _______ _______ _______ _____ _____    ______ ____
ROOT
ATOM      1  C   UNL     1       2.431   7.685  18.792  0.00  0.00    +0.000 A 
ATOM      2  C   UNL     1       1.819   8.101  20.017  0.00  0.00    +0.000 A 
ATOM      3  C   UNL     1       1.033   9.286  19.945  0.00  0.00    +0.000 A 
ATOM      4  C   UNL     1       0.021  10.014  20.688  0.00  0.00    +0.000 A 
ATOM      5  N   UNL     1      -0.915  10.368  19.776  0.00  0.00    +0.000 NA
ATOM      6  N   UNL     1      -0.126  10.722  18.760  0.00  0.00    +0.000 N 
ATOM      7  C   UNL     1       0.965   9.911  18.694  0.00  0.00    +0.000 A 
ATOM      8  C   UNL     1       1.812   9.636  17.650  0.00  0.00    +0.000 A 
ATOM      9  N   UNL     1       2.543   8.503  17.723  0.00  0.00    +0.000 NA
ATOM     10  H   UNL     1      -0.485  11.387  18.090  0.00  0.00    +0.000 HD
ENDROOT
BRANCH   1  15
ATOM     11  C   UNL     1       2.635   3.861  18.464  0.00  0.00    +0.000 A 
ATOM     12  C   UNL     1       3.716   3.767  17.608  0.00  0.00    +0.000 A 
ATOM     13  N   UNL     1       4.370   4.855  17.167  0.00  0.00    +0.000 NA
ATOM     14  C   UNL     1       3.905   6.063  17.596  0.00  0.00    +0.000 A 
ATOM     15  C   UNL     1       2.808   6.283  18.450  0.00  0.00    +0.000 A 
ATOM     16  C   UNL     1       2.157   5.119  18.877  0.00  0.00    +0.000 A 
BRANCH  11  18
ATOM     17  C   UNL     1       1.707   2.636  20.769  0.00  0.00    +0.000 C 
ATOM     18  S   UNL     1       1.890   2.367  19.028  0.00  0.00    +0.000 S 
ATOM     19  O   UNL     1       2.847   1.286  18.826  0.00  0.00    +0.000 OA
ATOM     20  O   UNL     1       0.565   2.301  18.428  0.00  0.00    +0.000 OA
ENDBRANCH  11  18
ENDBRANCH   1  15
BRANCH   4  21
ATOM     21  C   UNL     1      -0.044  10.892  21.892  0.00  0.00    +0.000 A 
ATOM     22  C   UNL     1      -1.023  10.550  22.822  0.00  0.00    +0.000 A 
ATOM     23  C   UNL     1      -1.795  11.569  23.361  0.00  0.00    +0.000 A 
ATOM     24  C   UNL     1      -1.533  12.885  23.004  0.00  0.00    +0.000 A 
ATOM     25  C   UNL     1      -0.442  13.212  22.193  0.00  0.00    +0.000 A 
ATOM     26  N   UNL     1       0.292  12.217  21.627  0.00  0.00    +0.000 NA
BRANCH  25  27
ATOM     27  N   UNL     1      -0.211  14.560  21.926  0.00  0.00    +0.000 N 
ATOM     28  C   UNL     1      -0.940  15.582  22.704  0.00  0.00    +0.000 C 
ATOM     29  C   UNL     1      -0.010  16.281  23.716  0.00  0.00    +0.000 C 
ATOM     30  N   UNL     1       1.176  16.880  23.082  0.00  0.00    +0.000 NA
ATOM     31  C   UNL     1       1.907  15.825  22.347  0.00  0.00    +0.000 C 
ATOM     32  C   UNL     1       1.040  15.045  21.329  0.00  0.00    +0.000 C 
ATOM     33  H   UNL     1       1.782  17.262  23.807  0.00  0.00    +0.000 HD
ENDBRANCH  25  27
ENDBRANCH   4  21
TORSDOF 4
ENDMDL
MODEL 8
REMARK VINA RESULT:      -8.2      2.066      2.693
REMARK  Name = 
REMARK  5 active torsions:
REMARK  status: ('A' for Active; 'I' for Inactive)
REMARK    1  A    between atoms: C_1  and  S_2
REMARK    2  A    between atoms: S_2  and  C_5
REMARK    3  A    between atoms: C_9  and  C_10
REMARK    4  A    between atoms: C_13  and  C_14
REMARK    5  A    between atoms: C_18  and  N_19
REMARK                            x       y       z     vdW  Elec       q    Type
REMARK                         _______ _______ _______ _____ _____    ______ ____
ROOT
ATOM      1  C   UNL     1       2.346   7.752  18.943  0.00  0.00    +0.000 A 
ATOM      2  C   UNL     1       1.507   8.275  19.977  0.00  0.00    +0.000 A 
ATOM      3  C   UNL     1       0.803   9.471  19.657  0.00  0.00    +0.000 A 
ATOM      4  C   UNL     1      -0.312  10.279  20.115  0.00  0.00    +0.000 A 
ATOM      5  N   UNL     1      -1.019  10.586  19.001  0.00  0.00    +0.000 NA
ATOM      6  N   UNL     1      -0.019  10.842  18.156  0.00  0.00    +0.000 N 
ATOM      7  C   UNL     1       1.027  10.001  18.381  0.00  0.00    +0.000 A 
ATOM      8  C   UNL     1       2.064   9.626  17.564  0.00  0.00    +0.000 A 
ATOM      9  N   UNL     1       2.715   8.484  17.869  0.00  0.00    +0.000 NA
ATOM     10  H   UNL     1      -0.200  11.463  17.381  0.00  0.00    +0.000 HD
ENDROOT
BRANCH   1  15
ATOM     11  C   UNL     1       2.478   3.911  18.970  0.00  0.00    +0.000 A 
ATOM     12  C   UNL     1       3.683   3.723  18.321  0.00  0.00    +0.000 A 
ATOM     13  N   UNL     1       4.437   4.756  17.910  0.00  0.00    +0.000 NA
ATOM     14  C   UNL     1       3.947   6.006  18.152  0.00  0.00    +0.000 A 
ATOM     15  C   UNL     1       2.729   6.319  18.786  0.00  0.00    +0.000 A 
ATOM     16  C   UNL     1       1.979   5.208  19.191  0.00  0.00    +0.000 A 
BRANCH  11  18
ATOM     17  C   UNL     1       1.371   2.791  21.250  0.00  0.00    +0.000 C 
ATOM     18  S   UNL     1       1.600   2.485  19.521  0.00  0.00    +0.000 S 
ATOM     19  O   UNL     1       2.479   1.333  19.369  0.00  0.00    +0.000 OA
ATOM     20  O   UNL     1       0.297   2.511  18.871  0.00  0.00    +0.000 OA
ENDBRANCH  11  18
ENDBRANCH   1  15
BRANCH   4  21
ATOM     21  C   UNL     1      -0.595  11.247  21.214  0.00  0.00    +0.000 A 
ATOM     22  C   UNL     1      -0.515  10.721  22.501  0.00  0.00    +0.000 A 
ATOM     23  C   UNL     1      -1.516  11.051  23.403  0.00  0.00    +0.000 A 
ATOM     24  C   UNL     1      -2.521  11.928  23.018  0.00  0.00    +0.000 A 
ATOM     25  C   UNL     1      -2.487  12.565  21.773  0.00  0.00    +0.000 A 
ATOM     26  N   UNL     1      -1.534  12.215  20.868  0.00  0.00    +0.000 NA
BRANCH  25  27
ATOM     27  N   UNL     1      -3.501  13.476  21.481  0.00  0.00    +0.000 N 
ATOM     28  C   UNL     1      -4.474  13.153  20.419  0.00  0.00    +0.000 C 
ATOM     29  C   UNL     1      -5.849  12.788  21.014  0.00  0.00    +0.000 C 
ATOM     30  N   UNL     1      -6.389  13.840  21.891  0.00  0.00    +0.000 NA
ATOM     31  C   UNL     1      -5.411  14.111  22.968  0.00  0.00    +0.000 C 
ATOM     32  C   UNL     1      -3.989  14.455  22.461  0.00  0.00    +0.000 C 
ATOM     33  H   UNL     1      -7.260  13.511  22.306  0.00  0.00    +0.000 HD
ENDBRANCH  25  27
ENDBRANCH   4  21
TORSDOF 4
ENDMDL
MODEL 9
REMARK VINA RESULT:      -8.2      2.572      3.319
REMARK  Name = 
REMARK  5 active torsions:
REMARK  status: ('A' for Active; 'I' for Inactive)
REMARK    1  A    between atoms: C_1  and  S_2
REMARK    2  A    between atoms: S_2  and  C_5
REMARK    3  A    between atoms: C_9  and  C_10
REMARK    4  A    between atoms: C_13  and  C_14
REMARK    5  A    between atoms: C_18  and  N_19
REMARK                            x       y       z     vdW  Elec       q    Type
REMARK                         _______ _______ _______ _____ _____    ______ ____
ROOT
ATOM      1  C   UNL     1       2.292   7.927  19.292  0.00  0.00    +0.000 A 
ATOM      2  C   UNL     1       1.421   8.547  20.243  0.00  0.00    +0.000 A 
ATOM      3  C   UNL     1       0.593   9.589  19.736  0.00  0.00    +0.000 A 
ATOM      4  C   UNL     1      -0.592  10.355  20.078  0.00  0.00    +0.000 A 
ATOM      5  N   UNL     1      -1.345  10.381  18.953  0.00  0.00    +0.000 NA
ATOM      6  N   UNL     1      -0.390  10.572  18.041  0.00  0.00    +0.000 N 
ATOM      7  C   UNL     1       0.740   9.893  18.378  0.00  0.00    +0.000 A 
ATOM      8  C   UNL     1       1.796   9.478  17.606  0.00  0.00    +0.000 A 
ATOM      9  N   UNL     1       2.566   8.481  18.091  0.00  0.00    +0.000 NA
ATOM     10  H   UNL     1      -0.648  11.019  17.172  0.00  0.00    +0.000 HD
ENDROOT
BRANCH   1  15
ATOM     11  C   UNL     1       2.802   4.181  19.983  0.00  0.00    +0.000 A 
ATOM     12  C   UNL     1       4.032   4.006  19.376  0.00  0.00    +0.000 A 
ATOM     13  N   UNL     1       4.686   5.024  18.792  0.00  0.00    +0.000 NA
ATOM     14  C   UNL     1       4.071   6.241  18.815  0.00  0.00    +0.000 A 
ATOM     15  C   UNL     1       2.818   6.535  19.385  0.00  0.00    +0.000 A 
ATOM     16  C   UNL     1       2.174   5.440  19.977  0.00  0.00    +0.000 A 
BRANCH  11  18
ATOM     17  C   UNL     1       2.152   1.525  19.536  0.00  0.00    +0.000 C 
ATOM     18  S   UNL     1       2.061   2.791  20.772  0.00  0.00    +0.000 S 
ATOM     19  O   UNL     1       0.658   3.105  21.008  0.00  0.00    +0.000 OA
ATOM     20  O   UNL     1       2.930   2.418  21.880  0.00  0.00    +0.000 OA
ENDBRANCH  11  18
ENDBRANCH   1  15
BRANCH   4  21
ATOM     21  C   UNL     1      -0.954  11.476  20.991  0.00  0.00    +0.000 A 
ATOM     22  C   UNL     1      -0.636  11.275  22.333  0.00  0.00    +0.000 A 
ATOM     23  C   UNL     1      -1.585  11.611  23.286  0.00  0.00    +0.000 A 
ATOM     24  C   UNL     1      -2.784  12.185  22.883  0.00  0.00    +0.000 A 
ATOM     25  C   UNL     1      -3.010  12.523  21.544  0.00  0.00    +0.000 A 
ATOM     26  N   UNL     1      -2.103  12.157  20.600  0.00  0.00    +0.000 NA
BRANCH  25  27
ATOM     27  N   UNL     1      -4.215  13.149  21.227  0.00  0.00    +0.000 N 
ATOM     28  C   UNL     1      -4.862  12.850  19.934  0.00  0.00    +0.000 C 
ATOM     29  C   UNL     1      -6.109  11.964  20.126  0.00  0.00    +0.000 C 
ATOM     30  N   UNL     1      -7.087  12.551  21.057  0.00  0.00    +0.000 NA
ATOM     31  C   UNL     1      -6.421  12.800  22.355  0.00  0.00    +0.000 C 
ATOM     32  C   UNL     1      -5.136  13.656  22.252  0.00  0.00    +0.000 C 
ATOM     33  H   UNL     1      -7.851  11.890  21.196  0.00  0.00    +0.000 HD
ENDBRANCH  25  27
ENDBRANCH   4  21
TORSDOF 4
ENDMDL
