MODEL 1
REMARK VINA RESULT:      -7.2      0.000      0.000
REMARK  Name = 
REMARK  9 active torsions:
REMARK  status: ('A' for Active; 'I' for Inactive)
REMARK    1  A    between atoms: C_1  and  N_2
REMARK    2  A    between atoms: C_13  and  C_14
REMARK    3  A    between atoms: C_14  and  N_15
REMARK    4  A    between atoms: N_15  and  C_16
REMARK    5  A    between atoms: N_15  and  C_21
REMARK    6  A    between atoms: C_16  and  C_17
REMARK    7  A    between atoms: C_17  and  C_18
REMARK    8  A    between atoms: C_18  and  C_19
REMARK    9  A    between atoms: C_19  and  N_20
REMARK                            x       y       z     vdW  Elec       q    Type
REMARK                         _______ _______ _______ _____ _____    ______ ____
ROOT
ATOM      1  N   UNL     1       3.984   4.147  17.484  0.00  0.00    +0.000 NA
ENDROOT
BRANCH   1   2
ATOM      2  C   UNL     1       5.313   3.982  16.852  0.00  0.00    +0.000 C 
ATOM      3  C   UNL     1       5.281   3.929  15.315  0.00  0.00    +0.000 C 
ATOM      4  C   UNL     1       5.803   5.132  14.543  0.00  0.00    +0.000 C 
ATOM      5  C   UNL     1       6.650   6.169  15.274  0.00  0.00    +0.000 C 
ATOM      6  C   UNL     1       6.905   5.961  16.731  0.00  0.00    +0.000 A 
ATOM      7  C   UNL     1       7.734   6.862  17.419  0.00  0.00    +0.000 A 
ATOM      8  C   UNL     1       7.977   6.705  18.775  0.00  0.00    +0.000 A 
ATOM      9  C   UNL     1       7.394   5.631  19.412  0.00  0.00    +0.000 A 
ATOM     10  N   UNL     1       6.609   4.740  18.779  0.00  0.00    +0.000 NA
ATOM     11  C   UNL     1       6.335   4.931  17.458  0.00  0.00    +0.000 A 
ENDBRANCH   1   2
BRANCH   1  12
ATOM     12  C   UNL     1       3.602   5.560  17.669  0.00  0.00    +0.000 C 
BRANCH  12  25
ATOM     13  C   UNL     1       2.911   8.672  17.372  0.00  0.00    +0.000 C 
ATOM     14  N   UNL     1       2.193   8.346  18.589  0.00  0.00    +0.000 N 
ATOM     15  C   UNL     1       1.390   9.246  19.268  0.00  0.00    +0.000 A 
ATOM     16  C   UNL     1       1.032  10.577  18.989  0.00  0.00    +0.000 A 
ATOM     17  C   UNL     1       0.184  11.239  19.882  0.00  0.00    +0.000 A 
ATOM     18  C   UNL     1      -0.304  10.598  21.015  0.00  0.00    +0.000 A 
ATOM     19  C   UNL     1       0.063   9.278  21.289  0.00  0.00    +0.000 A 
ATOM     20  C   UNL     1       0.929   8.595  20.410  0.00  0.00    +0.000 A 
ATOM     21  C   UNL     1       1.511   7.293  20.432  0.00  0.00    +0.000 A 
ATOM     22  C   UNL     1       1.440   6.242  21.358  0.00  0.00    +0.000 A 
ATOM     23  C   UNL     1       2.185   5.119  21.081  0.00  0.00    +0.000 A 
ATOM     24  N   UNL     1       2.889   4.951  19.953  0.00  0.00    +0.000 NA
ATOM     25  C   UNL     1       2.904   5.907  18.974  0.00  0.00    +0.000 A 
ATOM     26  C   UNL     1       2.265   7.133  19.263  0.00  0.00    +0.000 A 
ENDBRANCH  12  25
ENDBRANCH   1  12
BRANCH   1  27
ATOM     27  C   UNL     1       2.910   3.326  16.913  0.00  0.00    +0.000 C 
BRANCH  27  28
ATOM     28  C   UNL     1       2.439   2.134  17.771  0.00  0.00    +0.000 C 
BRANCH  28  29
ATOM     29  C   UNL     1       3.558   1.313  18.427  0.00  0.00    +0.000 C 
BRANCH  29  30
ATOM     30  C   UNL     1       3.827   1.729  19.873  0.00  0.00    +0.000 C 
BRANCH  30  31
ATOM     31  N   UNL     1       5.071   2.487  19.969  0.00  0.00    +0.000 NA
ATOM     32  H   UNL     1       5.259   2.729  20.938  0.00  0.00    +0.000 HD
ATOM     33  H   UNL     1       4.977   3.355  19.449  0.00  0.00    +0.000 HD
ENDBRANCH  30  31
ENDBRANCH  29  30
ENDBRANCH  28  29
ENDBRANCH  27  28
ENDBRANCH   1  27
TORSDOF 8
ENDMDL
MODEL 2
REMARK VINA RESULT:      -6.5      0.819      1.049
REMARK  Name = 
REMARK  9 active torsions:
REMARK  status: ('A' for Active; 'I' for Inactive)
REMARK    1  A    between atoms: C_1  and  N_2
REMARK    2  A    between atoms: C_13  and  C_14
REMARK    3  A    between atoms: C_14  and  N_15
REMARK    4  A    between atoms: N_15  and  C_16
REMARK    5  A    between atoms: N_15  and  C_21
REMARK    6  A    between atoms: C_16  and  C_17
REMARK    7  A    between atoms: C_17  and  C_18
REMARK    8  A    between atoms: C_18  and  C_19
REMARK    9  A    between atoms: C_19  and  N_20
REMARK                            x       y       z     vdW  Elec       q    Type
REMARK                         _______ _______ _______ _____ _____    ______ ____
ROOT
ATOM      1  N   UNL     1       3.830   4.291  17.610  0.00  0.00    +0.000 NA
ENDROOT
BRANCH   1   2
ATOM      2  C   UNL     1       5.158   4.003  17.020  0.00  0.00    +0.000 C 
ATOM      3  C   UNL     1       5.156   3.879  15.487  0.00  0.00    +0.000 C 
ATOM      4  C   UNL     1       5.778   5.005  14.673  0.00  0.00    +0.000 C 
ATOM      5  C   UNL     1       6.680   6.014  15.377  0.00  0.00    +0.000 C 
ATOM      6  C   UNL     1       6.889   5.859  16.848  0.00  0.00    +0.000 A 
ATOM      7  C   UNL     1       7.763   6.731  17.514  0.00  0.00    +0.000 A 
ATOM      8  C   UNL     1       7.965   6.622  18.882  0.00  0.00    +0.000 A 
ATOM      9  C   UNL     1       7.294   5.623  19.553  0.00  0.00    +0.000 A 
ATOM     10  N   UNL     1       6.462   4.760  18.942  0.00  0.00    +0.000 NA
ATOM     11  C   UNL     1       6.231   4.906  17.607  0.00  0.00    +0.000 A 
ENDBRANCH   1   2
BRANCH   1  12
ATOM     12  C   UNL     1       3.550   5.734  17.732  0.00  0.00    +0.000 C 
BRANCH  12  25
ATOM     13  C   UNL     1       2.897   8.823  17.208  0.00  0.00    +0.000 C 
ATOM     14  N   UNL     1       2.170   8.595  18.441  0.00  0.00    +0.000 N 
ATOM     15  C   UNL     1       1.375   9.550  19.050  0.00  0.00    +0.000 A 
ATOM     16  C   UNL     1       1.034  10.862  18.674  0.00  0.00    +0.000 A 
ATOM     17  C   UNL     1       0.189  11.596  19.512  0.00  0.00    +0.000 A 
ATOM     18  C   UNL     1      -0.311  11.043  20.686  0.00  0.00    +0.000 A 
ATOM     19  C   UNL     1       0.039   9.743  21.057  0.00  0.00    +0.000 A 
ATOM     20  C   UNL     1       0.902   8.989  20.234  0.00  0.00    +0.000 A 
ATOM     21  C   UNL     1       1.468   7.685  20.352  0.00  0.00    +0.000 A 
ATOM     22  C   UNL     1       1.381   6.705  21.352  0.00  0.00    +0.000 A 
ATOM     23  C   UNL     1       2.114   5.556  21.160  0.00  0.00    +0.000 A 
ATOM     24  N   UNL     1       2.821   5.299  20.051  0.00  0.00    +0.000 NA
ATOM     25  C   UNL     1       2.851   6.181  19.006  0.00  0.00    +0.000 A 
ATOM     26  C   UNL     1       2.225   7.433  19.202  0.00  0.00    +0.000 A 
ENDBRANCH  12  25
ENDBRANCH   1  12
BRANCH   1  27
ATOM     27  C   UNL     1       2.712   3.529  17.042  0.00  0.00    +0.000 C 
BRANCH  27  28
ATOM     28  C   UNL     1       2.337   2.226  17.776  0.00  0.00    +0.000 C 
BRANCH  28  29
ATOM     29  C   UNL     1       1.187   2.347  18.787  0.00  0.00    +0.000 C 
BRANCH  29  30
ATOM     30  C   UNL     1       1.618   2.016  20.215  0.00  0.00    +0.000 C 
BRANCH  30  31
ATOM     31  N   UNL     1       0.867   2.815  21.180  0.00  0.00    +0.000 NA
ATOM     32  H   UNL     1       1.088   3.800  21.067  0.00  0.00    +0.000 HD
ATOM     33  H   UNL     1       1.139   2.546  22.122  0.00  0.00    +0.000 HD
ENDBRANCH  30  31
ENDBRANCH  29  30
ENDBRANCH  28  29
ENDBRANCH  27  28
ENDBRANCH   1  27
TORSDOF 8
ENDMDL
MODEL 3
REMARK VINA RESULT:      -6.5      1.048      1.435
REMARK  Name = 
REMARK  9 active torsions:
REMARK  status: ('A' for Active; 'I' for Inactive)
REMARK    1  A    between atoms: C_1  and  N_2
REMARK    2  A    between atoms: C_13  and  C_14
REMARK    3  A    between atoms: C_14  and  N_15
REMARK    4  A    between atoms: N_15  and  C_16
REMARK    5  A    between atoms: N_15  and  C_21
REMARK    6  A    between atoms: C_16  and  C_17
REMARK    7  A    between atoms: C_17  and  C_18
REMARK    8  A    between atoms: C_18  and  C_19
REMARK    9  A    between atoms: C_19  and  N_20
REMARK                            x       y       z     vdW  Elec       q    Type
REMARK                         _______ _______ _______ _____ _____    ______ ____
ROOT
ATOM      1  N   UNL     1       4.745   3.784  18.227  0.00  0.00    +0.000 NA
ENDROOT
BRANCH   1   2
ATOM      2  C   UNL     1       5.922   3.878  17.332  0.00  0.00    +0.000 C 
ATOM      3  C   UNL     1       5.598   3.698  15.840  0.00  0.00    +0.000 C 
ATOM      4  C   UNL     1       5.649   4.924  14.939  0.00  0.00    +0.000 C 
ATOM      5  C   UNL     1       6.350   6.181  15.442  0.00  0.00    +0.000 C 
ATOM      6  C   UNL     1       6.933   6.154  16.818  0.00  0.00    +0.000 A 
ATOM      7  C   UNL     1       7.640   7.272  17.287  0.00  0.00    +0.000 A 
ATOM      8  C   UNL     1       8.179   7.283  18.564  0.00  0.00    +0.000 A 
ATOM      9  C   UNL     1       8.011   6.158  19.342  0.00  0.00    +0.000 A 
ATOM     10  N   UNL     1       7.353   5.063  18.917  0.00  0.00    +0.000 NA
ATOM     11  C   UNL     1       6.784   5.081  17.679  0.00  0.00    +0.000 A 
ENDBRANCH   1   2
BRANCH   1  12
ATOM     12  C   UNL     1       3.667   4.725  17.869  0.00  0.00    +0.000 C 
BRANCH  12  25
ATOM     13  C   UNL     1       3.554   7.789  16.948  0.00  0.00    +0.000 C 
ATOM     14  N   UNL     1       2.727   7.829  18.137  0.00  0.00    +0.000 N 
ATOM     15  C   UNL     1       2.060   8.963  18.569  0.00  0.00    +0.000 A 
ATOM     16  C   UNL     1       1.959  10.255  18.020  0.00  0.00    +0.000 A 
ATOM     17  C   UNL     1       1.195  11.208  18.700  0.00  0.00    +0.000 A 
ATOM     18  C   UNL     1       0.543  10.889  19.885  0.00  0.00    +0.000 A 
ATOM     19  C   UNL     1       0.655   9.607  20.428  0.00  0.00    +0.000 A 
ATOM     20  C   UNL     1       1.432   8.633  19.767  0.00  0.00    +0.000 A 
ATOM     21  C   UNL     1       1.772   7.283  20.078  0.00  0.00    +0.000 A 
ATOM     22  C   UNL     1       1.468   6.460  21.172  0.00  0.00    +0.000 A 
ATOM     23  C   UNL     1       2.016   5.198  21.170  0.00  0.00    +0.000 A 
ATOM     24  N   UNL     1       2.739   4.700  20.157  0.00  0.00    +0.000 NA
ATOM     25  C   UNL     1       2.974   5.430  19.024  0.00  0.00    +0.000 A 
ATOM     26  C   UNL     1       2.547   6.777  19.027  0.00  0.00    +0.000 A 
ENDBRANCH  12  25
ENDBRANCH   1  12
BRANCH   1  27
ATOM     27  C   UNL     1       4.262   2.423  18.489  0.00  0.00    +0.000 C 
BRANCH  27  28
ATOM     28  C   UNL     1       2.886   2.065  17.891  0.00  0.00    +0.000 C 
BRANCH  28  29
ATOM     29  C   UNL     1       1.832   1.592  18.903  0.00  0.00    +0.000 C 
BRANCH  29  30
ATOM     30  C   UNL     1       0.526   2.379  18.806  0.00  0.00    +0.000 C 
BRANCH  30  31
ATOM     31  N   UNL     1       0.670   3.508  17.890  0.00  0.00    +0.000 NA
ATOM     32  H   UNL     1      -0.145   3.576  17.287  0.00  0.00    +0.000 HD
ATOM     33  H   UNL     1       1.481   3.357  17.296  0.00  0.00    +0.000 HD
ENDBRANCH  30  31
ENDBRANCH  29  30
ENDBRANCH  28  29
ENDBRANCH  27  28
ENDBRANCH   1  27
TORSDOF 8
ENDMDL
MODEL 4
REMARK VINA RESULT:      -6.5      2.237      7.860
REMARK  Name = 
REMARK  9 active torsions:
REMARK  status: ('A' for Active; 'I' for Inactive)
REMARK    1  A    between atoms: C_1  and  N_2
REMARK    2  A    between atoms: C_13  and  C_14
REMARK    3  A    between atoms: C_14  and  N_15
REMARK    4  A    between atoms: N_15  and  C_16
REMARK    5  A    between atoms: N_15  and  C_21
REMARK    6  A    between atoms: C_16  and  C_17
REMARK    7  A    between atoms: C_17  and  C_18
REMARK    8  A    between atoms: C_18  and  C_19
REMARK    9  A    between atoms: C_19  and  N_20
REMARK                            x       y       z     vdW  Elec       q    Type
REMARK                         _______ _______ _______ _____ _____    ______ ____
ROOT
ATOM      1  N   UNL     1       0.310   8.999  19.847  0.00  0.00    +0.000 NA
ENDROOT
BRANCH   1   2
ATOM      2  C   UNL     1       0.332   9.998  18.752  0.00  0.00    +0.000 C 
ATOM      3  C   UNL     1      -0.657   9.708  17.611  0.00  0.00    +0.000 C 
ATOM      4  C   UNL     1      -1.894  10.588  17.490  0.00  0.00    +0.000 C 
ATOM      5  C   UNL     1      -1.936  11.911  18.247  0.00  0.00    +0.000 C 
ATOM      6  C   UNL     1      -0.761  12.268  19.098  0.00  0.00    +0.000 A 
ATOM      7  C   UNL     1      -0.741  13.507  19.756  0.00  0.00    +0.000 A 
ATOM      8  C   UNL     1       0.329  13.861  20.565  0.00  0.00    +0.000 A 
ATOM      9  C   UNL     1       1.369  12.964  20.682  0.00  0.00    +0.000 A 
ATOM     10  N   UNL     1       1.389  11.776  20.051  0.00  0.00    +0.000 NA
ATOM     11  C   UNL     1       0.311  11.417  19.299  0.00  0.00    +0.000 A 
ENDBRANCH   1   2
BRANCH   1  12
ATOM     12  C   UNL     1       1.657   8.569  20.267  0.00  0.00    +0.000 C 
BRANCH  12  25
ATOM     13  C   UNL     1       3.208   8.622  17.467  0.00  0.00    +0.000 C 
ATOM     14  N   UNL     1       3.426   7.249  17.876  0.00  0.00    +0.000 N 
ATOM     15  C   UNL     1       4.206   6.353  17.165  0.00  0.00    +0.000 A 
ATOM     16  C   UNL     1       4.971   6.501  15.994  0.00  0.00    +0.000 A 
ATOM     17  C   UNL     1       5.667   5.390  15.509  0.00  0.00    +0.000 A 
ATOM     18  C   UNL     1       5.614   4.168  16.169  0.00  0.00    +0.000 A 
ATOM     19  C   UNL     1       4.845   4.026  17.327  0.00  0.00    +0.000 A 
ATOM     20  C   UNL     1       4.123   5.130  17.827  0.00  0.00    +0.000 A 
ATOM     21  C   UNL     1       3.235   5.293  18.931  0.00  0.00    +0.000 A 
ATOM     22  C   UNL     1       2.750   4.396  19.893  0.00  0.00    +0.000 A 
ATOM     23  C   UNL     1       1.847   4.892  20.806  0.00  0.00    +0.000 A 
ATOM     24  N   UNL     1       1.483   6.181  20.869  0.00  0.00    +0.000 NA
ATOM     25  C   UNL     1       2.010   7.112  20.016  0.00  0.00    +0.000 A 
ATOM     26  C   UNL     1       2.840   6.635  18.977  0.00  0.00    +0.000 A 
ENDBRANCH  12  25
ENDBRANCH   1  12
BRANCH   1  27
ATOM     27  C   UNL     1      -0.574   9.322  20.973  0.00  0.00    +0.000 C 
BRANCH  27  28
ATOM     28  C   UNL     1       0.063   9.248  22.376  0.00  0.00    +0.000 C 
BRANCH  28  29
ATOM     29  C   UNL     1      -0.531  10.206  23.420  0.00  0.00    +0.000 C 
BRANCH  29  30
ATOM     30  C   UNL     1      -1.450  11.257  22.801  0.00  0.00    +0.000 C 
BRANCH  30  31
ATOM     31  N   UNL     1      -1.171  12.579  23.356  0.00  0.00    +0.000 NA
ATOM     32  H   UNL     1      -1.721  13.285  22.874  0.00  0.00    +0.000 HD
ATOM     33  H   UNL     1      -0.190  12.804  23.211  0.00  0.00    +0.000 HD
ENDBRANCH  30  31
ENDBRANCH  29  30
ENDBRANCH  28  29
ENDBRANCH  27  28
ENDBRANCH   1  27
TORSDOF 8
ENDMDL
MODEL 5
REMARK VINA RESULT:      -6.5      1.307      2.369
REMARK  Name = 
REMARK  9 active torsions:
REMARK  status: ('A' for Active; 'I' for Inactive)
REMARK    1  A    between atoms: C_1  and  N_2
REMARK    2  A    between atoms: C_13  and  C_14
REMARK    3  A    between atoms: C_14  and  N_15
REMARK    4  A    between atoms: N_15  and  C_16
REMARK    5  A    between atoms: N_15  and  C_21
REMARK    6  A    between atoms: C_16  and  C_17
REMARK    7  A    between atoms: C_17  and  C_18
REMARK    8  A    between atoms: C_18  and  C_19
REMARK    9  A    between atoms: C_19  and  N_20
REMARK                            x       y       z     vdW  Elec       q    Type
REMARK                         _______ _______ _______ _____ _____    ______ ____
ROOT
ATOM      1  N   UNL     1       3.543   4.373  18.708  0.00  0.00    +0.000 NA
ENDROOT
BRANCH   1   2
ATOM      2  C   UNL     1       4.690   3.906  17.893  0.00  0.00    +0.000 C 
ATOM      3  C   UNL     1       4.344   3.613  16.424  0.00  0.00    +0.000 C 
ATOM      4  C   UNL     1       4.841   4.583  15.360  0.00  0.00    +0.000 C 
ATOM      5  C   UNL     1       5.935   5.581  15.724  0.00  0.00    +0.000 C 
ATOM      6  C   UNL     1       6.450   5.574  17.126  0.00  0.00    +0.000 A 
ATOM      7  C   UNL     1       7.501   6.436  17.477  0.00  0.00    +0.000 A 
ATOM      8  C   UNL     1       7.991   6.463  18.773  0.00  0.00    +0.000 A 
ATOM      9  C   UNL     1       7.423   5.607  19.693  0.00  0.00    +0.000 A 
ATOM     10  N   UNL     1       6.426   4.757  19.386  0.00  0.00    +0.000 NA
ATOM     11  C   UNL     1       5.918   4.773  18.122  0.00  0.00    +0.000 A 
ENDBRANCH   1   2
BRANCH   1  12
ATOM     12  C   UNL     1       3.809   5.644  19.409  0.00  0.00    +0.000 C 
BRANCH  12  25
ATOM     13  C   UNL     1       1.613   6.356  21.626  0.00  0.00    +0.000 C 
ATOM     14  N   UNL     1       1.521   7.519  20.765  0.00  0.00    +0.000 N 
ATOM     15  C   UNL     1       0.708   8.606  21.031  0.00  0.00    +0.000 A 
ATOM     16  C   UNL     1      -0.140   8.898  22.115  0.00  0.00    +0.000 A 
ATOM     17  C   UNL     1      -0.847  10.105  22.101  0.00  0.00    +0.000 A 
ATOM     18  C   UNL     1      -0.711  11.001  21.048  0.00  0.00    +0.000 A 
ATOM     19  C   UNL     1       0.127  10.701  19.971  0.00  0.00    +0.000 A 
ATOM     20  C   UNL     1       0.838   9.483  19.956  0.00  0.00    +0.000 A 
ATOM     21  C   UNL     1       1.716   8.878  19.008  0.00  0.00    +0.000 A 
ATOM     22  C   UNL     1       2.156   9.281  17.739  0.00  0.00    +0.000 A 
ATOM     23  C   UNL     1       2.979   8.409  17.062  0.00  0.00    +0.000 A 
ATOM     24  N   UNL     1       3.437   7.262  17.581  0.00  0.00    +0.000 NA
ATOM     25  C   UNL     1       3.117   6.878  18.855  0.00  0.00    +0.000 A 
ATOM     26  C   UNL     1       2.171   7.669  19.546  0.00  0.00    +0.000 A 
ENDBRANCH  12  25
ENDBRANCH   1  12
BRANCH   1  27
ATOM     27  C   UNL     1       2.241   4.344  18.033  0.00  0.00    +0.000 C 
BRANCH  27  28
ATOM     28  C   UNL     1       1.109   3.606  18.776  0.00  0.00    +0.000 C 
BRANCH  28  29
ATOM     29  C   UNL     1       1.555   2.418  19.641  0.00  0.00    +0.000 C 
BRANCH  29  30
ATOM     30  C   UNL     1       1.411   2.690  21.137  0.00  0.00    +0.000 C 
BRANCH  30  31
ATOM     31  N   UNL     1       2.722   2.832  21.764  0.00  0.00    +0.000 NA
ATOM     32  H   UNL     1       2.656   2.643  22.761  0.00  0.00    +0.000 HD
ATOM     33  H   UNL     1       3.045   3.790  21.655  0.00  0.00    +0.000 HD
ENDBRANCH  30  31
ENDBRANCH  29  30
ENDBRANCH  28  29
ENDBRANCH  27  28
ENDBRANCH   1  27
TORSDOF 8
ENDMDL
MODEL 6
REMARK VINA RESULT:      -6.4      1.858      4.247
REMARK  Name = 
REMARK  9 active torsions:
REMARK  status: ('A' for Active; 'I' for Inactive)
REMARK    1  A    between atoms: C_1  and  N_2
REMARK    2  A    between atoms: C_13  and  C_14
REMARK    3  A    between atoms: C_14  and  N_15
REMARK    4  A    between atoms: N_15  and  C_16
REMARK    5  A    between atoms: N_15  and  C_21
REMARK    6  A    between atoms: C_16  and  C_17
REMARK    7  A    between atoms: C_17  and  C_18
REMARK    8  A    between atoms: C_18  and  C_19
REMARK    9  A    between atoms: C_19  and  N_20
REMARK                            x       y       z     vdW  Elec       q    Type
REMARK                         _______ _______ _______ _____ _____    ______ ____
ROOT
ATOM      1  N   UNL     1       3.009   6.788  19.087  0.00  0.00    +0.000 NA
ENDROOT
BRANCH   1   2
ATOM      2  C   UNL     1       3.381   6.361  17.718  0.00  0.00    +0.000 C 
ATOM      3  C   UNL     1       4.667   7.009  17.180  0.00  0.00    +0.000 C 
ATOM      4  C   UNL     1       5.916   6.145  17.071  0.00  0.00    +0.000 C 
ATOM      5  C   UNL     1       5.775   4.629  17.146  0.00  0.00    +0.000 C 
ATOM      6  C   UNL     1       4.407   4.063  17.351  0.00  0.00    +0.000 A 
ATOM      7  C   UNL     1       4.233   2.670  17.360  0.00  0.00    +0.000 A 
ATOM      8  C   UNL     1       2.979   2.115  17.564  0.00  0.00    +0.000 A 
ATOM      9  C   UNL     1       1.917   2.976  17.738  0.00  0.00    +0.000 A 
ATOM     10  N   UNL     1       2.046   4.315  17.717  0.00  0.00    +0.000 NA
ATOM     11  C   UNL     1       3.289   4.851  17.567  0.00  0.00    +0.000 A 
ENDBRANCH   1   2
BRANCH   1  12
ATOM     12  C   UNL     1       1.646   7.347  19.170  0.00  0.00    +0.000 C 
BRANCH  12  25
ATOM     13  C   UNL     1      -0.366   8.169  21.520  0.00  0.00    +0.000 C 
ATOM     14  N   UNL     1       0.075   9.474  21.068  0.00  0.00    +0.000 N 
ATOM     15  C   UNL     1      -0.304  10.661  21.669  0.00  0.00    +0.000 A 
ATOM     16  C   UNL     1      -1.100  10.927  22.797  0.00  0.00    +0.000 A 
ATOM     17  C   UNL     1      -1.305  12.259  23.169  0.00  0.00    +0.000 A 
ATOM     18  C   UNL     1      -0.731  13.299  22.447  0.00  0.00    +0.000 A 
ATOM     19  C   UNL     1       0.052  13.028  21.323  0.00  0.00    +0.000 A 
ATOM     20  C   UNL     1       0.260  11.692  20.921  0.00  0.00    +0.000 A 
ATOM     21  C   UNL     1       0.953  11.102  19.822  0.00  0.00    +0.000 A 
ATOM     22  C   UNL     1       1.650  11.655  18.739  0.00  0.00    +0.000 A 
ATOM     23  C   UNL     1       2.164  10.773  17.816  0.00  0.00    +0.000 A 
ATOM     24  N   UNL     1       2.105   9.440  17.945  0.00  0.00    +0.000 NA
ATOM     25  C   UNL     1       1.525   8.856  19.038  0.00  0.00    +0.000 A 
ATOM     26  C   UNL     1       0.867   9.711  19.950  0.00  0.00    +0.000 A 
ENDBRANCH  12  25
ENDBRANCH   1  12
BRANCH   1  27
ATOM     27  C   UNL     1       3.304   5.819  20.149  0.00  0.00    +0.000 C 
BRANCH  27  28
ATOM     28  C   UNL     1       2.083   5.190  20.851  0.00  0.00    +0.000 C 
BRANCH  28  29
ATOM     29  C   UNL     1       2.358   3.877  21.599  0.00  0.00    +0.000 C 
BRANCH  29  30
ATOM     30  C   UNL     1       1.297   2.811  21.330  0.00  0.00    +0.000 C 
BRANCH  30  31
ATOM     31  N   UNL     1       0.342   3.274  20.326  0.00  0.00    +0.000 NA
ATOM     32  H   UNL     1       0.325   2.634  19.537  0.00  0.00    +0.000 HD
ATOM     33  H   UNL     1       0.636   4.183  19.978  0.00  0.00    +0.000 HD
ENDBRANCH  30  31
ENDBRANCH  29  30
ENDBRANCH  28  29
ENDBRANCH  27  28
ENDBRANCH   1  27
TORSDOF 8
ENDMDL
MODEL 7
REMARK VINA RESULT:      -6.4      2.035      3.357
REMARK  Name = 
REMARK  9 active torsions:
REMARK  status: ('A' for Active; 'I' for Inactive)
REMARK    1  A    between atoms: C_1  and  N_2
REMARK    2  A    between atoms: C_13  and  C_14
REMARK    3  A    between atoms: C_14  and  N_15
REMARK    4  A    between atoms: N_15  and  C_16
REMARK    5  A    between atoms: N_15  and  C_21
REMARK    6  A    between atoms: C_16  and  C_17
REMARK    7  A    between atoms: C_17  and  C_18
REMARK    8  A    between atoms: C_18  and  C_19
REMARK    9  A    between atoms: C_19  and  N_20
REMARK                            x       y       z     vdW  Elec       q    Type
REMARK                         _______ _______ _______ _____ _____    ______ ____
ROOT
ATOM      1  N   UNL     1       2.619   6.185  18.868  0.00  0.00    +0.000 NA
ENDROOT
BRANCH   1   2
ATOM      2  C   UNL     1       4.048   5.806  18.965  0.00  0.00    +0.000 C 
ATOM      3  C   UNL     1       4.341   4.698  19.990  0.00  0.00    +0.000 C 
ATOM      4  C   UNL     1       4.696   3.312  19.471  0.00  0.00    +0.000 C 
ATOM      5  C   UNL     1       5.097   3.152  18.008  0.00  0.00    +0.000 C 
ATOM      6  C   UNL     1       5.096   4.371  17.145  0.00  0.00    +0.000 A 
ATOM      7  C   UNL     1       5.522   4.269  15.811  0.00  0.00    +0.000 A 
ATOM      8  C   UNL     1       5.517   5.380  14.981  0.00  0.00    +0.000 A 
ATOM      9  C   UNL     1       5.099   6.580  15.515  0.00  0.00    +0.000 A 
ATOM     10  N   UNL     1       4.702   6.715  16.794  0.00  0.00    +0.000 NA
ATOM     11  C   UNL     1       4.662   5.609  17.587  0.00  0.00    +0.000 A 
ENDBRANCH   1   2
BRANCH   1  12
ATOM     12  C   UNL     1       2.413   7.641  18.746  0.00  0.00    +0.000 C 
BRANCH  12  25
ATOM     13  C   UNL     1       2.182  10.689  17.798  0.00  0.00    +0.000 C 
ATOM     14  N   UNL     1       1.231  10.670  18.891  0.00  0.00    +0.000 N 
ATOM     15  C   UNL     1       0.444  11.753  19.242  0.00  0.00    +0.000 A 
ATOM     16  C   UNL     1       0.310  13.034  18.677  0.00  0.00    +0.000 A 
ATOM     17  C   UNL     1      -0.588  13.930  19.265  0.00  0.00    +0.000 A 
ATOM     18  C   UNL     1      -1.339  13.565  20.376  0.00  0.00    +0.000 A 
ATOM     19  C   UNL     1      -1.194  12.293  20.936  0.00  0.00    +0.000 A 
ATOM     20  C   UNL     1      -0.283  11.378  20.369  0.00  0.00    +0.000 A 
ATOM     21  C   UNL     1       0.116  10.055  20.723  0.00  0.00    +0.000 A 
ATOM     22  C   UNL     1      -0.244   9.212  21.783  0.00  0.00    +0.000 A 
ATOM     23  C   UNL     1       0.389   7.991  21.849  0.00  0.00    +0.000 A 
ATOM     24  N   UNL     1       1.249   7.547  20.922  0.00  0.00    +0.000 NA
ATOM     25  C   UNL     1       1.552   8.293  19.816  0.00  0.00    +0.000 A 
ATOM     26  C   UNL     1       1.033   9.606  19.764  0.00  0.00    +0.000 A 
ENDBRANCH  12  25
ENDBRANCH   1  12
BRANCH   1  27
ATOM     27  C   UNL     1       1.826   5.405  17.911  0.00  0.00    +0.000 C 
BRANCH  27  28
ATOM     28  C   UNL     1       1.269   4.063  18.428  0.00  0.00    +0.000 C 
BRANCH  28  29
ATOM     29  C   UNL     1       0.988   4.005  19.937  0.00  0.00    +0.000 C 
BRANCH  29  30
ATOM     30  C   UNL     1       1.291   2.634  20.541  0.00  0.00    +0.000 C 
BRANCH  30  31
ATOM     31  N   UNL     1       1.594   2.753  21.965  0.00  0.00    +0.000 NA
ATOM     32  H   UNL     1       2.552   3.067  22.094  0.00  0.00    +0.000 HD
ATOM     33  H   UNL     1       1.509   1.839  22.403  0.00  0.00    +0.000 HD
ENDBRANCH  30  31
ENDBRANCH  29  30
ENDBRANCH  28  29
ENDBRANCH  27  28
ENDBRANCH   1  27
TORSDOF 8
ENDMDL
MODEL 8
REMARK VINA RESULT:      -6.3      1.743      4.696
REMARK  Name = 
REMARK  9 active torsions:
REMARK  status: ('A' for Active; 'I' for Inactive)
REMARK    1  A    between atoms: C_1  and  N_2
REMARK    2  A    between atoms: C_13  and  C_14
REMARK    3  A    between atoms: C_14  and  N_15
REMARK    4  A    between atoms: N_15  and  C_16
REMARK    5  A    between atoms: N_15  and  C_21
REMARK    6  A    between atoms: C_16  and  C_17
REMARK    7  A    between atoms: C_17  and  C_18
REMARK    8  A    between atoms: C_18  and  C_19
REMARK    9  A    between atoms: C_19  and  N_20
REMARK                            x       y       z     vdW  Elec       q    Type
REMARK                         _______ _______ _______ _____ _____    ______ ____
ROOT
ATOM      1  N   UNL     1       2.545   6.286  18.900  0.00  0.00    +0.000 NA
ENDROOT
BRANCH   1   2
ATOM      2  C   UNL     1       1.717   5.077  18.677  0.00  0.00    +0.000 C 
ATOM      3  C   UNL     1       1.648   4.620  17.210  0.00  0.00    +0.000 C 
ATOM      4  C   UNL     1       2.406   3.361  16.812  0.00  0.00    +0.000 C 
ATOM      5  C   UNL     1       2.896   2.417  17.906  0.00  0.00    +0.000 C 
ATOM      6  C   UNL     1       2.626   2.792  19.327  0.00  0.00    +0.000 A 
ATOM      7  C   UNL     1       3.006   1.914  20.353  0.00  0.00    +0.000 A 
ATOM      8  C   UNL     1       2.783   2.242  21.682  0.00  0.00    +0.000 A 
ATOM      9  C   UNL     1       2.164   3.443  21.953  0.00  0.00    +0.000 A 
ATOM     10  N   UNL     1       1.772   4.299  20.991  0.00  0.00    +0.000 NA
ATOM     11  C   UNL     1       2.040   3.992  19.692  0.00  0.00    +0.000 A 
ENDBRANCH   1   2
BRANCH   1  12
ATOM     12  C   UNL     1       1.994   7.182  19.934  0.00  0.00    +0.000 C 
BRANCH  12  25
ATOM     13  C   UNL     1      -0.032   8.236  22.177  0.00  0.00    +0.000 C 
ATOM     14  N   UNL     1       0.213   9.456  21.435  0.00  0.00    +0.000 N 
ATOM     15  C   UNL     1      -0.303  10.689  21.795  0.00  0.00    +0.000 A 
ATOM     16  C   UNL     1      -1.090  11.090  22.889  0.00  0.00    +0.000 A 
ATOM     17  C   UNL     1      -1.461  12.435  22.984  0.00  0.00    +0.000 A 
ATOM     18  C   UNL     1      -1.056  13.358  22.027  0.00  0.00    +0.000 A 
ATOM     19  C   UNL     1      -0.281  12.950  20.938  0.00  0.00    +0.000 A 
ATOM     20  C   UNL     1       0.092  11.595  20.814  0.00  0.00    +0.000 A 
ATOM     21  C   UNL     1       0.822  10.873  19.824  0.00  0.00    +0.000 A 
ATOM     22  C   UNL     1       1.402  11.262  18.608  0.00  0.00    +0.000 A 
ATOM     23  C   UNL     1       2.000  10.272  17.861  0.00  0.00    +0.000 A 
ATOM     24  N   UNL     1       2.126   9.002  18.270  0.00  0.00    +0.000 NA
ATOM     25  C   UNL     1       1.666   8.600  19.495  0.00  0.00    +0.000 A 
ATOM     26  C   UNL     1       0.929   9.543  20.246  0.00  0.00    +0.000 A 
ENDBRANCH  12  25
ENDBRANCH   1  12
BRANCH   1  27
ATOM     27  C   UNL     1       3.984   6.043  19.050  0.00  0.00    +0.000 C 
BRANCH  27  28
ATOM     28  C   UNL     1       4.836   6.213  17.775  0.00  0.00    +0.000 C 
BRANCH  28  29
ATOM     29  C   UNL     1       5.553   4.945  17.288  0.00  0.00    +0.000 C 
BRANCH  29  30
ATOM     30  C   UNL     1       6.835   4.655  18.067  0.00  0.00    +0.000 C 
BRANCH  30  31
ATOM     31  N   UNL     1       7.910   4.257  17.163  0.00  0.00    +0.000 NA
ATOM     32  H   UNL     1       8.756   4.057  17.690  0.00  0.00    +0.000 HD
ATOM     33  H   UNL     1       8.118   5.025  16.529  0.00  0.00    +0.000 HD
ENDBRANCH  30  31
ENDBRANCH  29  30
ENDBRANCH  28  29
ENDBRANCH  27  28
ENDBRANCH   1  27
TORSDOF 8
ENDMDL
MODEL 9
REMARK VINA RESULT:      -6.3      2.370      8.466
REMARK  Name = 
REMARK  9 active torsions:
REMARK  status: ('A' for Active; 'I' for Inactive)
REMARK    1  A    between atoms: C_1  and  N_2
REMARK    2  A    between atoms: C_13  and  C_14
REMARK    3  A    between atoms: C_14  and  N_15
REMARK    4  A    between atoms: N_15  and  C_16
REMARK    5  A    between atoms: N_15  and  C_21
REMARK    6  A    between atoms: C_16  and  C_17
REMARK    7  A    between atoms: C_17  and  C_18
REMARK    8  A    between atoms: C_18  and  C_19
REMARK    9  A    between atoms: C_19  and  N_20
REMARK                            x       y       z     vdW  Elec       q    Type
REMARK                         _______ _______ _______ _____ _____    ______ ____
ROOT
ATOM      1  N   UNL     1       0.738   9.739  19.283  0.00  0.00    +0.000 NA
ENDROOT
BRANCH   1   2
ATOM      2  C   UNL     1       1.178  11.014  19.896  0.00  0.00    +0.000 C 
ATOM      3  C   UNL     1       1.592  12.094  18.882  0.00  0.00    +0.000 C 
ATOM      4  C   UNL     1       0.663  13.283  18.678  0.00  0.00    +0.000 C 
ATOM      5  C   UNL     1      -0.430  13.552  19.708  0.00  0.00    +0.000 C 
ATOM      6  C   UNL     1      -0.551  12.610  20.861  0.00  0.00    +0.000 A 
ATOM      7  C   UNL     1      -1.504  12.865  21.859  0.00  0.00    +0.000 A 
ATOM      8  C   UNL     1      -1.652  12.002  22.934  0.00  0.00    +0.000 A 
ATOM      9  C   UNL     1      -0.822  10.902  22.993  0.00  0.00    +0.000 A 
ATOM     10  N   UNL     1       0.113  10.638  22.062  0.00  0.00    +0.000 NA
ATOM     11  C   UNL     1       0.216  11.465  20.984  0.00  0.00    +0.000 A 
ENDBRANCH   1   2
BRANCH   1  12
ATOM     12  C   UNL     1       1.408   8.557  19.859  0.00  0.00    +0.000 C 
BRANCH  12  25
ATOM     13  C   UNL     1       1.306   5.552  20.956  0.00  0.00    +0.000 C 
ATOM     14  N   UNL     1       2.062   5.372  19.733  0.00  0.00    +0.000 N 
ATOM     15  C   UNL     1       2.476   4.138  19.263  0.00  0.00    +0.000 A 
ATOM     16  C   UNL     1       2.270   2.834  19.749  0.00  0.00    +0.000 A 
ATOM     17  C   UNL     1       2.823   1.764  19.039  0.00  0.00    +0.000 A 
ATOM     18  C   UNL     1       3.552   1.978  17.876  0.00  0.00    +0.000 A 
ATOM     19  C   UNL     1       3.760   3.276  17.403  0.00  0.00    +0.000 A 
ATOM     20  C   UNL     1       3.223   4.372  18.111  0.00  0.00    +0.000 A 
ATOM     21  C   UNL     1       3.293   5.784  17.919  0.00  0.00    +0.000 A 
ATOM     22  C   UNL     1       3.948   6.576  16.965  0.00  0.00    +0.000 A 
ATOM     23  C   UNL     1       3.841   7.940  17.112  0.00  0.00    +0.000 A 
ATOM     24  N   UNL     1       3.088   8.533  18.050  0.00  0.00    +0.000 NA
ATOM     25  C   UNL     1       2.349   7.799  18.937  0.00  0.00    +0.000 A 
ATOM     26  C   UNL     1       2.525   6.397  18.916  0.00  0.00    +0.000 A 
ENDBRANCH  12  25
ENDBRANCH   1  12
BRANCH   1  27
ATOM     27  C   UNL     1      -0.715   9.575  19.151  0.00  0.00    +0.000 C 
BRANCH  27  28
ATOM     28  C   UNL     1      -1.347  10.148  17.866  0.00  0.00    +0.000 C 
BRANCH  28  29
ATOM     29  C   UNL     1      -2.648  10.938  18.069  0.00  0.00    +0.000 C 
BRANCH  29  30
ATOM     30  C   UNL     1      -3.403  11.177  16.762  0.00  0.00    +0.000 C 
BRANCH  30  31
ATOM     31  N   UNL     1      -2.473  11.293  15.642  0.00  0.00    +0.000 NA
ATOM     32  H   UNL     1      -2.598  12.186  15.174  0.00  0.00    +0.000 HD
ATOM     33  H   UNL     1      -2.671  10.561  14.965  0.00  0.00    +0.000 HD
ENDBRANCH  30  31
ENDBRANCH  29  30
ENDBRANCH  28  29
ENDBRANCH  27  28
ENDBRANCH   1  27
TORSDOF 8
ENDMDL
