MODEL 1
REMARK VINA RESULT:      -6.7      0.000      0.000
REMARK  Name = 
REMARK  13 active torsions:
REMARK  status: ('A' for Active; 'I' for Inactive)
REMARK    1  A    between atoms: C_1  and  C_2
REMARK    2  A    between atoms: C_2  and  O_3
REMARK    3  A    between atoms: O_3  and  C_4
REMARK    4  A    between atoms: C_10  and  C_12
REMARK    5  A    between atoms: C_14  and  O_15
REMARK    6  A    between atoms: O_15  and  C_16
REMARK    7  A    between atoms: C_16  and  C_17
REMARK    8  A    between atoms: C_18  and  O_19
REMARK    9  A    between atoms: O_19  and  C_20
REMARK   10  A    between atoms: C_20  and  C_21
REMARK   11  A    between atoms: C_22  and  O_23
REMARK   12  A    between atoms: O_23  and  C_24
REMARK   13  A    between atoms: C_24  and  C_25
REMARK                            x       y       z     vdW  Elec       q    Type
REMARK                         _______ _______ _______ _____ _____    ______ ____
ROOT
ATOM      1  C   UNL     1       3.117   6.928  18.435  0.00  0.00    +0.000 A 
ATOM      2  C   UNL     1       4.259   6.404  17.843  0.00  0.00    +0.000 A 
ATOM      3  C   UNL     1       4.769   5.163  18.229  0.00  0.00    +0.000 A 
ATOM      4  C   UNL     1       4.215   4.513  19.357  0.00  0.00    +0.000 A 
ATOM      5  C   UNL     1       3.100   5.085  20.019  0.00  0.00    +0.000 A 
ATOM      6  C   UNL     1       2.559   6.290  19.545  0.00  0.00    +0.000 A 
ENDROOT
BRANCH   1  13
ATOM      7  C   UNL     1      -1.070  11.105  20.887  0.00  0.00    +0.000 C 
ATOM      8  O   UNL     1      -1.584  12.099  20.388  0.00  0.00    +0.000 OA
ATOM      9  N   UNL     1      -0.520  10.072  20.152  0.00  0.00    +0.000 N 
ATOM     10  C   UNL     1      -0.454  10.173  18.693  0.00  0.00    +0.000 C 
ATOM     11  C   UNL     1       0.998  10.108  18.184  0.00  0.00    +0.000 C 
ATOM     12  N   UNL     1       1.710   8.962  18.766  0.00  0.00    +0.000 N 
ATOM     13  C   UNL     1       2.532   8.199  17.937  0.00  0.00    +0.000 C 
ATOM     14  O   UNL     1       2.777   8.508  16.772  0.00  0.00    +0.000 OA
ATOM     15  C   UNL     1       1.673   8.940  20.241  0.00  0.00    +0.000 C 
ATOM     16  C   UNL     1       0.219   8.953  20.744  0.00  0.00    +0.000 C 
BRANCH   7  17
ATOM     17  O   UNL     1      -0.917  10.919  22.223  0.00  0.00    +0.000 OA
BRANCH  17  19
ATOM     18  C   UNL     1      -2.710  11.936  23.431  0.00  0.00    +0.000 C 
ATOM     19  C   UNL     1      -1.247  12.048  23.042  0.00  0.00    +0.000 C 
ENDBRANCH  17  19
ENDBRANCH   7  17
ENDBRANCH   1  13
BRANCH   3  20
ATOM     20  O   UNL     1       5.797   4.546  17.539  0.00  0.00    +0.000 OA
BRANCH  20  21
ATOM     21  C   UNL     1       6.089   5.110  16.251  0.00  0.00    +0.000 C 
ATOM     22  C   UNL     1       5.795   4.135  15.129  0.00  0.00    +0.000 C 
ENDBRANCH  20  21
ENDBRANCH   3  20
BRANCH   4  23
ATOM     23  O   UNL     1       4.816   3.324  19.703  0.00  0.00    +0.000 OA
BRANCH  23  24
ATOM     24  C   UNL     1       4.033   2.137  19.544  0.00  0.00    +0.000 C 
ATOM     25  C   UNL     1       3.573   2.050  18.099  0.00  0.00    +0.000 C 
ENDBRANCH  23  24
ENDBRANCH   4  23
BRANCH   5  26
ATOM     26  O   UNL     1       2.556   4.404  21.085  0.00  0.00    +0.000 OA
BRANCH  26  27
ATOM     27  C   UNL     1       1.291   3.766  20.906  0.00  0.00    +0.000 C 
ATOM     28  C   UNL     1       1.275   2.493  21.735  0.00  0.00    +0.000 C 
ENDBRANCH  26  27
ENDBRANCH   5  26
TORSDOF 9
ENDMDL
MODEL 2
REMARK VINA RESULT:      -6.6      1.125      3.261
REMARK  Name = 
REMARK  13 active torsions:
REMARK  status: ('A' for Active; 'I' for Inactive)
REMARK    1  A    between atoms: C_1  and  C_2
REMARK    2  A    between atoms: C_2  and  O_3
REMARK    3  A    between atoms: O_3  and  C_4
REMARK    4  A    between atoms: C_10  and  C_12
REMARK    5  A    between atoms: C_14  and  O_15
REMARK    6  A    between atoms: O_15  and  C_16
REMARK    7  A    between atoms: C_16  and  C_17
REMARK    8  A    between atoms: C_18  and  O_19
REMARK    9  A    between atoms: O_19  and  C_20
REMARK   10  A    between atoms: C_20  and  C_21
REMARK   11  A    between atoms: C_22  and  O_23
REMARK   12  A    between atoms: O_23  and  C_24
REMARK   13  A    between atoms: C_24  and  C_25
REMARK                            x       y       z     vdW  Elec       q    Type
REMARK                         _______ _______ _______ _____ _____    ______ ____
ROOT
ATOM      1  C   UNL     1       3.252   6.442  18.150  0.00  0.00    +0.000 A 
ATOM      2  C   UNL     1       2.269   5.468  18.266  0.00  0.00    +0.000 A 
ATOM      3  C   UNL     1       2.572   4.185  18.728  0.00  0.00    +0.000 A 
ATOM      4  C   UNL     1       3.927   3.824  18.912  0.00  0.00    +0.000 A 
ATOM      5  C   UNL     1       4.944   4.791  18.713  0.00  0.00    +0.000 A 
ATOM      6  C   UNL     1       4.592   6.096  18.337  0.00  0.00    +0.000 A 
ENDROOT
BRANCH   1  13
ATOM      7  C   UNL     1      -0.681  10.832  20.648  0.00  0.00    +0.000 C 
ATOM      8  O   UNL     1      -1.008  11.937  20.228  0.00  0.00    +0.000 OA
ATOM      9  N   UNL     1      -0.171   9.826  19.850  0.00  0.00    +0.000 N 
ATOM     10  C   UNL     1       0.088  10.083  18.432  0.00  0.00    +0.000 C 
ATOM     11  C   UNL     1       1.574   9.883  18.081  0.00  0.00    +0.000 C 
ATOM     12  N   UNL     1       2.067   8.594  18.585  0.00  0.00    +0.000 N 
ATOM     13  C   UNL     1       2.890   7.828  17.759  0.00  0.00    +0.000 C 
ATOM     14  O   UNL     1       3.313   8.232  16.678  0.00  0.00    +0.000 OA
ATOM     15  C   UNL     1       1.844   8.409  20.032  0.00  0.00    +0.000 C 
ATOM     16  C   UNL     1       0.350   8.559  20.370  0.00  0.00    +0.000 C 
BRANCH   7  17
ATOM     17  O   UNL     1      -0.719  10.476  21.957  0.00  0.00    +0.000 OA
BRANCH  17  19
ATOM     18  C   UNL     1      -2.291  11.671  23.303  0.00  0.00    +0.000 C 
ATOM     19  C   UNL     1      -0.836  11.562  22.886  0.00  0.00    +0.000 C 
ENDBRANCH  17  19
ENDBRANCH   7  17
ENDBRANCH   1  13
BRANCH   3  20
ATOM     20  O   UNL     1       1.586   3.258  19.015  0.00  0.00    +0.000 OA
BRANCH  20  21
ATOM     21  C   UNL     1       0.769   3.572  20.152  0.00  0.00    +0.000 C 
ATOM     22  C   UNL     1       1.236   2.849  21.399  0.00  0.00    +0.000 C 
ENDBRANCH  20  21
ENDBRANCH   3  20
BRANCH   4  23
ATOM     23  O   UNL     1       4.138   2.524  19.312  0.00  0.00    +0.000 OA
BRANCH  23  24
ATOM     24  C   UNL     1       4.443   2.316  20.694  0.00  0.00    +0.000 C 
ATOM     25  C   UNL     1       5.226   1.021  20.829  0.00  0.00    +0.000 C 
ENDBRANCH  23  24
ENDBRANCH   4  23
BRANCH   5  26
ATOM     26  O   UNL     1       6.250   4.419  18.947  0.00  0.00    +0.000 OA
BRANCH  26  27
ATOM     27  C   UNL     1       7.279   5.041  18.175  0.00  0.00    +0.000 C 
ATOM     28  C   UNL     1       7.220   4.486  16.763  0.00  0.00    +0.000 C 
ENDBRANCH  26  27
ENDBRANCH   5  26
TORSDOF 9
ENDMDL
MODEL 3
REMARK VINA RESULT:      -6.6      2.164      4.345
REMARK  Name = 
REMARK  13 active torsions:
REMARK  status: ('A' for Active; 'I' for Inactive)
REMARK    1  A    between atoms: C_1  and  C_2
REMARK    2  A    between atoms: C_2  and  O_3
REMARK    3  A    between atoms: O_3  and  C_4
REMARK    4  A    between atoms: C_10  and  C_12
REMARK    5  A    between atoms: C_14  and  O_15
REMARK    6  A    between atoms: O_15  and  C_16
REMARK    7  A    between atoms: C_16  and  C_17
REMARK    8  A    between atoms: C_18  and  O_19
REMARK    9  A    between atoms: O_19  and  C_20
REMARK   10  A    between atoms: C_20  and  C_21
REMARK   11  A    between atoms: C_22  and  O_23
REMARK   12  A    between atoms: O_23  and  C_24
REMARK   13  A    between atoms: C_24  and  C_25
REMARK                            x       y       z     vdW  Elec       q    Type
REMARK                         _______ _______ _______ _____ _____    ______ ____
ROOT
ATOM      1  C   UNL     1       3.069   6.204  18.807  0.00  0.00    +0.000 A 
ATOM      2  C   UNL     1       2.859   4.946  18.256  0.00  0.00    +0.000 A 
ATOM      3  C   UNL     1       3.777   4.383  17.367  0.00  0.00    +0.000 A 
ATOM      4  C   UNL     1       4.845   5.177  16.889  0.00  0.00    +0.000 A 
ATOM      5  C   UNL     1       5.018   6.494  17.384  0.00  0.00    +0.000 A 
ATOM      6  C   UNL     1       4.126   6.992  18.346  0.00  0.00    +0.000 A 
ENDROOT
BRANCH   1  13
ATOM      7  C   UNL     1       0.341  11.924  19.714  0.00  0.00    +0.000 C 
ATOM      8  O   UNL     1      -0.360  12.333  20.633  0.00  0.00    +0.000 OA
ATOM      9  N   UNL     1       1.195  10.843  19.819  0.00  0.00    +0.000 N 
ATOM     10  C   UNL     1       1.232  10.064  21.059  0.00  0.00    +0.000 C 
ATOM     11  C   UNL     1       0.850   8.592  20.817  0.00  0.00    +0.000 C 
ATOM     12  N   UNL     1       1.615   8.026  19.697  0.00  0.00    +0.000 N 
ATOM     13  C   UNL     1       2.135   6.738  19.830  0.00  0.00    +0.000 C 
ATOM     14  O   UNL     1       1.886   6.014  20.792  0.00  0.00    +0.000 OA
ATOM     15  C   UNL     1       1.494   8.808  18.451  0.00  0.00    +0.000 C 
ATOM     16  C   UNL     1       1.925  10.267  18.687  0.00  0.00    +0.000 C 
BRANCH   7  17
ATOM     17  O   UNL     1       0.321  12.439  18.458  0.00  0.00    +0.000 OA
BRANCH  17  19
ATOM     18  C   UNL     1       2.066  14.071  18.413  0.00  0.00    +0.000 C 
ATOM     19  C   UNL     1       0.565  13.848  18.368  0.00  0.00    +0.000 C 
ENDBRANCH  17  19
ENDBRANCH   7  17
ENDBRANCH   1  13
BRANCH   3  20
ATOM     20  O   UNL     1       3.676   3.070  16.944  0.00  0.00    +0.000 OA
BRANCH  20  21
ATOM     21  C   UNL     1       2.835   2.234  17.752  0.00  0.00    +0.000 C 
ATOM     22  C   UNL     1       3.643   1.317  18.648  0.00  0.00    +0.000 C 
ENDBRANCH  20  21
ENDBRANCH   3  20
BRANCH   4  23
ATOM     23  O   UNL     1       5.668   4.562  15.972  0.00  0.00    +0.000 OA
BRANCH  23  24
ATOM     24  C   UNL     1       5.415   4.841  14.591  0.00  0.00    +0.000 C 
ATOM     25  C   UNL     1       6.587   4.331  13.771  0.00  0.00    +0.000 C 
ENDBRANCH  23  24
ENDBRANCH   4  23
BRANCH   5  26
ATOM     26  O   UNL     1       6.095   7.223  16.932  0.00  0.00    +0.000 OA
BRANCH  26  27
ATOM     27  C   UNL     1       7.341   7.087  17.617  0.00  0.00    +0.000 C 
ATOM     28  C   UNL     1       7.969   8.464  17.747  0.00  0.00    +0.000 C 
ENDBRANCH  26  27
ENDBRANCH   5  26
TORSDOF 9
ENDMDL
MODEL 4
REMARK VINA RESULT:      -6.6      2.005      8.043
REMARK  Name = 
REMARK  13 active torsions:
REMARK  status: ('A' for Active; 'I' for Inactive)
REMARK    1  A    between atoms: C_1  and  C_2
REMARK    2  A    between atoms: C_2  and  O_3
REMARK    3  A    between atoms: O_3  and  C_4
REMARK    4  A    between atoms: C_10  and  C_12
REMARK    5  A    between atoms: C_14  and  O_15
REMARK    6  A    between atoms: O_15  and  C_16
REMARK    7  A    between atoms: C_16  and  C_17
REMARK    8  A    between atoms: C_18  and  O_19
REMARK    9  A    between atoms: O_19  and  C_20
REMARK   10  A    between atoms: C_20  and  C_21
REMARK   11  A    between atoms: C_22  and  O_23
REMARK   12  A    between atoms: O_23  and  C_24
REMARK   13  A    between atoms: C_24  and  C_25
REMARK                            x       y       z     vdW  Elec       q    Type
REMARK                         _______ _______ _______ _____ _____    ______ ____
ROOT
ATOM      1  C   UNL     1       1.196   9.411  18.617  0.00  0.00    +0.000 A 
ATOM      2  C   UNL     1       0.038   9.671  17.894  0.00  0.00    +0.000 A 
ATOM      3  C   UNL     1      -0.958  10.508  18.400  0.00  0.00    +0.000 A 
ATOM      4  C   UNL     1      -0.865  10.955  19.739  0.00  0.00    +0.000 A 
ATOM      5  C   UNL     1       0.275  10.622  20.512  0.00  0.00    +0.000 A 
ATOM      6  C   UNL     1       1.299   9.854  19.937  0.00  0.00    +0.000 A 
ENDROOT
BRANCH   1  13
ATOM      7  C   UNL     1       3.557   3.590  19.850  0.00  0.00    +0.000 C 
ATOM      8  O   UNL     1       4.525   3.008  19.372  0.00  0.00    +0.000 OA
ATOM      9  N   UNL     1       3.391   4.961  19.816  0.00  0.00    +0.000 N 
ATOM     10  C   UNL     1       4.362   5.795  19.105  0.00  0.00    +0.000 C 
ATOM     11  C   UNL     1       3.701   6.590  17.964  0.00  0.00    +0.000 C 
ATOM     12  N   UNL     1       2.500   7.292  18.437  0.00  0.00    +0.000 N 
ATOM     13  C   UNL     1       2.288   8.605  18.016  0.00  0.00    +0.000 C 
ATOM     14  O   UNL     1       2.997   9.160  17.179  0.00  0.00    +0.000 OA
ATOM     15  C   UNL     1       1.520   6.400  19.087  0.00  0.00    +0.000 C 
ATOM     16  C   UNL     1       2.173   5.646  20.259  0.00  0.00    +0.000 C 
BRANCH   7  17
ATOM     17  O   UNL     1       2.497   2.960  20.417  0.00  0.00    +0.000 OA
BRANCH  17  19
ATOM     18  C   UNL     1       0.728   2.554  18.863  0.00  0.00    +0.000 C 
ATOM     19  C   UNL     1       1.891   1.936  19.618  0.00  0.00    +0.000 C 
ENDBRANCH  17  19
ENDBRANCH   7  17
ENDBRANCH   1  13
BRANCH   3  20
ATOM     20  O   UNL     1      -2.032  10.917  17.630  0.00  0.00    +0.000 OA
BRANCH  20  21
ATOM     21  C   UNL     1      -2.351  10.058  16.525  0.00  0.00    +0.000 C 
ATOM     22  C   UNL     1      -3.186  10.769  15.480  0.00  0.00    +0.000 C 
ENDBRANCH  20  21
ENDBRANCH   3  20
BRANCH   4  23
ATOM     23  O   UNL     1      -1.919  11.726  20.174  0.00  0.00    +0.000 OA
BRANCH  23  24
ATOM     24  C   UNL     1      -1.736  13.145  20.140  0.00  0.00    +0.000 C 
ATOM     25  C   UNL     1      -2.803  13.791  21.008  0.00  0.00    +0.000 C 
ENDBRANCH  23  24
ENDBRANCH   4  23
BRANCH   5  26
ATOM     26  O   UNL     1       0.355  11.113  21.796  0.00  0.00    +0.000 OA
BRANCH  26  27
ATOM     27  C   UNL     1      -0.578  10.630  22.764  0.00  0.00    +0.000 C 
ATOM     28  C   UNL     1       0.015   9.401  23.429  0.00  0.00    +0.000 C 
ENDBRANCH  26  27
ENDBRANCH   5  26
TORSDOF 9
ENDMDL
MODEL 5
REMARK VINA RESULT:      -6.6      2.203      4.082
REMARK  Name = 
REMARK  13 active torsions:
REMARK  status: ('A' for Active; 'I' for Inactive)
REMARK    1  A    between atoms: C_1  and  C_2
REMARK    2  A    between atoms: C_2  and  O_3
REMARK    3  A    between atoms: O_3  and  C_4
REMARK    4  A    between atoms: C_10  and  C_12
REMARK    5  A    between atoms: C_14  and  O_15
REMARK    6  A    between atoms: O_15  and  C_16
REMARK    7  A    between atoms: C_16  and  C_17
REMARK    8  A    between atoms: C_18  and  O_19
REMARK    9  A    between atoms: O_19  and  C_20
REMARK   10  A    between atoms: C_20  and  C_21
REMARK   11  A    between atoms: C_22  and  O_23
REMARK   12  A    between atoms: O_23  and  C_24
REMARK   13  A    between atoms: C_24  and  C_25
REMARK                            x       y       z     vdW  Elec       q    Type
REMARK                         _______ _______ _______ _____ _____    ______ ____
ROOT
ATOM      1  C   UNL     1       3.042   6.149  18.897  0.00  0.00    +0.000 A 
ATOM      2  C   UNL     1       2.624   4.997  18.242  0.00  0.00    +0.000 A 
ATOM      3  C   UNL     1       3.442   4.361  17.307  0.00  0.00    +0.000 A 
ATOM      4  C   UNL     1       4.637   4.995  16.894  0.00  0.00    +0.000 A 
ATOM      5  C   UNL     1       5.028   6.216  17.499  0.00  0.00    +0.000 A 
ATOM      6  C   UNL     1       4.224   6.779  18.502  0.00  0.00    +0.000 A 
ENDROOT
BRANCH   1  13
ATOM      7  C   UNL     1       0.051  11.777  19.497  0.00  0.00    +0.000 C 
ATOM      8  O   UNL     1      -0.562  12.254  20.446  0.00  0.00    +0.000 OA
ATOM      9  N   UNL     1       0.984  10.766  19.614  0.00  0.00    +0.000 N 
ATOM     10  C   UNL     1       1.223  10.144  20.918  0.00  0.00    +0.000 C 
ATOM     11  C   UNL     1       0.918   8.635  20.892  0.00  0.00    +0.000 C 
ATOM     12  N   UNL     1       1.581   7.982  19.755  0.00  0.00    +0.000 N 
ATOM     13  C   UNL     1       2.201   6.749  19.964  0.00  0.00    +0.000 C 
ATOM     14  O   UNL     1       2.119   6.133  21.024  0.00  0.00    +0.000 OA
ATOM     15  C   UNL     1       1.258   8.602  18.455  0.00  0.00    +0.000 C 
ATOM     16  C   UNL     1       1.612  10.099  18.470  0.00  0.00    +0.000 C 
BRANCH   7  17
ATOM     17  O   UNL     1      -0.154  12.137  18.204  0.00  0.00    +0.000 OA
BRANCH  17  19
ATOM     18  C   UNL     1      -1.876  10.616  17.548  0.00  0.00    +0.000 C 
ATOM     19  C   UNL     1      -1.515  12.076  17.757  0.00  0.00    +0.000 C 
ENDBRANCH  17  19
ENDBRANCH   7  17
ENDBRANCH   1  13
BRANCH   3  20
ATOM     20  O   UNL     1       3.121   3.124  16.774  0.00  0.00    +0.000 OA
BRANCH  20  21
ATOM     21  C   UNL     1       2.542   2.195  17.702  0.00  0.00    +0.000 C 
ATOM     22  C   UNL     1       3.601   1.427  18.467  0.00  0.00    +0.000 C 
ENDBRANCH  20  21
ENDBRANCH   3  20
BRANCH   4  23
ATOM     23  O   UNL     1       5.352   4.326  15.926  0.00  0.00    +0.000 OA
BRANCH  23  24
ATOM     24  C   UNL     1       5.445   4.955  14.645  0.00  0.00    +0.000 C 
ATOM     25  C   UNL     1       5.985   3.945  13.647  0.00  0.00    +0.000 C 
ENDBRANCH  23  24
ENDBRANCH   4  23
BRANCH   5  26
ATOM     26  O   UNL     1       6.220   6.783  17.107  0.00  0.00    +0.000 OA
BRANCH  26  27
ATOM     27  C   UNL     1       7.300   6.803  18.042  0.00  0.00    +0.000 C 
ATOM     28  C   UNL     1       7.631   5.371  18.422  0.00  0.00    +0.000 C 
ENDBRANCH  26  27
ENDBRANCH   5  26
TORSDOF 9
ENDMDL
MODEL 6
REMARK VINA RESULT:      -6.5      1.076      3.195
REMARK  Name = 
REMARK  13 active torsions:
REMARK  status: ('A' for Active; 'I' for Inactive)
REMARK    1  A    between atoms: C_1  and  C_2
REMARK    2  A    between atoms: C_2  and  O_3
REMARK    3  A    between atoms: O_3  and  C_4
REMARK    4  A    between atoms: C_10  and  C_12
REMARK    5  A    between atoms: C_14  and  O_15
REMARK    6  A    between atoms: O_15  and  C_16
REMARK    7  A    between atoms: C_16  and  C_17
REMARK    8  A    between atoms: C_18  and  O_19
REMARK    9  A    between atoms: O_19  and  C_20
REMARK   10  A    between atoms: C_20  and  C_21
REMARK   11  A    between atoms: C_22  and  O_23
REMARK   12  A    between atoms: O_23  and  C_24
REMARK   13  A    between atoms: C_24  and  C_25
REMARK                            x       y       z     vdW  Elec       q    Type
REMARK                         _______ _______ _______ _____ _____    ______ ____
ROOT
ATOM      1  C   UNL     1       3.024   6.707  18.406  0.00  0.00    +0.000 A 
ATOM      2  C   UNL     1       2.079   5.703  18.577  0.00  0.00    +0.000 A 
ATOM      3  C   UNL     1       2.429   4.465  19.119  0.00  0.00    +0.000 A 
ATOM      4  C   UNL     1       3.796   4.171  19.333  0.00  0.00    +0.000 A 
ATOM      5  C   UNL     1       4.775   5.163  19.081  0.00  0.00    +0.000 A 
ATOM      6  C   UNL     1       4.375   6.427  18.622  0.00  0.00    +0.000 A 
ENDROOT
BRANCH   1  13
ATOM      7  C   UNL     1      -0.928  11.178  20.722  0.00  0.00    +0.000 C 
ATOM      8  O   UNL     1      -1.300  12.240  20.234  0.00  0.00    +0.000 OA
ATOM      9  N   UNL     1      -0.422  10.127  19.983  0.00  0.00    +0.000 N 
ATOM     10  C   UNL     1      -0.223  10.282  18.540  0.00  0.00    +0.000 C 
ATOM     11  C   UNL     1       1.253  10.092  18.146  0.00  0.00    +0.000 C 
ATOM     12  N   UNL     1       1.799   8.857  18.725  0.00  0.00    +0.000 N 
ATOM     13  C   UNL     1       2.610   8.050  17.926  0.00  0.00    +0.000 C 
ATOM     14  O   UNL     1       2.981   8.381  16.802  0.00  0.00    +0.000 OA
ATOM     15  C   UNL     1       1.636   8.776  20.189  0.00  0.00    +0.000 C 
ATOM     16  C   UNL     1       0.152   8.916  20.574  0.00  0.00    +0.000 C 
BRANCH   7  17
ATOM     17  O   UNL     1      -0.908  10.922  22.055  0.00  0.00    +0.000 OA
BRANCH  17  19
ATOM     18  C   UNL     1      -2.634  12.065  23.247  0.00  0.00    +0.000 C 
ATOM     19  C   UNL     1      -1.156  12.052  22.902  0.00  0.00    +0.000 C 
ENDBRANCH  17  19
ENDBRANCH   7  17
ENDBRANCH   1  13
BRANCH   3  20
ATOM     20  O   UNL     1       1.478   3.518  19.458  0.00  0.00    +0.000 OA
BRANCH  20  21
ATOM     21  C   UNL     1       0.913   3.666  20.768  0.00  0.00    +0.000 C 
ATOM     22  C   UNL     1       1.451   2.632  21.736  0.00  0.00    +0.000 C 
ENDBRANCH  20  21
ENDBRANCH   3  20
BRANCH   4  23
ATOM     23  O   UNL     1       4.055   2.907  19.815  0.00  0.00    +0.000 OA
BRANCH  23  24
ATOM     24  C   UNL     1       3.982   1.832  18.873  0.00  0.00    +0.000 C 
ATOM     25  C   UNL     1       4.119   2.404  17.473  0.00  0.00    +0.000 C 
ENDBRANCH  23  24
ENDBRANCH   4  23
BRANCH   5  26
ATOM     26  O   UNL     1       6.092   4.859  19.345  0.00  0.00    +0.000 OA
BRANCH  26  27
ATOM     27  C   UNL     1       7.058   5.088  18.318  0.00  0.00    +0.000 C 
ATOM     28  C   UNL     1       7.868   6.318  18.687  0.00  0.00    +0.000 C 
ENDBRANCH  26  27
ENDBRANCH   5  26
TORSDOF 9
ENDMDL
MODEL 7
REMARK VINA RESULT:      -6.5      1.950      8.210
REMARK  Name = 
REMARK  13 active torsions:
REMARK  status: ('A' for Active; 'I' for Inactive)
REMARK    1  A    between atoms: C_1  and  C_2
REMARK    2  A    between atoms: C_2  and  O_3
REMARK    3  A    between atoms: O_3  and  C_4
REMARK    4  A    between atoms: C_10  and  C_12
REMARK    5  A    between atoms: C_14  and  O_15
REMARK    6  A    between atoms: O_15  and  C_16
REMARK    7  A    between atoms: C_16  and  C_17
REMARK    8  A    between atoms: C_18  and  O_19
REMARK    9  A    between atoms: O_19  and  C_20
REMARK   10  A    between atoms: C_20  and  C_21
REMARK   11  A    between atoms: C_22  and  O_23
REMARK   12  A    between atoms: O_23  and  C_24
REMARK   13  A    between atoms: C_24  and  C_25
REMARK                            x       y       z     vdW  Elec       q    Type
REMARK                         _______ _______ _______ _____ _____    ______ ____
ROOT
ATOM      1  C   UNL     1       1.430   9.219  18.532  0.00  0.00    +0.000 A 
ATOM      2  C   UNL     1       1.626   9.699  19.821  0.00  0.00    +0.000 A 
ATOM      3  C   UNL     1       0.628  10.416  20.485  0.00  0.00    +0.000 A 
ATOM      4  C   UNL     1      -0.528  10.806  19.771  0.00  0.00    +0.000 A 
ATOM      5  C   UNL     1      -0.697  10.390  18.427  0.00  0.00    +0.000 A 
ATOM      6  C   UNL     1       0.288   9.593  17.822  0.00  0.00    +0.000 A 
ENDROOT
BRANCH   1  13
ATOM      7  C   UNL     1       3.720   3.370  19.767  0.00  0.00    +0.000 C 
ATOM      8  O   UNL     1       4.641   2.751  19.246  0.00  0.00    +0.000 OA
ATOM      9  N   UNL     1       3.585   4.743  19.709  0.00  0.00    +0.000 N 
ATOM     10  C   UNL     1       4.531   5.533  18.917  0.00  0.00    +0.000 C 
ATOM     11  C   UNL     1       3.820   6.318  17.799  0.00  0.00    +0.000 C 
ATOM     12  N   UNL     1       2.668   7.062  18.327  0.00  0.00    +0.000 N 
ATOM     13  C   UNL     1       2.463   8.370  17.886  0.00  0.00    +0.000 C 
ATOM     14  O   UNL     1       3.131   8.886  16.993  0.00  0.00    +0.000 OA
ATOM     15  C   UNL     1       1.709   6.213  19.059  0.00  0.00    +0.000 C 
ATOM     16  C   UNL     1       2.415   5.470  20.208  0.00  0.00    +0.000 C 
BRANCH   7  17
ATOM     17  O   UNL     1       2.681   2.781  20.414  0.00  0.00    +0.000 OA
BRANCH  17  19
ATOM     18  C   UNL     1       0.768   2.540  19.004  0.00  0.00    +0.000 C 
ATOM     19  C   UNL     1       1.942   1.823  19.647  0.00  0.00    +0.000 C 
ENDBRANCH  17  19
ENDBRANCH   7  17
ENDBRANCH   1  13
BRANCH   3  20
ATOM     20  O   UNL     1       0.734  10.751  21.823  0.00  0.00    +0.000 OA
BRANCH  20  21
ATOM     21  C   UNL     1       0.722   9.640  22.732  0.00  0.00    +0.000 C 
ATOM     22  C   UNL     1      -0.689   9.245  23.120  0.00  0.00    +0.000 C 
ENDBRANCH  20  21
ENDBRANCH   3  20
BRANCH   4  23
ATOM     23  O   UNL     1      -1.433  11.560  20.485  0.00  0.00    +0.000 OA
BRANCH  23  24
ATOM     24  C   UNL     1      -1.354  12.979  20.328  0.00  0.00    +0.000 C 
ATOM     25  C   UNL     1      -1.363  13.621  21.705  0.00  0.00    +0.000 C 
ENDBRANCH  23  24
ENDBRANCH   4  23
BRANCH   5  26
ATOM     26  O   UNL     1      -1.856  10.748  17.775  0.00  0.00    +0.000 OA
BRANCH  26  27
ATOM     27  C   UNL     1      -2.303   9.933  16.690  0.00  0.00    +0.000 C 
ATOM     28  C   UNL     1      -2.849  10.841  15.602  0.00  0.00    +0.000 C 
ENDBRANCH  26  27
ENDBRANCH   5  26
TORSDOF 9
ENDMDL
MODEL 8
REMARK VINA RESULT:      -6.5      0.340      3.266
REMARK  Name = 
REMARK  13 active torsions:
REMARK  status: ('A' for Active; 'I' for Inactive)
REMARK    1  A    between atoms: C_1  and  C_2
REMARK    2  A    between atoms: C_2  and  O_3
REMARK    3  A    between atoms: O_3  and  C_4
REMARK    4  A    between atoms: C_10  and  C_12
REMARK    5  A    between atoms: C_14  and  O_15
REMARK    6  A    between atoms: O_15  and  C_16
REMARK    7  A    between atoms: C_16  and  C_17
REMARK    8  A    between atoms: C_18  and  O_19
REMARK    9  A    between atoms: O_19  and  C_20
REMARK   10  A    between atoms: C_20  and  C_21
REMARK   11  A    between atoms: C_22  and  O_23
REMARK   12  A    between atoms: O_23  and  C_24
REMARK   13  A    between atoms: C_24  and  C_25
REMARK                            x       y       z     vdW  Elec       q    Type
REMARK                         _______ _______ _______ _____ _____    ______ ____
ROOT
ATOM      1  C   UNL     1       2.939   7.079  18.484  0.00  0.00    +0.000 A 
ATOM      2  C   UNL     1       2.314   6.420  19.535  0.00  0.00    +0.000 A 
ATOM      3  C   UNL     1       2.822   5.223  20.044  0.00  0.00    +0.000 A 
ATOM      4  C   UNL     1       3.887   4.586  19.365  0.00  0.00    +0.000 A 
ATOM      5  C   UNL     1       4.476   5.213  18.239  0.00  0.00    +0.000 A 
ATOM      6  C   UNL     1       3.995   6.461  17.812  0.00  0.00    +0.000 A 
ENDROOT
BRANCH   1  13
ATOM      7  C   UNL     1      -1.163  11.324  20.959  0.00  0.00    +0.000 C 
ATOM      8  O   UNL     1      -1.604  12.369  20.492  0.00  0.00    +0.000 OA
ATOM      9  N   UNL     1      -0.627  10.306  20.196  0.00  0.00    +0.000 N 
ATOM     10  C   UNL     1      -0.482  10.481  18.749  0.00  0.00    +0.000 C 
ATOM     11  C   UNL     1       0.989  10.370  18.308  0.00  0.00    +0.000 C 
ATOM     12  N   UNL     1       1.616   9.161  18.860  0.00  0.00    +0.000 N 
ATOM     13  C   UNL     1       2.442   8.402  18.030  0.00  0.00    +0.000 C 
ATOM     14  O   UNL     1       2.760   8.760  16.898  0.00  0.00    +0.000 OA
ATOM     15  C   UNL     1       1.502   9.061  20.327  0.00  0.00    +0.000 C 
ATOM     16  C   UNL     1       0.026   9.122  20.759  0.00  0.00    +0.000 C 
BRANCH   7  17
ATOM     17  O   UNL     1      -1.089  11.060  22.289  0.00  0.00    +0.000 OA
BRANCH  17  19
ATOM     18  C   UNL     1      -2.897  12.042  23.503  0.00  0.00    +0.000 C 
ATOM     19  C   UNL     1      -1.424  12.154  23.153  0.00  0.00    +0.000 C 
ENDBRANCH  17  19
ENDBRANCH   7  17
ENDBRANCH   1  13
BRANCH   3  20
ATOM     20  O   UNL     1       2.320   4.644  21.195  0.00  0.00    +0.000 OA
BRANCH  20  21
ATOM     21  C   UNL     1       1.189   3.783  20.998  0.00  0.00    +0.000 C 
ATOM     22  C   UNL     1       1.355   2.459  21.717  0.00  0.00    +0.000 C 
ENDBRANCH  20  21
ENDBRANCH   3  20
BRANCH   4  23
ATOM     23  O   UNL     1       4.287   3.382  19.900  0.00  0.00    +0.000 OA
BRANCH  23  24
ATOM     24  C   UNL     1       3.983   2.208  19.141  0.00  0.00    +0.000 C 
ATOM     25  C   UNL     1       2.852   2.531  18.181  0.00  0.00    +0.000 C 
ENDBRANCH  23  24
ENDBRANCH   4  23
BRANCH   5  26
ATOM     26  O   UNL     1       5.541   4.587  17.629  0.00  0.00    +0.000 OA
BRANCH  26  27
ATOM     27  C   UNL     1       6.049   5.144  16.415  0.00  0.00    +0.000 C 
ATOM     28  C   UNL     1       6.299   4.010  15.437  0.00  0.00    +0.000 C 
ENDBRANCH  26  27
ENDBRANCH   5  26
TORSDOF 9
ENDMDL
MODEL 9
REMARK VINA RESULT:      -6.4      2.171      3.328
REMARK  Name = 
REMARK  13 active torsions:
REMARK  status: ('A' for Active; 'I' for Inactive)
REMARK    1  A    between atoms: C_1  and  C_2
REMARK    2  A    between atoms: C_2  and  O_3
REMARK    3  A    between atoms: O_3  and  C_4
REMARK    4  A    between atoms: C_10  and  C_12
REMARK    5  A    between atoms: C_14  and  O_15
REMARK    6  A    between atoms: O_15  and  C_16
REMARK    7  A    between atoms: C_16  and  C_17
REMARK    8  A    between atoms: C_18  and  O_19
REMARK    9  A    between atoms: O_19  and  C_20
REMARK   10  A    between atoms: C_20  and  C_21
REMARK   11  A    between atoms: C_22  and  O_23
REMARK   12  A    between atoms: O_23  and  C_24
REMARK   13  A    between atoms: C_24  and  C_25
REMARK                            x       y       z     vdW  Elec       q    Type
REMARK                         _______ _______ _______ _____ _____    ______ ____
ROOT
ATOM      1  C   UNL     1       2.699   6.242  18.982  0.00  0.00    +0.000 A 
ATOM      2  C   UNL     1       3.839   6.813  18.430  0.00  0.00    +0.000 A 
ATOM      3  C   UNL     1       4.460   6.253  17.312  0.00  0.00    +0.000 A 
ATOM      4  C   UNL     1       4.023   4.991  16.844  0.00  0.00    +0.000 A 
ATOM      5  C   UNL     1       2.911   4.362  17.457  0.00  0.00    +0.000 A 
ATOM      6  C   UNL     1       2.256   5.000  18.522  0.00  0.00    +0.000 A 
ENDROOT
BRANCH   1  13
ATOM      7  C   UNL     1       0.130  12.060  19.714  0.00  0.00    +0.000 C 
ATOM      8  O   UNL     1      -0.365  12.591  20.701  0.00  0.00    +0.000 OA
ATOM      9  N   UNL     1       1.005  10.993  19.771  0.00  0.00    +0.000 N 
ATOM     10  C   UNL     1       1.319  10.378  21.063  0.00  0.00    +0.000 C 
ATOM     11  C   UNL     1       0.919   8.892  21.098  0.00  0.00    +0.000 C 
ATOM     12  N   UNL     1       1.438   8.179  19.922  0.00  0.00    +0.000 N 
ATOM     13  C   UNL     1       1.995   6.913  20.104  0.00  0.00    +0.000 C 
ATOM     14  O   UNL     1       1.969   6.321  21.181  0.00  0.00    +0.000 OA
ATOM     15  C   UNL     1       1.040   8.796  18.642  0.00  0.00    +0.000 C 
ATOM     16  C   UNL     1       1.487  10.268  18.592  0.00  0.00    +0.000 C 
BRANCH   7  17
ATOM     17  O   UNL     1      -0.165  12.410  18.436  0.00  0.00    +0.000 OA
BRANCH  17  19
ATOM     18  C   UNL     1      -1.921  10.982  17.669  0.00  0.00    +0.000 C 
ATOM     19  C   UNL     1      -1.559  12.392  18.100  0.00  0.00    +0.000 C 
ENDBRANCH  17  19
ENDBRANCH   7  17
ENDBRANCH   1  13
BRANCH   3  20
ATOM     20  O   UNL     1       5.487   6.896  16.645  0.00  0.00    +0.000 OA
BRANCH  20  21
ATOM     21  C   UNL     1       6.482   7.492  17.490  0.00  0.00    +0.000 C 
ATOM     22  C   UNL     1       7.456   6.463  18.027  0.00  0.00    +0.000 C 
ENDBRANCH  20  21
ENDBRANCH   3  20
BRANCH   4  23
ATOM     23  O   UNL     1       4.729   4.486  15.775  0.00  0.00    +0.000 OA
BRANCH  23  24
ATOM     24  C   UNL     1       5.941   3.788  16.076  0.00  0.00    +0.000 C 
ATOM     25  C   UNL     1       7.025   4.268  15.127  0.00  0.00    +0.000 C 
ENDBRANCH  23  24
ENDBRANCH   4  23
BRANCH   5  26
ATOM     26  O   UNL     1       2.483   3.156  16.947  0.00  0.00    +0.000 OA
BRANCH  26  27
ATOM     27  C   UNL     1       2.274   2.073  17.854  0.00  0.00    +0.000 C 
ATOM     28  C   UNL     1       3.630   1.568  18.316  0.00  0.00    +0.000 C 
ENDBRANCH  26  27
ENDBRANCH   5  26
TORSDOF 9
ENDMDL
