MODEL 1
REMARK VINA RESULT:      -7.2      0.000      0.000
REMARK  Name = 
REMARK  1 active torsions:
REMARK  status: ('A' for Active; 'I' for Inactive)
REMARK    1  A    between atoms: N_9  and  C_10
REMARK                            x       y       z     vdW  Elec       q    Type
REMARK                         _______ _______ _______ _____ _____    ______ ____
ROOT
ATOM      1  O   UNL     1       4.122   2.179  19.484  0.00  0.00    +0.000 OA
ATOM      2  C   UNL     1       3.736   3.336  19.465  0.00  0.00    +0.000 C 
ATOM      3  C   UNL     1       2.705   3.854  20.373  0.00  0.00    +0.000 C 
ATOM      4 CL   UNL     1       2.007   2.926  21.603  0.00  0.00    +0.000 Cl
ATOM      5  C   UNL     1       2.504   5.131  20.084  0.00  0.00    +0.000 C 
ATOM      6 CL   UNL     1       1.470   6.239  20.839  0.00  0.00    +0.000 Cl
ATOM      7  C   UNL     1       3.394   5.493  18.974  0.00  0.00    +0.000 C 
ATOM      8  O   UNL     1       3.377   6.587  18.435  0.00  0.00    +0.000 OA
ATOM      9  N   UNL     1       4.161   4.388  18.689  0.00  0.00    +0.000 N 
ENDROOT
BRANCH   9  10
ATOM     10  C   UNL     1       5.263   4.359  17.779  0.00  0.00    +0.000 A 
ATOM     11  C   UNL     1       6.561   4.684  18.188  0.00  0.00    +0.000 A 
ATOM     12  C   UNL     1       7.578   4.739  17.243  0.00  0.00    +0.000 A 
ATOM     13  N   UNL     1       7.394   4.496  15.933  0.00  0.00    +0.000 NA
ATOM     14  C   UNL     1       6.146   4.166  15.561  0.00  0.00    +0.000 A 
ATOM     15 CL   UNL     1       5.943   3.923  13.875  0.00  0.00    +0.000 Cl
ATOM     16  C   UNL     1       5.068   4.068  16.425  0.00  0.00    +0.000 A 
ENDBRANCH   9  10
TORSDOF 1
ENDMDL
MODEL 2
REMARK VINA RESULT:      -7.1      2.287      2.539
REMARK  Name = 
REMARK  1 active torsions:
REMARK  status: ('A' for Active; 'I' for Inactive)
REMARK    1  A    between atoms: N_9  and  C_10
REMARK                            x       y       z     vdW  Elec       q    Type
REMARK                         _______ _______ _______ _____ _____    ______ ____
ROOT
ATOM      1  O   UNL     1       5.366   3.432  20.054  0.00  0.00    +0.000 OA
ATOM      2  C   UNL     1       4.370   3.368  19.352  0.00  0.00    +0.000 C 
ATOM      3  C   UNL     1       3.070   2.894  19.843  0.00  0.00    +0.000 C 
ATOM      4 CL   UNL     1       2.790   2.471  21.457  0.00  0.00    +0.000 Cl
ATOM      5  C   UNL     1       2.210   2.932  18.837  0.00  0.00    +0.000 C 
ATOM      6 CL   UNL     1       0.560   2.549  18.836  0.00  0.00    +0.000 Cl
ATOM      7  C   UNL     1       2.918   3.428  17.649  0.00  0.00    +0.000 C 
ATOM      8  O   UNL     1       2.403   3.496  16.546  0.00  0.00    +0.000 OA
ATOM      9  N   UNL     1       4.199   3.739  18.039  0.00  0.00    +0.000 N 
ENDROOT
BRANCH   9  10
ATOM     10  C   UNL     1       5.173   4.399  17.227  0.00  0.00    +0.000 A 
ATOM     11  C   UNL     1       5.636   3.835  16.033  0.00  0.00    +0.000 A 
ATOM     12  C   UNL     1       6.656   4.468  15.334  0.00  0.00    +0.000 A 
ATOM     13  N   UNL     1       7.240   5.610  15.736  0.00  0.00    +0.000 NA
ATOM     14  C   UNL     1       6.770   6.149  16.874  0.00  0.00    +0.000 A 
ATOM     15 CL   UNL     1       7.582   7.572  17.381  0.00  0.00    +0.000 Cl
ATOM     16  C   UNL     1       5.748   5.606  17.635  0.00  0.00    +0.000 A 
ENDBRANCH   9  10
TORSDOF 1
ENDMDL
MODEL 3
REMARK VINA RESULT:      -7.1      0.376      2.251
REMARK  Name = 
REMARK  1 active torsions:
REMARK  status: ('A' for Active; 'I' for Inactive)
REMARK    1  A    between atoms: N_9  and  C_10
REMARK                            x       y       z     vdW  Elec       q    Type
REMARK                         _______ _______ _______ _____ _____    ______ ____
ROOT
ATOM      1  O   UNL     1       3.437   6.453  18.767  0.00  0.00    +0.000 OA
ATOM      2  C   UNL     1       3.499   5.331  19.242  0.00  0.00    +0.000 C 
ATOM      3  C   UNL     1       2.535   4.819  20.225  0.00  0.00    +0.000 C 
ATOM      4 CL   UNL     1       1.183   5.698  20.737  0.00  0.00    +0.000 Cl
ATOM      5  C   UNL     1       2.891   3.585  20.548  0.00  0.00    +0.000 C 
ATOM      6 CL   UNL     1       2.120   2.498  21.593  0.00  0.00    +0.000 Cl
ATOM      7  C   UNL     1       4.103   3.246  19.790  0.00  0.00    +0.000 C 
ATOM      8  O   UNL     1       4.712   2.200  19.939  0.00  0.00    +0.000 OA
ATOM      9  N   UNL     1       4.382   4.313  18.969  0.00  0.00    +0.000 N 
ENDROOT
BRANCH   9  10
ATOM     10  C   UNL     1       5.388   4.333  17.954  0.00  0.00    +0.000 A 
ATOM     11  C   UNL     1       6.716   4.666  18.243  0.00  0.00    +0.000 A 
ATOM     12  C   UNL     1       7.632   4.770  17.204  0.00  0.00    +0.000 A 
ATOM     13  N   UNL     1       7.322   4.568  15.911  0.00  0.00    +0.000 NA
ATOM     14  C   UNL     1       6.047   4.230  15.653  0.00  0.00    +0.000 A 
ATOM     15 CL   UNL     1       5.681   4.040  13.989  0.00  0.00    +0.000 Cl
ATOM     16  C   UNL     1       5.062   4.085  16.617  0.00  0.00    +0.000 A 
ENDBRANCH   9  10
TORSDOF 1
ENDMDL
MODEL 4
REMARK VINA RESULT:      -7.1      1.985      2.049
REMARK  Name = 
REMARK  1 active torsions:
REMARK  status: ('A' for Active; 'I' for Inactive)
REMARK    1  A    between atoms: N_9  and  C_10
REMARK                            x       y       z     vdW  Elec       q    Type
REMARK                         _______ _______ _______ _____ _____    ______ ____
ROOT
ATOM      1  O   UNL     1       5.215   3.317  19.655  0.00  0.00    +0.000 OA
ATOM      2  C   UNL     1       4.063   3.425  19.268  0.00  0.00    +0.000 C 
ATOM      3  C   UNL     1       2.904   2.988  20.057  0.00  0.00    +0.000 C 
ATOM      4 CL   UNL     1       3.036   2.372  21.627  0.00  0.00    +0.000 Cl
ATOM      5  C   UNL     1       1.810   3.226  19.351  0.00  0.00    +0.000 C 
ATOM      6 CL   UNL     1       0.192   2.973  19.783  0.00  0.00    +0.000 Cl
ATOM      7  C   UNL     1       2.213   3.825  18.071  0.00  0.00    +0.000 C 
ATOM      8  O   UNL     1       1.425   4.080  17.177  0.00  0.00    +0.000 OA
ATOM      9  N   UNL     1       3.579   3.982  18.108  0.00  0.00    +0.000 N 
ENDROOT
BRANCH   9  10
ATOM     10  C   UNL     1       4.357   4.671  17.127  0.00  0.00    +0.000 A 
ATOM     11  C   UNL     1       4.475   6.065  17.130  0.00  0.00    +0.000 A 
ATOM     12  C   UNL     1       5.159   6.692  16.096  0.00  0.00    +0.000 A 
ATOM     13  N   UNL     1       5.728   6.034  15.070  0.00  0.00    +0.000 NA
ATOM     14  C   UNL     1       5.624   4.695  15.094  0.00  0.00    +0.000 A 
ATOM     15 CL   UNL     1       6.312   3.900  13.738  0.00  0.00    +0.000 Cl
ATOM     16  C   UNL     1       4.977   3.974  16.085  0.00  0.00    +0.000 A 
ENDBRANCH   9  10
TORSDOF 1
ENDMDL
MODEL 5
REMARK VINA RESULT:      -7.0      1.803      2.059
REMARK  Name = 
REMARK  1 active torsions:
REMARK  status: ('A' for Active; 'I' for Inactive)
REMARK    1  A    between atoms: N_9  and  C_10
REMARK                            x       y       z     vdW  Elec       q    Type
REMARK                         _______ _______ _______ _____ _____    ______ ____
ROOT
ATOM      1  O   UNL     1       5.258   2.697  19.729  0.00  0.00    +0.000 OA
ATOM      2  C   UNL     1       4.296   3.412  19.502  0.00  0.00    +0.000 C 
ATOM      3  C   UNL     1       3.053   3.358  20.281  0.00  0.00    +0.000 C 
ATOM      4 CL   UNL     1       2.854   2.363  21.636  0.00  0.00    +0.000 Cl
ATOM      5  C   UNL     1       2.208   4.242  19.773  0.00  0.00    +0.000 C 
ATOM      6 CL   UNL     1       0.650   4.646  20.300  0.00  0.00    +0.000 Cl
ATOM      7  C   UNL     1       2.867   4.903  18.638  0.00  0.00    +0.000 C 
ATOM      8  O   UNL     1       2.304   5.711  17.919  0.00  0.00    +0.000 OA
ATOM      9  N   UNL     1       4.148   4.409  18.567  0.00  0.00    +0.000 N 
ENDROOT
BRANCH   9  10
ATOM     10  C   UNL     1       5.175   4.900  17.703  0.00  0.00    +0.000 A 
ATOM     11  C   UNL     1       5.588   4.184  16.574  0.00  0.00    +0.000 A 
ATOM     12  C   UNL     1       6.659   4.655  15.825  0.00  0.00    +0.000 A 
ATOM     13  N   UNL     1       7.341   5.776  16.119  0.00  0.00    +0.000 NA
ATOM     14  C   UNL     1       6.919   6.462  17.194  0.00  0.00    +0.000 A 
ATOM     15 CL   UNL     1       7.851   7.852  17.568  0.00  0.00    +0.000 Cl
ATOM     16  C   UNL     1       5.853   6.087  17.996  0.00  0.00    +0.000 A 
ENDBRANCH   9  10
TORSDOF 1
ENDMDL
MODEL 6
REMARK VINA RESULT:      -6.8      1.186      2.270
REMARK  Name = 
REMARK  1 active torsions:
REMARK  status: ('A' for Active; 'I' for Inactive)
REMARK    1  A    between atoms: N_9  and  C_10
REMARK                            x       y       z     vdW  Elec       q    Type
REMARK                         _______ _______ _______ _____ _____    ______ ____
ROOT
ATOM      1  O   UNL     1       3.940   5.985  19.574  0.00  0.00    +0.000 OA
ATOM      2  C   UNL     1       3.490   4.913  19.203  0.00  0.00    +0.000 C 
ATOM      3  C   UNL     1       2.169   4.413  19.602  0.00  0.00    +0.000 C 
ATOM      4 CL   UNL     1       1.089   5.311  20.546  0.00  0.00    +0.000 Cl
ATOM      5  C   UNL     1       1.992   3.224  19.047  0.00  0.00    +0.000 C 
ATOM      6 CL   UNL     1       0.637   2.210  19.120  0.00  0.00    +0.000 Cl
ATOM      7  C   UNL     1       3.194   2.901  18.267  0.00  0.00    +0.000 C 
ATOM      8  O   UNL     1       3.357   1.831  17.706  0.00  0.00    +0.000 OA
ATOM      9  N   UNL     1       4.034   3.987  18.344  0.00  0.00    +0.000 N 
ENDROOT
BRANCH   9  10
ATOM     10  C   UNL     1       5.244   4.150  17.601  0.00  0.00    +0.000 A 
ATOM     11  C   UNL     1       6.450   4.482  18.226  0.00  0.00    +0.000 A 
ATOM     12  C   UNL     1       7.574   4.729  17.448  0.00  0.00    +0.000 A 
ATOM     13  N   UNL     1       7.580   4.668  16.104  0.00  0.00    +0.000 NA
ATOM     14  C   UNL     1       6.418   4.327  15.521  0.00  0.00    +0.000 A 
ATOM     15 CL   UNL     1       6.455   4.318  13.806  0.00  0.00    +0.000 Cl
ATOM     16  C   UNL     1       5.248   4.046  16.206  0.00  0.00    +0.000 A 
ENDBRANCH   9  10
TORSDOF 1
ENDMDL
MODEL 7
REMARK VINA RESULT:      -6.7      2.050      2.488
REMARK  Name = 
REMARK  1 active torsions:
REMARK  status: ('A' for Active; 'I' for Inactive)
REMARK    1  A    between atoms: N_9  and  C_10
REMARK                            x       y       z     vdW  Elec       q    Type
REMARK                         _______ _______ _______ _____ _____    ______ ____
ROOT
ATOM      1  O   UNL     1       1.456   4.241  17.155  0.00  0.00    +0.000 OA
ATOM      2  C   UNL     1       2.260   3.950  18.025  0.00  0.00    +0.000 C 
ATOM      3  C   UNL     1       1.904   3.182  19.224  0.00  0.00    +0.000 C 
ATOM      4 CL   UNL     1       0.361   2.539  19.485  0.00  0.00    +0.000 Cl
ATOM      5  C   UNL     1       2.991   3.052  19.970  0.00  0.00    +0.000 C 
ATOM      6 CL   UNL     1       3.181   2.222  21.433  0.00  0.00    +0.000 Cl
ATOM      7  C   UNL     1       4.097   3.736  19.286  0.00  0.00    +0.000 C 
ATOM      8  O   UNL     1       5.209   3.855  19.772  0.00  0.00    +0.000 OA
ATOM      9  N   UNL     1       3.611   4.198  18.086  0.00  0.00    +0.000 N 
ENDROOT
BRANCH   9  10
ATOM     10  C   UNL     1       4.398   4.784  17.047  0.00  0.00    +0.000 A 
ATOM     11  C   UNL     1       4.605   6.166  16.974  0.00  0.00    +0.000 A 
ATOM     12  C   UNL     1       5.292   6.694  15.887  0.00  0.00    +0.000 A 
ATOM     13  N   UNL     1       5.782   5.950  14.880  0.00  0.00    +0.000 NA
ATOM     14  C   UNL     1       5.592   4.623  14.977  0.00  0.00    +0.000 A 
ATOM     15 CL   UNL     1       6.180   3.718  13.644  0.00  0.00    +0.000 Cl
ATOM     16  C   UNL     1       4.936   3.997  16.024  0.00  0.00    +0.000 A 
ENDBRANCH   9  10
TORSDOF 1
ENDMDL
MODEL 8
REMARK VINA RESULT:      -6.6      1.091      1.208
REMARK  Name = 
REMARK  1 active torsions:
REMARK  status: ('A' for Active; 'I' for Inactive)
REMARK    1  A    between atoms: N_9  and  C_10
REMARK                            x       y       z     vdW  Elec       q    Type
REMARK                         _______ _______ _______ _____ _____    ______ ____
ROOT
ATOM      1  O   UNL     1       3.334   3.214  19.010  0.00  0.00    +0.000 OA
ATOM      2  C   UNL     1       3.275   4.427  18.883  0.00  0.00    +0.000 C 
ATOM      3  C   UNL     1       2.299   5.263  19.592  0.00  0.00    +0.000 C 
ATOM      4 CL   UNL     1       1.211   4.648  20.732  0.00  0.00    +0.000 Cl
ATOM      5  C   UNL     1       2.488   6.521  19.223  0.00  0.00    +0.000 C 
ATOM      6 CL   UNL     1       1.688   7.915  19.757  0.00  0.00    +0.000 Cl
ATOM      7  C   UNL     1       3.593   6.552  18.255  0.00  0.00    +0.000 C 
ATOM      8  O   UNL     1       3.945   7.566  17.677  0.00  0.00    +0.000 OA
ATOM      9  N   UNL     1       4.072   5.268  18.142  0.00  0.00    +0.000 N 
ENDROOT
BRANCH   9  10
ATOM     10  C   UNL     1       5.245   4.884  17.422  0.00  0.00    +0.000 A 
ATOM     11  C   UNL     1       6.508   4.882  18.025  0.00  0.00    +0.000 A 
ATOM     12  C   UNL     1       7.628   4.599  17.254  0.00  0.00    +0.000 A 
ATOM     13  N   UNL     1       7.579   4.321  15.939  0.00  0.00    +0.000 NA
ATOM     14  C   UNL     1       6.357   4.308  15.380  0.00  0.00    +0.000 A 
ATOM     15 CL   UNL     1       6.346   4.008  13.692  0.00  0.00    +0.000 Cl
ATOM     16  C   UNL     1       5.179   4.560  16.064  0.00  0.00    +0.000 A 
ENDBRANCH   9  10
TORSDOF 1
ENDMDL
MODEL 9
REMARK VINA RESULT:      -6.5      1.790      2.903
REMARK  Name = 
REMARK  1 active torsions:
REMARK  status: ('A' for Active; 'I' for Inactive)
REMARK    1  A    between atoms: N_9  and  C_10
REMARK                            x       y       z     vdW  Elec       q    Type
REMARK                         _______ _______ _______ _____ _____    ______ ____
ROOT
ATOM      1  O   UNL     1       2.375   6.141  18.313  0.00  0.00    +0.000 OA
ATOM      2  C   UNL     1       2.881   5.184  18.877  0.00  0.00    +0.000 C 
ATOM      3  C   UNL     1       2.159   4.348  19.844  0.00  0.00    +0.000 C 
ATOM      4 CL   UNL     1       0.522   4.564  20.211  0.00  0.00    +0.000 Cl
ATOM      5  C   UNL     1       2.989   3.413  20.282  0.00  0.00    +0.000 C 
ATOM      6 CL   UNL     1       2.685   2.148  21.366  0.00  0.00    +0.000 Cl
ATOM      7  C   UNL     1       4.286   3.608  19.620  0.00  0.00    +0.000 C 
ATOM      8  O   UNL     1       5.275   2.945  19.884  0.00  0.00    +0.000 OA
ATOM      9  N   UNL     1       4.139   4.649  18.734  0.00  0.00    +0.000 N 
ENDROOT
BRANCH   9  10
ATOM     10  C   UNL     1       5.116   5.062  17.776  0.00  0.00    +0.000 A 
ATOM     11  C   UNL     1       5.399   4.297  16.640  0.00  0.00    +0.000 A 
ATOM     12  C   UNL     1       6.428   4.691  15.794  0.00  0.00    +0.000 A 
ATOM     13  N   UNL     1       7.186   5.783  15.999  0.00  0.00    +0.000 NA
ATOM     14  C   UNL     1       6.887   6.518  17.083  0.00  0.00    +0.000 A 
ATOM     15 CL   UNL     1       7.915   7.867  17.338  0.00  0.00    +0.000 Cl
ATOM     16  C   UNL     1       5.873   6.220  17.978  0.00  0.00    +0.000 A 
ENDBRANCH   9  10
TORSDOF 1
ENDMDL
