MODEL 1
REMARK VINA RESULT:      -7.2      0.000      0.000
REMARK  Name = 
REMARK  3 active torsions:
REMARK  status: ('A' for Active; 'I' for Inactive)
REMARK    1  A    between atoms: C_1  and  C_2
REMARK    2  A    between atoms: N_6  and  C_7
REMARK    3  A    between atoms: C_7  and  C_8
REMARK                            x       y       z     vdW  Elec       q    Type
REMARK                         _______ _______ _______ _____ _____    ______ ____
ROOT
ATOM      1  C   UNL     1       4.968   3.403  19.195  0.00  0.00    +0.000 C 
ENDROOT
BRANCH   1   7
ATOM      2  C   UNL     1       7.535   7.365  17.616  0.00  0.00    +0.000 C 
ATOM      3  C   UNL     1       6.724   6.163  17.249  0.00  0.00    +0.000 A 
ATOM      4  C   UNL     1       6.201   5.946  16.033  0.00  0.00    +0.000 A 
ATOM      5  C   UNL     1       5.344   4.814  15.791  0.00  0.00    +0.000 A 
ATOM      6  C   UNL     1       4.962   4.037  16.810  0.00  0.00    +0.000 A 
ATOM      7  N   UNL     1       5.454   4.235  18.090  0.00  0.00    +0.000 N 
ATOM      8  C   UNL     1       6.449   5.181  18.350  0.00  0.00    +0.000 A 
ATOM      9  O   UNL     1       7.076   5.262  19.400  0.00  0.00    +0.000 OA
ENDBRANCH   1   7
BRANCH   1  10
ATOM     10  C   UNL     1       3.463   3.246  19.194  0.00  0.00    +0.000 A 
ATOM     11  C   UNL     1       2.913   2.001  18.855  0.00  0.00    +0.000 A 
ATOM     12  F   UNL     1       3.721   0.966  18.581  0.00  0.00    +0.000 F 
ATOM     13  C   UNL     1       1.536   1.783  18.806  0.00  0.00    +0.000 A 
ATOM     14  C   UNL     1       0.660   2.825  19.094  0.00  0.00    +0.000 A 
ATOM     15  C   UNL     1       1.176   4.069  19.439  0.00  0.00    +0.000 A 
ATOM     16  C   UNL     1       2.562   4.279  19.499  0.00  0.00    +0.000 A 
ATOM     17 CL   UNL     1       3.070   5.847  20.006  0.00  0.00    +0.000 Cl
ENDBRANCH   1  10
TORSDOF 2
ENDMDL
MODEL 2
REMARK VINA RESULT:      -7.2      1.915      2.433
REMARK  Name = 
REMARK  3 active torsions:
REMARK  status: ('A' for Active; 'I' for Inactive)
REMARK    1  A    between atoms: C_1  and  C_2
REMARK    2  A    between atoms: N_6  and  C_7
REMARK    3  A    between atoms: C_7  and  C_8
REMARK                            x       y       z     vdW  Elec       q    Type
REMARK                         _______ _______ _______ _____ _____    ______ ____
ROOT
ATOM      1  C   UNL     1       3.277   6.017  17.952  0.00  0.00    +0.000 C 
ENDROOT
BRANCH   1   7
ATOM      2  C   UNL     1       7.370   4.928  15.336  0.00  0.00    +0.000 C 
ATOM      3  C   UNL     1       6.769   5.195  16.680  0.00  0.00    +0.000 A 
ATOM      4  C   UNL     1       7.372   4.922  17.847  0.00  0.00    +0.000 A 
ATOM      5  C   UNL     1       6.682   5.112  19.096  0.00  0.00    +0.000 A 
ATOM      6  C   UNL     1       5.387   5.446  19.098  0.00  0.00    +0.000 A 
ATOM      7  N   UNL     1       4.711   5.713  17.918  0.00  0.00    +0.000 N 
ATOM      8  C   UNL     1       5.376   5.753  16.690  0.00  0.00    +0.000 A 
ATOM      9  O   UNL     1       4.893   6.187  15.650  0.00  0.00    +0.000 OA
ENDBRANCH   1   7
BRANCH   1  10
ATOM     10  C   UNL     1       2.451   4.888  18.530  0.00  0.00    +0.000 A 
ATOM     11  C   UNL     1       2.377   3.676  17.829  0.00  0.00    +0.000 A 
ATOM     12  F   UNL     1       3.067   3.522  16.688  0.00  0.00    +0.000 F 
ATOM     13  C   UNL     1       1.617   2.598  18.282  0.00  0.00    +0.000 A 
ATOM     14  C   UNL     1       0.894   2.710  19.465  0.00  0.00    +0.000 A 
ATOM     15  C   UNL     1       0.953   3.898  20.186  0.00  0.00    +0.000 A 
ATOM     16  C   UNL     1       1.729   4.975  19.731  0.00  0.00    +0.000 A 
ATOM     17 CL   UNL     1       1.771   6.364  20.753  0.00  0.00    +0.000 Cl
ENDBRANCH   1  10
TORSDOF 2
ENDMDL
MODEL 3
REMARK VINA RESULT:      -7.2      1.809      2.147
REMARK  Name = 
REMARK  3 active torsions:
REMARK  status: ('A' for Active; 'I' for Inactive)
REMARK    1  A    between atoms: C_1  and  C_2
REMARK    2  A    between atoms: N_6  and  C_7
REMARK    3  A    between atoms: C_7  and  C_8
REMARK                            x       y       z     vdW  Elec       q    Type
REMARK                         _______ _______ _______ _____ _____    ______ ____
ROOT
ATOM      1  C   UNL     1       5.023   3.706  19.452  0.00  0.00    +0.000 C 
ENDROOT
BRANCH   1   7
ATOM      2  C   UNL     1       7.625   7.550  17.653  0.00  0.00    +0.000 C 
ATOM      3  C   UNL     1       6.716   6.399  17.360  0.00  0.00    +0.000 A 
ATOM      4  C   UNL     1       6.057   6.228  16.203  0.00  0.00    +0.000 A 
ATOM      5  C   UNL     1       5.120   5.148  16.041  0.00  0.00    +0.000 A 
ATOM      6  C   UNL     1       4.803   4.377  17.087  0.00  0.00    +0.000 A 
ATOM      7  N   UNL     1       5.437   4.528  18.311  0.00  0.00    +0.000 N 
ATOM      8  C   UNL     1       6.503   5.416  18.474  0.00  0.00    +0.000 A 
ATOM      9  O   UNL     1       7.239   5.447  19.454  0.00  0.00    +0.000 OA
ENDBRANCH   1   7
BRANCH   1  10
ATOM     10  C   UNL     1       3.526   3.492  19.510  0.00  0.00    +0.000 A 
ATOM     11  C   UNL     1       2.716   4.513  20.026  0.00  0.00    +0.000 A 
ATOM     12  F   UNL     1       3.269   5.671  20.418  0.00  0.00    +0.000 F 
ATOM     13  C   UNL     1       1.331   4.382  20.136  0.00  0.00    +0.000 A 
ATOM     14  C   UNL     1       0.714   3.204  19.732  0.00  0.00    +0.000 A 
ATOM     15  C   UNL     1       1.491   2.175  19.210  0.00  0.00    +0.000 A 
ATOM     16  C   UNL     1       2.881   2.317  19.090  0.00  0.00    +0.000 A 
ATOM     17 CL   UNL     1       3.719   0.995  18.364  0.00  0.00    +0.000 Cl
ENDBRANCH   1  10
TORSDOF 2
ENDMDL
MODEL 4
REMARK VINA RESULT:      -7.1      2.686      3.365
REMARK  Name = 
REMARK  3 active torsions:
REMARK  status: ('A' for Active; 'I' for Inactive)
REMARK    1  A    between atoms: C_1  and  C_2
REMARK    2  A    between atoms: N_6  and  C_7
REMARK    3  A    between atoms: C_7  and  C_8
REMARK                            x       y       z     vdW  Elec       q    Type
REMARK                         _______ _______ _______ _____ _____    ______ ____
ROOT
ATOM      1  C   UNL     1       3.638   6.504  17.746  0.00  0.00    +0.000 C 
ENDROOT
BRANCH   1   7
ATOM      2  C   UNL     1       7.197   4.854  14.681  0.00  0.00    +0.000 C 
ATOM      3  C   UNL     1       6.777   5.124  16.091  0.00  0.00    +0.000 A 
ATOM      4  C   UNL     1       7.409   4.648  17.175  0.00  0.00    +0.000 A 
ATOM      5  C   UNL     1       6.877   4.869  18.494  0.00  0.00    +0.000 A 
ATOM      6  C   UNL     1       5.679   5.445  18.643  0.00  0.00    +0.000 A 
ATOM      7  N   UNL     1       4.974   5.932  17.554  0.00  0.00    +0.000 N 
ATOM      8  C   UNL     1       5.529   5.939  16.272  0.00  0.00    +0.000 A 
ATOM      9  O   UNL     1       5.058   6.539  15.312  0.00  0.00    +0.000 OA
ENDBRANCH   1   7
BRANCH   1  10
ATOM     10  C   UNL     1       2.758   5.654  18.638  0.00  0.00    +0.000 A 
ATOM     11  C   UNL     1       2.261   6.210  19.825  0.00  0.00    +0.000 A 
ATOM     12  F   UNL     1       2.534   7.488  20.130  0.00  0.00    +0.000 F 
ATOM     13  C   UNL     1       1.465   5.484  20.712  0.00  0.00    +0.000 A 
ATOM     14  C   UNL     1       1.148   4.160  20.431  0.00  0.00    +0.000 A 
ATOM     15  C   UNL     1       1.622   3.583  19.257  0.00  0.00    +0.000 A 
ATOM     16  C   UNL     1       2.412   4.322  18.363  0.00  0.00    +0.000 A 
ATOM     17 CL   UNL     1       2.876   3.511  16.914  0.00  0.00    +0.000 Cl
ENDBRANCH   1  10
TORSDOF 2
ENDMDL
MODEL 5
REMARK VINA RESULT:      -7.1      1.441      1.625
REMARK  Name = 
REMARK  3 active torsions:
REMARK  status: ('A' for Active; 'I' for Inactive)
REMARK    1  A    between atoms: C_1  and  C_2
REMARK    2  A    between atoms: N_6  and  C_7
REMARK    3  A    between atoms: C_7  and  C_8
REMARK                            x       y       z     vdW  Elec       q    Type
REMARK                         _______ _______ _______ _____ _____    ______ ____
ROOT
ATOM      1  C   UNL     1       3.159   5.269  17.630  0.00  0.00    +0.000 C 
ENDROOT
BRANCH   1   7
ATOM      2  C   UNL     1       7.856   5.713  19.220  0.00  0.00    +0.000 C 
ATOM      3  C   UNL     1       6.919   5.132  18.208  0.00  0.00    +0.000 A 
ATOM      4  C   UNL     1       7.304   4.593  17.041  0.00  0.00    +0.000 A 
ATOM      5  C   UNL     1       6.331   4.152  16.076  0.00  0.00    +0.000 A 
ATOM      6  C   UNL     1       5.031   4.390  16.283  0.00  0.00    +0.000 A 
ATOM      7  N   UNL     1       4.584   4.968  17.461  0.00  0.00    +0.000 N 
ATOM      8  C   UNL     1       5.454   5.225  18.522  0.00  0.00    +0.000 A 
ATOM      9  O   UNL     1       5.100   5.530  19.656  0.00  0.00    +0.000 OA
ENDBRANCH   1   7
BRANCH   1  10
ATOM     10  C   UNL     1       2.491   4.391  18.666  0.00  0.00    +0.000 A 
ATOM     11  C   UNL     1       2.415   3.010  18.435  0.00  0.00    +0.000 A 
ATOM     12  F   UNL     1       2.967   2.486  17.329  0.00  0.00    +0.000 F 
ATOM     13  C   UNL     1       1.793   2.138  19.329  0.00  0.00    +0.000 A 
ATOM     14  C   UNL     1       1.218   2.635  20.493  0.00  0.00    +0.000 A 
ATOM     15  C   UNL     1       1.283   4.000  20.753  0.00  0.00    +0.000 A 
ATOM     16  C   UNL     1       1.920   4.871  19.856  0.00  0.00    +0.000 A 
ATOM     17 CL   UNL     1       1.992   6.528  20.329  0.00  0.00    +0.000 Cl
ENDBRANCH   1  10
TORSDOF 2
ENDMDL
MODEL 6
REMARK VINA RESULT:      -7.0      2.225      2.615
REMARK  Name = 
REMARK  3 active torsions:
REMARK  status: ('A' for Active; 'I' for Inactive)
REMARK    1  A    between atoms: C_1  and  C_2
REMARK    2  A    between atoms: N_6  and  C_7
REMARK    3  A    between atoms: C_7  and  C_8
REMARK                            x       y       z     vdW  Elec       q    Type
REMARK                         _______ _______ _______ _____ _____    ______ ____
ROOT
ATOM      1  C   UNL     1       3.140   5.273  17.777  0.00  0.00    +0.000 C 
ENDROOT
BRANCH   1   7
ATOM      2  C   UNL     1       7.916   5.715  19.113  0.00  0.00    +0.000 C 
ATOM      3  C   UNL     1       6.925   5.125  18.160  0.00  0.00    +0.000 A 
ATOM      4  C   UNL     1       7.246   4.567  16.983  0.00  0.00    +0.000 A 
ATOM      5  C   UNL     1       6.221   4.116  16.077  0.00  0.00    +0.000 A 
ATOM      6  C   UNL     1       4.935   4.364  16.348  0.00  0.00    +0.000 A 
ATOM      7  N   UNL     1       4.553   4.961  17.539  0.00  0.00    +0.000 N 
ATOM      8  C   UNL     1       5.479   5.230  18.549  0.00  0.00    +0.000 A 
ATOM      9  O   UNL     1       5.186   5.553  19.695  0.00  0.00    +0.000 OA
ENDBRANCH   1   7
BRANCH   1  10
ATOM     10  C   UNL     1       2.510   4.377  18.823  0.00  0.00    +0.000 A 
ATOM     11  C   UNL     1       2.098   4.942  20.038  0.00  0.00    +0.000 A 
ATOM     12  F   UNL     1       2.229   6.263  20.239  0.00  0.00    +0.000 F 
ATOM     13  C   UNL     1       1.532   4.180  21.061  0.00  0.00    +0.000 A 
ATOM     14  C   UNL     1       1.367   2.810  20.891  0.00  0.00    +0.000 A 
ATOM     15  C   UNL     1       1.760   2.222  19.693  0.00  0.00    +0.000 A 
ATOM     16  C   UNL     1       2.318   2.995  18.664  0.00  0.00    +0.000 A 
ATOM     17 CL   UNL     1       2.698   2.156  17.206  0.00  0.00    +0.000 Cl
ENDBRANCH   1  10
TORSDOF 2
ENDMDL
MODEL 7
REMARK VINA RESULT:      -6.9      1.885      2.397
REMARK  Name = 
REMARK  3 active torsions:
REMARK  status: ('A' for Active; 'I' for Inactive)
REMARK    1  A    between atoms: C_1  and  C_2
REMARK    2  A    between atoms: N_6  and  C_7
REMARK    3  A    between atoms: C_7  and  C_8
REMARK                            x       y       z     vdW  Elec       q    Type
REMARK                         _______ _______ _______ _____ _____    ______ ____
ROOT
ATOM      1  C   UNL     1       4.091   2.783  18.087  0.00  0.00    +0.000 C 
ENDROOT
BRANCH   1   7
ATOM      2  C   UNL     1       7.176   5.339  15.131  0.00  0.00    +0.000 C 
ATOM      3  C   UNL     1       6.567   5.195  16.490  0.00  0.00    +0.000 A 
ATOM      4  C   UNL     1       7.017   5.813  17.592  0.00  0.00    +0.000 A 
ATOM      5  C   UNL     1       6.437   5.538  18.880  0.00  0.00    +0.000 A 
ATOM      6  C   UNL     1       5.526   4.568  19.008  0.00  0.00    +0.000 A 
ATOM      7  N   UNL     1       5.046   3.881  17.904  0.00  0.00    +0.000 N 
ATOM      8  C   UNL     1       5.411   4.244  16.606  0.00  0.00    +0.000 A 
ATOM      9  O   UNL     1       4.868   3.828  15.588  0.00  0.00    +0.000 OA
ENDBRANCH   1   7
BRANCH   1  10
ATOM     10  C   UNL     1       3.102   3.044  19.203  0.00  0.00    +0.000 A 
ATOM     11  C   UNL     1       3.382   2.548  20.484  0.00  0.00    +0.000 A 
ATOM     12  F   UNL     1       4.531   1.892  20.710  0.00  0.00    +0.000 F 
ATOM     13  C   UNL     1       2.510   2.724  21.558  0.00  0.00    +0.000 A 
ATOM     14  C   UNL     1       1.313   3.408  21.373  0.00  0.00    +0.000 A 
ATOM     15  C   UNL     1       1.011   3.918  20.114  0.00  0.00    +0.000 A 
ATOM     16  C   UNL     1       1.898   3.748  19.040  0.00  0.00    +0.000 A 
ATOM     17 CL   UNL     1       1.437   4.487  17.552  0.00  0.00    +0.000 Cl
ENDBRANCH   1  10
TORSDOF 2
ENDMDL
MODEL 8
REMARK VINA RESULT:      -6.9      2.419      5.557
REMARK  Name = 
REMARK  3 active torsions:
REMARK  status: ('A' for Active; 'I' for Inactive)
REMARK    1  A    between atoms: C_1  and  C_2
REMARK    2  A    between atoms: N_6  and  C_7
REMARK    3  A    between atoms: C_7  and  C_8
REMARK                            x       y       z     vdW  Elec       q    Type
REMARK                         _______ _______ _______ _____ _____    ______ ____
ROOT
ATOM      1  C   UNL     1       4.389   4.630  17.756  0.00  0.00    +0.000 C 
ENDROOT
BRANCH   1   7
ATOM      2  C   UNL     1       1.330   2.810  21.236  0.00  0.00    +0.000 C 
ATOM      3  C   UNL     1       1.938   4.022  20.605  0.00  0.00    +0.000 A 
ATOM      4  C   UNL     1       1.495   5.276  20.788  0.00  0.00    +0.000 A 
ATOM      5  C   UNL     1       2.071   6.375  20.060  0.00  0.00    +0.000 A 
ATOM      6  C   UNL     1       2.973   6.140  19.100  0.00  0.00    +0.000 A 
ATOM      7  N   UNL     1       3.446   4.861  18.855  0.00  0.00    +0.000 N 
ATOM      8  C   UNL     1       3.084   3.782  19.666  0.00  0.00    +0.000 A 
ATOM      9  O   UNL     1       3.622   2.681  19.641  0.00  0.00    +0.000 OA
ENDBRANCH   1   7
BRANCH   1  10
ATOM     10  C   UNL     1       5.624   5.501  17.850  0.00  0.00    +0.000 A 
ATOM     11  C   UNL     1       6.521   5.291  18.907  0.00  0.00    +0.000 A 
ATOM     12  F   UNL     1       6.295   4.304  19.788  0.00  0.00    +0.000 F 
ATOM     13  C   UNL     1       7.667   6.067  19.077  0.00  0.00    +0.000 A 
ATOM     14  C   UNL     1       7.946   7.094  18.182  0.00  0.00    +0.000 A 
ATOM     15  C   UNL     1       7.078   7.322  17.119  0.00  0.00    +0.000 A 
ATOM     16  C   UNL     1       5.933   6.530  16.946  0.00  0.00    +0.000 A 
ATOM     17 CL   UNL     1       4.978   6.872  15.551  0.00  0.00    +0.000 Cl
ENDBRANCH   1  10
TORSDOF 2
ENDMDL
MODEL 9
REMARK VINA RESULT:      -6.9      2.629      5.442
REMARK  Name = 
REMARK  3 active torsions:
REMARK  status: ('A' for Active; 'I' for Inactive)
REMARK    1  A    between atoms: C_1  and  C_2
REMARK    2  A    between atoms: N_6  and  C_7
REMARK    3  A    between atoms: C_7  and  C_8
REMARK                            x       y       z     vdW  Elec       q    Type
REMARK                         _______ _______ _______ _____ _____    ______ ____
ROOT
ATOM      1  C   UNL     1       3.580   5.355  17.550  0.00  0.00    +0.000 C 
ENDROOT
BRANCH   1   7
ATOM      2  C   UNL     1       1.262   3.179  21.382  0.00  0.00    +0.000 C 
ATOM      3  C   UNL     1       1.657   3.101  19.941  0.00  0.00    +0.000 A 
ATOM      4  C   UNL     1       1.610   1.982  19.202  0.00  0.00    +0.000 A 
ATOM      5  C   UNL     1       2.107   1.969  17.851  0.00  0.00    +0.000 A 
ATOM      6  C   UNL     1       2.735   3.043  17.361  0.00  0.00    +0.000 A 
ATOM      7  N   UNL     1       2.833   4.216  18.093  0.00  0.00    +0.000 N 
ATOM      8  C   UNL     1       2.189   4.362  19.324  0.00  0.00    +0.000 A 
ATOM      9  O   UNL     1       2.054   5.426  19.918  0.00  0.00    +0.000 OA
ENDBRANCH   1   7
BRANCH   1  10
ATOM     10  C   UNL     1       5.080   5.157  17.614  0.00  0.00    +0.000 A 
ATOM     11  C   UNL     1       5.743   5.405  18.824  0.00  0.00    +0.000 A 
ATOM     12  F   UNL     1       5.041   5.770  19.909  0.00  0.00    +0.000 F 
ATOM     13  C   UNL     1       7.125   5.271  18.957  0.00  0.00    +0.000 A 
ATOM     14  C   UNL     1       7.891   4.885  17.863  0.00  0.00    +0.000 A 
ATOM     15  C   UNL     1       7.260   4.626  16.651  0.00  0.00    +0.000 A 
ATOM     16  C   UNL     1       5.868   4.751  16.526  0.00  0.00    +0.000 A 
ATOM     17 CL   UNL     1       5.204   4.334  14.990  0.00  0.00    +0.000 Cl
ENDBRANCH   1  10
TORSDOF 2
ENDMDL
