MODEL 1
REMARK VINA RESULT:      -6.1      0.000      0.000
REMARK  Name = 
REMARK  6 active torsions:
REMARK  status: ('A' for Active; 'I' for Inactive)
REMARK    1  A    between atoms: C_1  and  O_2
REMARK    2  A    between atoms: O_2  and  C_3
REMARK    3  A    between atoms: C_3  and  C_5
REMARK    4  A    between atoms: C_9  and  N_10
REMARK    5  A    between atoms: C_11  and  C_13
REMARK    6  A    between atoms: C_13  and  C_14
REMARK                            x       y       z     vdW  Elec       q    Type
REMARK                         _______ _______ _______ _____ _____    ______ ____
ROOT
ATOM      1  N   UNL     1       2.465   6.606  20.461  0.00  0.00    +0.000 N 
ATOM      2  C   UNL     1       1.958   5.319  20.513  0.00  0.00    +0.000 C 
ATOM      3  O   UNL     1       0.768   5.010  20.530  0.00  0.00    +0.000 OA
ATOM      4  H   UNL     1       3.450   6.739  20.249  0.00  0.00    +0.000 HD
ENDROOT
BRANCH   1   9
ATOM      5  C   UNL     1       1.544   8.655  19.449  0.00  0.00    +0.000 A 
ATOM      6  S   UNL     1       0.499   9.967  19.861  0.00  0.00    +0.000 S 
ATOM      7  C   UNL     1       0.222   9.360  21.421  0.00  0.00    +0.000 A 
ATOM      8  C   UNL     1       0.919   8.197  21.644  0.00  0.00    +0.000 A 
ATOM      9  C   UNL     1       1.681   7.765  20.509  0.00  0.00    +0.000 A 
BRANCH   5  10
ATOM     10  C   UNL     1       2.072   8.652  18.092  0.00  0.00    +0.000 C 
ATOM     11  O   UNL     1       2.065   9.595  17.313  0.00  0.00    +0.000 OA
BRANCH  10  13
ATOM     12  C   UNL     1       3.944   7.480  17.339  0.00  0.00    +0.000 C 
ATOM     13  O   UNL     1       2.583   7.419  17.774  0.00  0.00    +0.000 OA
ENDBRANCH  10  13
ENDBRANCH   5  10
ENDBRANCH   1   9
BRANCH   2  14
ATOM     14  C   UNL     1       3.024   4.238  20.526  0.00  0.00    +0.000 C 
BRANCH  14  15
ATOM     15  C   UNL     1       3.789   4.128  19.232  0.00  0.00    +0.000 A 
ATOM     16  C   UNL     1       3.129   3.779  18.046  0.00  0.00    +0.000 A 
ATOM     17  C   UNL     1       3.820   3.750  16.834  0.00  0.00    +0.000 A 
ATOM     18  C   UNL     1       5.177   4.069  16.801  0.00  0.00    +0.000 A 
ATOM     19 BR   UNL     1       6.098   4.074  15.151  0.00  0.00    +0.000 Br
ATOM     20  C   UNL     1       5.852   4.400  17.973  0.00  0.00    +0.000 A 
ATOM     21  C   UNL     1       5.159   4.430  19.185  0.00  0.00    +0.000 A 
ENDBRANCH  14  15
ENDBRANCH   2  14
TORSDOF 5
ENDMDL
MODEL 2
REMARK VINA RESULT:      -6.0      3.203      4.808
REMARK  Name = 
REMARK  6 active torsions:
REMARK  status: ('A' for Active; 'I' for Inactive)
REMARK    1  A    between atoms: C_1  and  O_2
REMARK    2  A    between atoms: O_2  and  C_3
REMARK    3  A    between atoms: C_3  and  C_5
REMARK    4  A    between atoms: C_9  and  N_10
REMARK    5  A    between atoms: C_11  and  C_13
REMARK    6  A    between atoms: C_13  and  C_14
REMARK                            x       y       z     vdW  Elec       q    Type
REMARK                         _______ _______ _______ _____ _____    ______ ____
ROOT
ATOM      1  N   UNL     1       4.832   5.487  18.380  0.00  0.00    +0.000 N 
ATOM      2  C   UNL     1       6.150   5.388  18.791  0.00  0.00    +0.000 C 
ATOM      3  O   UNL     1       6.537   5.093  19.921  0.00  0.00    +0.000 OA
ATOM      4  H   UNL     1       4.629   5.538  17.385  0.00  0.00    +0.000 HD
ENDROOT
BRANCH   1   9
ATOM      5  C   UNL     1       3.296   4.130  19.749  0.00  0.00    +0.000 A 
ATOM      6  S   UNL     1       1.912   4.334  20.761  0.00  0.00    +0.000 S 
ATOM      7  C   UNL     1       1.891   6.015  20.526  0.00  0.00    +0.000 A 
ATOM      8  C   UNL     1       2.896   6.422  19.683  0.00  0.00    +0.000 A 
ATOM      9  C   UNL     1       3.729   5.347  19.231  0.00  0.00    +0.000 A 
BRANCH   5  10
ATOM     10  C   UNL     1       3.812   2.774  19.625  0.00  0.00    +0.000 C 
ATOM     11  O   UNL     1       4.935   2.399  19.935  0.00  0.00    +0.000 OA
BRANCH  10  13
ATOM     12  C   UNL     1       2.662   2.158  17.690  0.00  0.00    +0.000 C 
ATOM     13  O   UNL     1       2.863   1.941  19.090  0.00  0.00    +0.000 OA
ENDBRANCH  10  13
ENDBRANCH   5  10
ENDBRANCH   1   9
BRANCH   2  14
ATOM     14  C   UNL     1       7.160   5.661  17.690  0.00  0.00    +0.000 C 
BRANCH  14  15
ATOM     15  C   UNL     1       6.764   5.090  16.353  0.00  0.00    +0.000 A 
ATOM     16  C   UNL     1       7.350   5.571  15.175  0.00  0.00    +0.000 A 
ATOM     17  C   UNL     1       7.041   4.994  13.943  0.00  0.00    +0.000 A 
ATOM     18  C   UNL     1       6.141   3.931  13.881  0.00  0.00    +0.000 A 
ATOM     19 BR   UNL     1       5.761   3.120  12.217  0.00  0.00    +0.000 Br
ATOM     20  C   UNL     1       5.535   3.452  15.039  0.00  0.00    +0.000 A 
ATOM     21  C   UNL     1       5.847   4.030  16.272  0.00  0.00    +0.000 A 
ENDBRANCH  14  15
ENDBRANCH   2  14
TORSDOF 5
ENDMDL
MODEL 3
REMARK VINA RESULT:      -6.0      3.270      5.176
REMARK  Name = 
REMARK  6 active torsions:
REMARK  status: ('A' for Active; 'I' for Inactive)
REMARK    1  A    between atoms: C_1  and  O_2
REMARK    2  A    between atoms: O_2  and  C_3
REMARK    3  A    between atoms: C_3  and  C_5
REMARK    4  A    between atoms: C_9  and  N_10
REMARK    5  A    between atoms: C_11  and  C_13
REMARK    6  A    between atoms: C_13  and  C_14
REMARK                            x       y       z     vdW  Elec       q    Type
REMARK                         _______ _______ _______ _____ _____    ______ ____
ROOT
ATOM      1  N   UNL     1       4.652   3.517  18.398  0.00  0.00    +0.000 N 
ATOM      2  C   UNL     1       5.075   3.965  17.158  0.00  0.00    +0.000 C 
ATOM      3  O   UNL     1       4.354   4.236  16.200  0.00  0.00    +0.000 OA
ATOM      4  H   UNL     1       5.310   3.518  19.172  0.00  0.00    +0.000 HD
ENDROOT
BRANCH   1   9
ATOM      5  C   UNL     1       2.482   4.070  19.427  0.00  0.00    +0.000 A 
ATOM      6  S   UNL     1       0.912   3.380  19.630  0.00  0.00    +0.000 S 
ATOM      7  C   UNL     1       1.334   1.974  18.777  0.00  0.00    +0.000 A 
ATOM      8  C   UNL     1       2.642   2.007  18.360  0.00  0.00    +0.000 A 
ATOM      9  C   UNL     1       3.322   3.218  18.714  0.00  0.00    +0.000 A 
BRANCH   5  10
ATOM     10  C   UNL     1       2.676   5.407  19.970  0.00  0.00    +0.000 C 
ATOM     11  O   UNL     1       2.066   5.898  20.911  0.00  0.00    +0.000 OA
BRANCH  10  13
ATOM     12  C   UNL     1       3.109   6.899  18.228  0.00  0.00    +0.000 C 
ATOM     13  O   UNL     1       3.646   6.079  19.271  0.00  0.00    +0.000 OA
ENDBRANCH  10  13
ENDBRANCH   5  10
ENDBRANCH   1   9
BRANCH   2  14
ATOM     14  C   UNL     1       6.580   4.137  17.047  0.00  0.00    +0.000 C 
BRANCH  14  15
ATOM     15  C   UNL     1       7.068   5.491  17.497  0.00  0.00    +0.000 A 
ATOM     16  C   UNL     1       7.800   5.621  18.685  0.00  0.00    +0.000 A 
ATOM     17  C   UNL     1       8.317   6.861  19.065  0.00  0.00    +0.000 A 
ATOM     18  C   UNL     1       8.103   7.979  18.259  0.00  0.00    +0.000 A 
ATOM     19 BR   UNL     1       8.845   9.645  18.753  0.00  0.00    +0.000 Br
ATOM     20  C   UNL     1       7.362   7.870  17.086  0.00  0.00    +0.000 A 
ATOM     21  C   UNL     1       6.847   6.629  16.705  0.00  0.00    +0.000 A 
ENDBRANCH  14  15
ENDBRANCH   2  14
TORSDOF 5
ENDMDL
MODEL 4
REMARK VINA RESULT:      -6.0      4.090      6.730
REMARK  Name = 
REMARK  6 active torsions:
REMARK  status: ('A' for Active; 'I' for Inactive)
REMARK    1  A    between atoms: C_1  and  O_2
REMARK    2  A    between atoms: O_2  and  C_3
REMARK    3  A    between atoms: C_3  and  C_5
REMARK    4  A    between atoms: C_9  and  N_10
REMARK    5  A    between atoms: C_11  and  C_13
REMARK    6  A    between atoms: C_13  and  C_14
REMARK                            x       y       z     vdW  Elec       q    Type
REMARK                         _______ _______ _______ _____ _____    ______ ____
ROOT
ATOM      1  N   UNL     1       2.866   6.591  17.905  0.00  0.00    +0.000 N 
ATOM      2  C   UNL     1       2.381   7.621  18.692  0.00  0.00    +0.000 C 
ATOM      3  O   UNL     1       2.139   7.562  19.896  0.00  0.00    +0.000 OA
ATOM      4  H   UNL     1       3.218   6.805  16.976  0.00  0.00    +0.000 HD
ENDROOT
BRANCH   1   9
ATOM      5  C   UNL     1       4.311   4.781  18.747  0.00  0.00    +0.000 A 
ATOM      6  S   UNL     1       4.192   3.135  19.253  0.00  0.00    +0.000 S 
ATOM      7  C   UNL     1       2.519   3.087  18.972  0.00  0.00    +0.000 A 
ATOM      8  C   UNL     1       2.052   4.284  18.485  0.00  0.00    +0.000 A 
ATOM      9  C   UNL     1       3.072   5.283  18.359  0.00  0.00    +0.000 A 
BRANCH   5  10
ATOM     10  C   UNL     1       5.630   5.392  18.839  0.00  0.00    +0.000 C 
ATOM     11  O   UNL     1       6.435   5.235  19.748  0.00  0.00    +0.000 OA
BRANCH  10  13
ATOM     12  C   UNL     1       7.196   6.728  17.740  0.00  0.00    +0.000 C 
ATOM     13  O   UNL     1       5.866   6.201  17.757  0.00  0.00    +0.000 OA
ENDBRANCH  10  13
ENDBRANCH   5  10
ENDBRANCH   1   9
BRANCH   2  14
ATOM     14  C   UNL     1       2.170   8.923  17.940  0.00  0.00    +0.000 C 
BRANCH  14  15
ATOM     15  C   UNL     1       0.999   9.729  18.442  0.00  0.00    +0.000 A 
ATOM     16  C   UNL     1       1.174  10.677  19.459  0.00  0.00    +0.000 A 
ATOM     17  C   UNL     1       0.107  11.475  19.873  0.00  0.00    +0.000 A 
ATOM     18  C   UNL     1      -1.143  11.330  19.274  0.00  0.00    +0.000 A 
ATOM     19 BR   UNL     1      -2.572  12.446  19.805  0.00  0.00    +0.000 Br
ATOM     20  C   UNL     1      -1.338  10.380  18.275  0.00  0.00    +0.000 A 
ATOM     21  C   UNL     1      -0.270   9.583  17.859  0.00  0.00    +0.000 A 
ENDBRANCH  14  15
ENDBRANCH   2  14
TORSDOF 5
ENDMDL
MODEL 5
REMARK VINA RESULT:      -6.0      3.950      6.301
REMARK  Name = 
REMARK  6 active torsions:
REMARK  status: ('A' for Active; 'I' for Inactive)
REMARK    1  A    between atoms: C_1  and  O_2
REMARK    2  A    between atoms: O_2  and  C_3
REMARK    3  A    between atoms: C_3  and  C_5
REMARK    4  A    between atoms: C_9  and  N_10
REMARK    5  A    between atoms: C_11  and  C_13
REMARK    6  A    between atoms: C_13  and  C_14
REMARK                            x       y       z     vdW  Elec       q    Type
REMARK                         _______ _______ _______ _____ _____    ______ ____
ROOT
ATOM      1  N   UNL     1       4.490   5.678  18.457  0.00  0.00    +0.000 N 
ATOM      2  C   UNL     1       3.121   5.531  18.601  0.00  0.00    +0.000 C 
ATOM      3  O   UNL     1       2.371   4.935  17.831  0.00  0.00    +0.000 OA
ATOM      4  H   UNL     1       5.036   6.012  19.247  0.00  0.00    +0.000 HD
ENDROOT
BRANCH   1   9
ATOM      5  C   UNL     1       6.511   5.649  17.046  0.00  0.00    +0.000 A 
ATOM      6  S   UNL     1       7.096   4.895  15.607  0.00  0.00    +0.000 S 
ATOM      7  C   UNL     1       5.658   4.019  15.388  0.00  0.00    +0.000 A 
ATOM      8  C   UNL     1       4.738   4.300  16.368  0.00  0.00    +0.000 A 
ATOM      9  C   UNL     1       5.217   5.233  17.346  0.00  0.00    +0.000 A 
BRANCH   5  10
ATOM     10  C   UNL     1       7.436   6.541  17.730  0.00  0.00    +0.000 C 
ATOM     11  O   UNL     1       7.956   6.342  18.820  0.00  0.00    +0.000 OA
BRANCH  10  13
ATOM     12  C   UNL     1       7.976   8.810  17.800  0.00  0.00    +0.000 C 
ATOM     13  O   UNL     1       7.652   7.675  16.991  0.00  0.00    +0.000 OA
ENDBRANCH  10  13
ENDBRANCH   5  10
ENDBRANCH   1   9
BRANCH   2  14
ATOM     14  C   UNL     1       2.564   6.173  19.860  0.00  0.00    +0.000 C 
BRANCH  14  15
ATOM     15  C   UNL     1       2.036   7.569  19.643  0.00  0.00    +0.000 A 
ATOM     16  C   UNL     1       2.141   8.179  18.386  0.00  0.00    +0.000 A 
ATOM     17  C   UNL     1       1.587   9.441  18.164  0.00  0.00    +0.000 A 
ATOM     18  C   UNL     1       0.926  10.101  19.199  0.00  0.00    +0.000 A 
ATOM     19 BR   UNL     1       0.137  11.788  18.880  0.00  0.00    +0.000 Br
ATOM     20  C   UNL     1       0.829   9.517  20.458  0.00  0.00    +0.000 A 
ATOM     21  C   UNL     1       1.382   8.253  20.680  0.00  0.00    +0.000 A 
ENDBRANCH  14  15
ENDBRANCH   2  14
TORSDOF 5
ENDMDL
MODEL 6
REMARK VINA RESULT:      -6.0      4.068      6.629
REMARK  Name = 
REMARK  6 active torsions:
REMARK  status: ('A' for Active; 'I' for Inactive)
REMARK    1  A    between atoms: C_1  and  O_2
REMARK    2  A    between atoms: O_2  and  C_3
REMARK    3  A    between atoms: C_3  and  C_5
REMARK    4  A    between atoms: C_9  and  N_10
REMARK    5  A    between atoms: C_11  and  C_13
REMARK    6  A    between atoms: C_13  and  C_14
REMARK                            x       y       z     vdW  Elec       q    Type
REMARK                         _______ _______ _______ _____ _____    ______ ____
ROOT
ATOM      1  N   UNL     1       2.894   6.634  17.936  0.00  0.00    +0.000 N 
ATOM      2  C   UNL     1       2.395   7.711  18.649  0.00  0.00    +0.000 C 
ATOM      3  O   UNL     1       2.091   7.714  19.840  0.00  0.00    +0.000 OA
ATOM      4  H   UNL     1       3.298   6.795  17.018  0.00  0.00    +0.000 HD
ENDROOT
BRANCH   1   9
ATOM      5  C   UNL     1       4.260   4.805  18.864  0.00  0.00    +0.000 A 
ATOM      6  S   UNL     1       4.068   3.196  19.462  0.00  0.00    +0.000 S 
ATOM      7  C   UNL     1       2.391   3.215  19.200  0.00  0.00    +0.000 A 
ATOM      8  C   UNL     1       1.977   4.405  18.652  0.00  0.00    +0.000 A 
ATOM      9  C   UNL     1       3.042   5.344  18.461  0.00  0.00    +0.000 A 
BRANCH   5  10
ATOM     10  C   UNL     1       5.608   5.354  18.908  0.00  0.00    +0.000 C 
ATOM     11  O   UNL     1       6.439   5.155  19.784  0.00  0.00    +0.000 OA
BRANCH  10  13
ATOM     12  C   UNL     1       6.810   5.612  16.924  0.00  0.00    +0.000 C 
ATOM     13  O   UNL     1       5.839   6.159  17.822  0.00  0.00    +0.000 OA
ENDBRANCH  10  13
ENDBRANCH   5  10
ENDBRANCH   1   9
BRANCH   2  14
ATOM     14  C   UNL     1       2.258   8.981  17.827  0.00  0.00    +0.000 C 
BRANCH  14  15
ATOM     15  C   UNL     1       1.111   9.859  18.260  0.00  0.00    +0.000 A 
ATOM     16  C   UNL     1      -0.203   9.543  17.890  0.00  0.00    +0.000 A 
ATOM     17  C   UNL     1      -1.272  10.312  18.352  0.00  0.00    +0.000 A 
ATOM     18  C   UNL     1      -1.033  11.403  19.186  0.00  0.00    +0.000 A 
ATOM     19 BR   UNL     1      -2.488  12.412  19.847  0.00  0.00    +0.000 Br
ATOM     20  C   UNL     1       0.267  11.742  19.548  0.00  0.00    +0.000 A 
ATOM     21  C   UNL     1       1.337  10.971  19.087  0.00  0.00    +0.000 A 
ENDBRANCH  14  15
ENDBRANCH   2  14
TORSDOF 5
ENDMDL
MODEL 7
REMARK VINA RESULT:      -5.9      4.015      6.679
REMARK  Name = 
REMARK  6 active torsions:
REMARK  status: ('A' for Active; 'I' for Inactive)
REMARK    1  A    between atoms: C_1  and  O_2
REMARK    2  A    between atoms: O_2  and  C_3
REMARK    3  A    between atoms: C_3  and  C_5
REMARK    4  A    between atoms: C_9  and  N_10
REMARK    5  A    between atoms: C_11  and  C_13
REMARK    6  A    between atoms: C_13  and  C_14
REMARK                            x       y       z     vdW  Elec       q    Type
REMARK                         _______ _______ _______ _____ _____    ______ ____
ROOT
ATOM      1  N   UNL     1       2.644   6.225  17.749  0.00  0.00    +0.000 N 
ATOM      2  C   UNL     1       2.407   7.206  18.696  0.00  0.00    +0.000 C 
ATOM      3  O   UNL     1       2.220   7.024  19.898  0.00  0.00    +0.000 OA
ATOM      4  H   UNL     1       2.982   6.498  16.831  0.00  0.00    +0.000 HD
ENDROOT
BRANCH   1   9
ATOM      5  C   UNL     1       3.750   4.086  18.273  0.00  0.00    +0.000 A 
ATOM      6  S   UNL     1       3.342   2.433  18.561  0.00  0.00    +0.000 S 
ATOM      7  C   UNL     1       1.682   2.726  18.357  0.00  0.00    +0.000 A 
ATOM      8  C   UNL     1       1.433   4.043  18.056  0.00  0.00    +0.000 A 
ATOM      9  C   UNL     1       2.616   4.850  18.015  0.00  0.00    +0.000 A 
BRANCH   5  10
ATOM     10  C   UNL     1       5.160   4.431  18.381  0.00  0.00    +0.000 C 
ATOM     11  O   UNL     1       5.894   4.181  19.329  0.00  0.00    +0.000 OA
BRANCH  10  13
ATOM     12  C   UNL     1       5.846   4.234  16.159  0.00  0.00    +0.000 C 
ATOM     13  O   UNL     1       5.581   5.105  17.263  0.00  0.00    +0.000 OA
ENDBRANCH  10  13
ENDBRANCH   5  10
ENDBRANCH   1   9
BRANCH   2  14
ATOM     14  C   UNL     1       2.414   8.617  18.135  0.00  0.00    +0.000 C 
BRANCH  14  15
ATOM     15  C   UNL     1       1.203   9.427  18.521  0.00  0.00    +0.000 A 
ATOM     16  C   UNL     1       1.227  10.237  19.664  0.00  0.00    +0.000 A 
ATOM     17  C   UNL     1       0.133  11.044  19.982  0.00  0.00    +0.000 A 
ATOM     18  C   UNL     1      -0.992  11.045  19.159  0.00  0.00    +0.000 A 
ATOM     19 BR   UNL     1      -2.450  12.175  19.567  0.00  0.00    +0.000 Br
ATOM     20  C   UNL     1      -1.039  10.232  18.030  0.00  0.00    +0.000 A 
ATOM     21  C   UNL     1       0.056   9.426  17.711  0.00  0.00    +0.000 A 
ENDBRANCH  14  15
ENDBRANCH   2  14
TORSDOF 5
ENDMDL
MODEL 8
REMARK VINA RESULT:      -5.9      3.211      4.714
REMARK  Name = 
REMARK  6 active torsions:
REMARK  status: ('A' for Active; 'I' for Inactive)
REMARK    1  A    between atoms: C_1  and  O_2
REMARK    2  A    between atoms: O_2  and  C_3
REMARK    3  A    between atoms: C_3  and  C_5
REMARK    4  A    between atoms: C_9  and  N_10
REMARK    5  A    between atoms: C_11  and  C_13
REMARK    6  A    between atoms: C_13  and  C_14
REMARK                            x       y       z     vdW  Elec       q    Type
REMARK                         _______ _______ _______ _____ _____    ______ ____
ROOT
ATOM      1  N   UNL     1       4.643   5.594  18.437  0.00  0.00    +0.000 N 
ATOM      2  C   UNL     1       5.984   5.518  18.774  0.00  0.00    +0.000 C 
ATOM      3  O   UNL     1       6.440   5.148  19.855  0.00  0.00    +0.000 OA
ATOM      4  H   UNL     1       4.387   5.717  17.461  0.00  0.00    +0.000 HD
ENDROOT
BRANCH   1   9
ATOM      5  C   UNL     1       3.261   4.071  19.795  0.00  0.00    +0.000 A 
ATOM      6  S   UNL     1       1.915   4.133  20.876  0.00  0.00    +0.000 S 
ATOM      7  C   UNL     1       1.778   5.819  20.734  0.00  0.00    +0.000 A 
ATOM      8  C   UNL     1       2.715   6.333  19.872  0.00  0.00    +0.000 A 
ATOM      9  C   UNL     1       3.592   5.339  19.326  0.00  0.00    +0.000 A 
BRANCH   5  10
ATOM     10  C   UNL     1       3.854   2.760  19.576  0.00  0.00    +0.000 C 
ATOM     11  O   UNL     1       5.009   2.440  19.826  0.00  0.00    +0.000 OA
BRANCH  10  13
ATOM     12  C   UNL     1       2.661   2.194  17.652  0.00  0.00    +0.000 C 
ATOM     13  O   UNL     1       2.939   1.900  19.025  0.00  0.00    +0.000 OA
ENDBRANCH  10  13
ENDBRANCH   5  10
ENDBRANCH   1   9
BRANCH   2  14
ATOM     14  C   UNL     1       6.924   5.922  17.652  0.00  0.00    +0.000 C 
BRANCH  14  15
ATOM     15  C   UNL     1       6.661   5.200  16.355  0.00  0.00    +0.000 A 
ATOM     16  C   UNL     1       5.575   4.321  16.240  0.00  0.00    +0.000 A 
ATOM     17  C   UNL     1       5.286   3.710  15.019  0.00  0.00    +0.000 A 
ATOM     18  C   UNL     1       6.081   3.973  13.905  0.00  0.00    +0.000 A 
ATOM     19 BR   UNL     1       5.657   3.181  12.243  0.00  0.00    +0.000 Br
ATOM     20  C   UNL     1       7.174   4.830  14.006  0.00  0.00    +0.000 A 
ATOM     21  C   UNL     1       7.462   5.442  15.228  0.00  0.00    +0.000 A 
ENDBRANCH  14  15
ENDBRANCH   2  14
TORSDOF 5
ENDMDL
MODEL 9
REMARK VINA RESULT:      -5.9      3.931      6.331
REMARK  Name = 
REMARK  6 active torsions:
REMARK  status: ('A' for Active; 'I' for Inactive)
REMARK    1  A    between atoms: C_1  and  O_2
REMARK    2  A    between atoms: O_2  and  C_3
REMARK    3  A    between atoms: C_3  and  C_5
REMARK    4  A    between atoms: C_9  and  N_10
REMARK    5  A    between atoms: C_11  and  C_13
REMARK    6  A    between atoms: C_13  and  C_14
REMARK                            x       y       z     vdW  Elec       q    Type
REMARK                         _______ _______ _______ _____ _____    ______ ____
ROOT
ATOM      1  N   UNL     1       4.454   5.645  18.564  0.00  0.00    +0.000 N 
ATOM      2  C   UNL     1       3.070   5.651  18.599  0.00  0.00    +0.000 C 
ATOM      3  O   UNL     1       2.321   5.170  17.750  0.00  0.00    +0.000 OA
ATOM      4  H   UNL     1       4.969   5.887  19.406  0.00  0.00    +0.000 HD
ENDROOT
BRANCH   1   9
ATOM      5  C   UNL     1       6.485   5.621  17.168  0.00  0.00    +0.000 A 
ATOM      6  S   UNL     1       7.121   4.795  15.791  0.00  0.00    +0.000 S 
ATOM      7  C   UNL     1       5.734   3.830  15.630  0.00  0.00    +0.000 A 
ATOM      8  C   UNL     1       4.792   4.133  16.584  0.00  0.00    +0.000 A 
ATOM      9  C   UNL     1       5.212   5.159  17.492  0.00  0.00    +0.000 A 
BRANCH   5  10
ATOM     10  C   UNL     1       7.356   6.608  17.789  0.00  0.00    +0.000 C 
ATOM     11  O   UNL     1       8.005   6.453  18.815  0.00  0.00    +0.000 OA
BRANCH  10  13
ATOM     12  C   UNL     1       7.991   8.854  17.764  0.00  0.00    +0.000 C 
ATOM     13  O   UNL     1       7.353   7.776  17.071  0.00  0.00    +0.000 OA
ENDBRANCH  10  13
ENDBRANCH   5  10
ENDBRANCH   1   9
BRANCH   2  14
ATOM     14  C   UNL     1       2.490   6.307  19.839  0.00  0.00    +0.000 C 
BRANCH  14  15
ATOM     15  C   UNL     1       1.945   7.691  19.590  0.00  0.00    +0.000 A 
ATOM     16  C   UNL     1       1.288   8.388  20.613  0.00  0.00    +0.000 A 
ATOM     17  C   UNL     1       0.849   9.697  20.408  0.00  0.00    +0.000 A 
ATOM     18  C   UNL     1       1.065  10.317  19.178  0.00  0.00    +0.000 A 
ATOM     19 BR   UNL     1       0.513  12.106  18.921  0.00  0.00    +0.000 Br
ATOM     20  C   UNL     1       1.700   9.633  18.146  0.00  0.00    +0.000 A 
ATOM     21  C   UNL     1       2.140   8.323  18.352  0.00  0.00    +0.000 A 
ENDBRANCH  14  15
ENDBRANCH   2  14
TORSDOF 5
ENDMDL
