MODEL 1
REMARK VINA RESULT:      -9.0      0.000      0.000
REMARK  Name = 
REMARK  6 active torsions:
REMARK  status: ('A' for Active; 'I' for Inactive)
REMARK    1  A    between atoms: C_1  and  O_2
REMARK    2  A    between atoms: O_2  and  C_3
REMARK    3  A    between atoms: C_5  and  C_6
REMARK    4  A    between atoms: C_9  and  C_10
REMARK    5  A    between atoms: C_16  and  S_17
REMARK    6  A    between atoms: S_17  and  N_20
REMARK                            x       y       z     vdW  Elec       q    Type
REMARK                         _______ _______ _______ _____ _____    ______ ____
ROOT
ATOM      1  C   UNL     1       3.815   4.364  18.699  0.00  0.00    +0.000 A 
ATOM      2  N   UNL     1       3.812   3.157  19.330  0.00  0.00    +0.000 NA
ATOM      3  C   UNL     1       3.039   2.996  20.418  0.00  0.00    +0.000 A 
ATOM      4  C   UNL     1       2.293   4.008  20.987  0.00  0.00    +0.000 A 
ATOM      5  C   UNL     1       2.296   5.264  20.380  0.00  0.00    +0.000 A 
ATOM      6  C   UNL     1       1.601   6.330  20.979  0.00  0.00    +0.000 A 
ATOM      7  C   UNL     1       1.603   7.590  20.383  0.00  0.00    +0.000 A 
ATOM      8  C   UNL     1       2.247   7.796  19.171  0.00  0.00    +0.000 A 
ATOM      9  C   UNL     1       2.906   6.732  18.558  0.00  0.00    +0.000 A 
ATOM     10  C   UNL     1       3.022   5.455  19.173  0.00  0.00    +0.000 A 
ENDROOT
BRANCH   1  17
ATOM     11  C   UNL     1       6.174   4.762  17.755  0.00  0.00    +0.000 A 
ATOM     12  C   UNL     1       7.047   4.839  16.651  0.00  0.00    +0.000 A 
ATOM     13  C   UNL     1       6.590   4.637  15.346  0.00  0.00    +0.000 A 
ATOM     14  C   UNL     1       7.520   4.727  14.174  0.00  0.00    +0.000 C 
ATOM     15  C   UNL     1       5.243   4.363  15.146  0.00  0.00    +0.000 A 
ATOM     16  C   UNL     1       4.367   4.320  16.235  0.00  0.00    +0.000 A 
ATOM     17  C   UNL     1       4.802   4.461  17.575  0.00  0.00    +0.000 A 
BRANCH  11  19
ATOM     18  C   UNL     1       7.769   5.800  19.153  0.00  0.00    +0.000 C 
ATOM     19  O   UNL     1       6.660   4.911  19.034  0.00  0.00    +0.000 OA
ENDBRANCH  11  19
ENDBRANCH   1  17
BRANCH   7  20
ATOM     20  S   UNL     1       0.881   8.983  21.215  0.00  0.00    +0.000 S 
ATOM     21  O   UNL     1      -0.531   8.714  21.359  0.00  0.00    +0.000 OA
ATOM     22  O   UNL     1       1.705   9.275  22.368  0.00  0.00    +0.000 OA
BRANCH  20  23
ATOM     23  N   UNL     1       1.007  10.186  20.033  0.00  0.00    +0.000 N 
ATOM     24  C   UNL     1      -0.257  10.697  19.667  0.00  0.00    +0.000 A 
ATOM     25  N   UNL     1      -0.797  10.295  18.545  0.00  0.00    +0.000 NA
ATOM     26  C   UNL     1      -2.027  10.909  18.403  0.00  0.00    +0.000 A 
ATOM     27  C   UNL     1      -2.338  11.852  19.361  0.00  0.00    +0.000 A 
ATOM     28  S   UNL     1      -1.074  11.929  20.519  0.00  0.00    +0.000 S 
ATOM     29  H   UNL     1       1.422   9.731  19.219  0.00  0.00    +0.000 HD
ENDBRANCH  20  23
ENDBRANCH   7  20
TORSDOF 4
ENDMDL
MODEL 2
REMARK VINA RESULT:      -8.3      1.129      1.269
REMARK  Name = 
REMARK  6 active torsions:
REMARK  status: ('A' for Active; 'I' for Inactive)
REMARK    1  A    between atoms: C_1  and  O_2
REMARK    2  A    between atoms: O_2  and  C_3
REMARK    3  A    between atoms: C_5  and  C_6
REMARK    4  A    between atoms: C_9  and  C_10
REMARK    5  A    between atoms: C_16  and  S_17
REMARK    6  A    between atoms: S_17  and  N_20
REMARK                            x       y       z     vdW  Elec       q    Type
REMARK                         _______ _______ _______ _____ _____    ______ ____
ROOT
ATOM      1  C   UNL     1       3.695   4.471  18.868  0.00  0.00    +0.000 A 
ATOM      2  N   UNL     1       3.703   3.281  19.531  0.00  0.00    +0.000 NA
ATOM      3  C   UNL     1       2.910   3.133  20.607  0.00  0.00    +0.000 A 
ATOM      4  C   UNL     1       2.131   4.143  21.132  0.00  0.00    +0.000 A 
ATOM      5  C   UNL     1       2.122   5.382  20.491  0.00  0.00    +0.000 A 
ATOM      6  C   UNL     1       1.392   6.449  21.047  0.00  0.00    +0.000 A 
ATOM      7  C   UNL     1       1.381   7.693  20.416  0.00  0.00    +0.000 A 
ATOM      8  C   UNL     1       2.046   7.880  19.213  0.00  0.00    +0.000 A 
ATOM      9  C   UNL     1       2.740   6.814  18.643  0.00  0.00    +0.000 A 
ATOM     10  C   UNL     1       2.869   5.557  19.296  0.00  0.00    +0.000 A 
ENDROOT
BRANCH   1  17
ATOM     11  C   UNL     1       6.073   4.850  17.969  0.00  0.00    +0.000 A 
ATOM     12  C   UNL     1       6.968   4.919  16.881  0.00  0.00    +0.000 A 
ATOM     13  C   UNL     1       6.536   4.716  15.568  0.00  0.00    +0.000 A 
ATOM     14  C   UNL     1       7.488   4.798  14.414  0.00  0.00    +0.000 C 
ATOM     15  C   UNL     1       5.190   4.451  15.343  0.00  0.00    +0.000 A 
ATOM     16  C   UNL     1       4.294   4.416  16.415  0.00  0.00    +0.000 A 
ATOM     17  C   UNL     1       4.704   4.558  17.763  0.00  0.00    +0.000 A 
BRANCH  11  19
ATOM     18  C   UNL     1       7.702   5.812  19.383  0.00  0.00    +0.000 C 
ATOM     19  O   UNL     1       6.536   5.000  19.256  0.00  0.00    +0.000 OA
ENDBRANCH  11  19
ENDBRANCH   1  17
BRANCH   7  20
ATOM     20  S   UNL     1       0.612   9.092  21.195  0.00  0.00    +0.000 S 
ATOM     21  O   UNL     1      -0.443   8.587  22.043  0.00  0.00    +0.000 OA
ATOM     22  O   UNL     1       1.667   9.923  21.734  0.00  0.00    +0.000 OA
BRANCH  20  23
ATOM     23  N   UNL     1      -0.159   9.829  19.882  0.00  0.00    +0.000 N 
ATOM     24  C   UNL     1       0.153  11.202  19.794  0.00  0.00    +0.000 A 
ATOM     25  N   UNL     1      -0.728  12.075  20.211  0.00  0.00    +0.000 NA
ATOM     26  C   UNL     1      -0.205  13.344  20.044  0.00  0.00    +0.000 A 
ATOM     27  C   UNL     1       1.011  13.408  19.394  0.00  0.00    +0.000 A 
ATOM     28  S   UNL     1       1.552  11.820  19.036  0.00  0.00    +0.000 S 
ATOM     29  H   UNL     1      -1.160   9.733  20.060  0.00  0.00    +0.000 HD
ENDBRANCH  20  23
ENDBRANCH   7  20
TORSDOF 4
ENDMDL
MODEL 3
REMARK VINA RESULT:      -8.3      1.909      2.599
REMARK  Name = 
REMARK  6 active torsions:
REMARK  status: ('A' for Active; 'I' for Inactive)
REMARK    1  A    between atoms: C_1  and  O_2
REMARK    2  A    between atoms: O_2  and  C_3
REMARK    3  A    between atoms: C_5  and  C_6
REMARK    4  A    between atoms: C_9  and  C_10
REMARK    5  A    between atoms: C_16  and  S_17
REMARK    6  A    between atoms: S_17  and  N_20
REMARK                            x       y       z     vdW  Elec       q    Type
REMARK                         _______ _______ _______ _____ _____    ______ ____
ROOT
ATOM      1  C   UNL     1       3.158   5.954  18.794  0.00  0.00    +0.000 A 
ATOM      2  N   UNL     1       3.100   5.042  19.805  0.00  0.00    +0.000 NA
ATOM      3  C   UNL     1       2.330   5.308  20.874  0.00  0.00    +0.000 A 
ATOM      4  C   UNL     1       1.642   6.490  21.051  0.00  0.00    +0.000 A 
ATOM      5  C   UNL     1       1.703   7.456  20.046  0.00  0.00    +0.000 A 
ATOM      6  C   UNL     1       1.068   8.697  20.232  0.00  0.00    +0.000 A 
ATOM      7  C   UNL     1       1.128   9.671  19.235  0.00  0.00    +0.000 A 
ATOM      8  C   UNL     1       1.770   9.411  18.033  0.00  0.00    +0.000 A 
ATOM      9  C   UNL     1       2.368   8.168  17.833  0.00  0.00    +0.000 A 
ATOM     10  C   UNL     1       2.426   7.180  18.854  0.00  0.00    +0.000 A 
ENDROOT
BRANCH   1  17
ATOM     11  C   UNL     1       4.059   4.429  16.930  0.00  0.00    +0.000 A 
ATOM     12  C   UNL     1       5.018   4.161  15.932  0.00  0.00    +0.000 A 
ATOM     13  C   UNL     1       6.083   5.033  15.693  0.00  0.00    +0.000 A 
ATOM     14  C   UNL     1       7.105   4.740  14.637  0.00  0.00    +0.000 C 
ATOM     15  C   UNL     1       6.192   6.180  16.470  0.00  0.00    +0.000 A 
ATOM     16  C   UNL     1       5.263   6.432  17.483  0.00  0.00    +0.000 A 
ATOM     17  C   UNL     1       4.138   5.604  17.715  0.00  0.00    +0.000 A 
BRANCH  11  19
ATOM     18  C   UNL     1       3.319   2.310  17.666  0.00  0.00    +0.000 C 
ATOM     19  O   UNL     1       2.989   3.581  17.108  0.00  0.00    +0.000 OA
ENDBRANCH  11  19
ENDBRANCH   1  17
BRANCH   7  20
ATOM     20  S   UNL     1       0.485  11.301  19.527  0.00  0.00    +0.000 S 
ATOM     21  O   UNL     1      -0.597  11.174  20.476  0.00  0.00    +0.000 OA
ATOM     22  O   UNL     1       1.611  12.171  19.793  0.00  0.00    +0.000 OA
BRANCH  20  23
ATOM     23  N   UNL     1      -0.239  11.650  18.039  0.00  0.00    +0.000 N 
ATOM     24  C   UNL     1      -1.544  11.118  17.953  0.00  0.00    +0.000 A 
ATOM     25  N   UNL     1      -1.732  10.020  17.266  0.00  0.00    +0.000 NA
ATOM     26  C   UNL     1      -3.070   9.681  17.333  0.00  0.00    +0.000 A 
ATOM     27  C   UNL     1      -3.886  10.594  17.970  0.00  0.00    +0.000 A 
ATOM     28  S   UNL     1      -2.936  11.894  18.562  0.00  0.00    +0.000 S 
ATOM     29  H   UNL     1       0.344  11.196  17.334  0.00  0.00    +0.000 HD
ENDBRANCH  20  23
ENDBRANCH   7  20
TORSDOF 4
ENDMDL
MODEL 4
REMARK VINA RESULT:      -8.3      1.319      1.459
REMARK  Name = 
REMARK  6 active torsions:
REMARK  status: ('A' for Active; 'I' for Inactive)
REMARK    1  A    between atoms: C_1  and  O_2
REMARK    2  A    between atoms: O_2  and  C_3
REMARK    3  A    between atoms: C_5  and  C_6
REMARK    4  A    between atoms: C_9  and  C_10
REMARK    5  A    between atoms: C_16  and  S_17
REMARK    6  A    between atoms: S_17  and  N_20
REMARK                            x       y       z     vdW  Elec       q    Type
REMARK                         _______ _______ _______ _____ _____    ______ ____
ROOT
ATOM      1  C   UNL     1       3.687   5.079  18.543  0.00  0.00    +0.000 A 
ATOM      2  N   UNL     1       3.635   3.964  19.323  0.00  0.00    +0.000 NA
ATOM      3  C   UNL     1       2.844   3.969  20.410  0.00  0.00    +0.000 A 
ATOM      4  C   UNL     1       2.128   5.070  20.834  0.00  0.00    +0.000 A 
ATOM      5  C   UNL     1       2.183   6.237  20.072  0.00  0.00    +0.000 A 
ATOM      6  C   UNL     1       1.519   7.394  20.519  0.00  0.00    +0.000 A 
ATOM      7  C   UNL     1       1.573   8.567  19.767  0.00  0.00    +0.000 A 
ATOM      8  C   UNL     1       2.237   8.594  18.549  0.00  0.00    +0.000 A 
ATOM      9  C   UNL     1       2.864   7.438  18.087  0.00  0.00    +0.000 A 
ATOM     10  C   UNL     1       2.928   6.248  18.862  0.00  0.00    +0.000 A 
ENDROOT
BRANCH   1  17
ATOM     11  C   UNL     1       6.024   5.457  17.539  0.00  0.00    +0.000 A 
ATOM     12  C   UNL     1       6.914   5.351  16.451  0.00  0.00    +0.000 A 
ATOM     13  C   UNL     1       6.510   4.805  15.230  0.00  0.00    +0.000 A 
ATOM     14  C   UNL     1       7.457   4.702  14.073  0.00  0.00    +0.000 C 
ATOM     15  C   UNL     1       5.197   4.370  15.097  0.00  0.00    +0.000 A 
ATOM     16  C   UNL     1       4.302   4.504  16.162  0.00  0.00    +0.000 A 
ATOM     17  C   UNL     1       4.690   4.997  17.431  0.00  0.00    +0.000 A 
BRANCH  11  19
ATOM     18  C   UNL     1       7.873   5.870  18.949  0.00  0.00    +0.000 C 
ATOM     19  O   UNL     1       6.463   5.949  18.747  0.00  0.00    +0.000 OA
ENDBRANCH  11  19
ENDBRANCH   1  17
BRANCH   7  20
ATOM     20  S   UNL     1       0.891  10.078  20.404  0.00  0.00    +0.000 S 
ATOM     21  O   UNL     1       1.184  10.121  21.818  0.00  0.00    +0.000 OA
ATOM     22  O   UNL     1       1.309  11.148  19.523  0.00  0.00    +0.000 OA
BRANCH  20  23
ATOM     23  N   UNL     1      -0.769   9.779  20.281  0.00  0.00    +0.000 N 
ATOM     24  C   UNL     1      -1.346  10.457  19.187  0.00  0.00    +0.000 A 
ATOM     25  N   UNL     1      -2.027  11.551  19.411  0.00  0.00    +0.000 NA
ATOM     26  C   UNL     1      -2.480  12.045  18.203  0.00  0.00    +0.000 A 
ATOM     27  C   UNL     1      -2.233  11.250  17.102  0.00  0.00    +0.000 A 
ATOM     28  S   UNL     1      -1.345   9.864  17.586  0.00  0.00    +0.000 S 
ATOM     29  H   UNL     1      -1.180  10.143  21.142  0.00  0.00    +0.000 HD
ENDBRANCH  20  23
ENDBRANCH   7  20
TORSDOF 4
ENDMDL
MODEL 5
REMARK VINA RESULT:      -8.2      1.325      1.498
REMARK  Name = 
REMARK  6 active torsions:
REMARK  status: ('A' for Active; 'I' for Inactive)
REMARK    1  A    between atoms: C_1  and  O_2
REMARK    2  A    between atoms: O_2  and  C_3
REMARK    3  A    between atoms: C_5  and  C_6
REMARK    4  A    between atoms: C_9  and  C_10
REMARK    5  A    between atoms: C_16  and  S_17
REMARK    6  A    between atoms: S_17  and  N_20
REMARK                            x       y       z     vdW  Elec       q    Type
REMARK                         _______ _______ _______ _____ _____    ______ ____
ROOT
ATOM      1  C   UNL     1       3.798   5.378  18.374  0.00  0.00    +0.000 A 
ATOM      2  N   UNL     1       3.840   4.347  19.264  0.00  0.00    +0.000 NA
ATOM      3  C   UNL     1       3.066   4.408  20.362  0.00  0.00    +0.000 A 
ATOM      4  C   UNL     1       2.276   5.492  20.687  0.00  0.00    +0.000 A 
ATOM      5  C   UNL     1       2.233   6.575  19.809  0.00  0.00    +0.000 A 
ATOM      6  C   UNL     1       1.492   7.720  20.151  0.00  0.00    +0.000 A 
ATOM      7  C   UNL     1       1.447   8.810  19.282  0.00  0.00    +0.000 A 
ATOM      8  C   UNL     1       2.090   8.760  18.054  0.00  0.00    +0.000 A 
ATOM      9  C   UNL     1       2.795   7.611  17.698  0.00  0.00    +0.000 A 
ATOM     10  C   UNL     1       2.959   6.515  18.589  0.00  0.00    +0.000 A 
ENDROOT
BRANCH   1  17
ATOM     11  C   UNL     1       6.087   5.816  17.288  0.00  0.00    +0.000 A 
ATOM     12  C   UNL     1       6.967   5.663  16.197  0.00  0.00    +0.000 A 
ATOM     13  C   UNL     1       6.587   4.969  15.046  0.00  0.00    +0.000 A 
ATOM     14  C   UNL     1       7.522   4.816  13.885  0.00  0.00    +0.000 C 
ATOM     15  C   UNL     1       5.307   4.431  14.985  0.00  0.00    +0.000 A 
ATOM     16  C   UNL     1       4.420   4.609  16.050  0.00  0.00    +0.000 A 
ATOM     17  C   UNL     1       4.788   5.255  17.255  0.00  0.00    +0.000 A 
BRANCH  11  19
ATOM     18  C   UNL     1       7.407   5.707  19.243  0.00  0.00    +0.000 C 
ATOM     19  O   UNL     1       6.506   6.458  18.431  0.00  0.00    +0.000 OA
ENDBRANCH  11  19
ENDBRANCH   1  17
BRANCH   7  20
ATOM     20  S   UNL     1       0.664  10.326  19.776  0.00  0.00    +0.000 S 
ATOM     21  O   UNL     1      -0.543   9.975  20.489  0.00  0.00    +0.000 OA
ATOM     22  O   UNL     1       1.677  11.158  20.391  0.00  0.00    +0.000 OA
BRANCH  20  23
ATOM     23  N   UNL     1       0.161  10.948  18.286  0.00  0.00    +0.000 N 
ATOM     24  C   UNL     1      -1.228  10.785  18.092  0.00  0.00    +0.000 A 
ATOM     25  N   UNL     1      -1.645   9.823  17.311  0.00  0.00    +0.000 NA
ATOM     26  C   UNL     1      -3.027   9.845  17.283  0.00  0.00    +0.000 A 
ATOM     27  C   UNL     1      -3.621  10.898  17.948  0.00  0.00    +0.000 A 
ATOM     28  S   UNL     1      -2.410  11.861  18.690  0.00  0.00    +0.000 S 
ATOM     29  H   UNL     1       0.654  10.403  17.578  0.00  0.00    +0.000 HD
ENDBRANCH  20  23
ENDBRANCH   7  20
TORSDOF 4
ENDMDL
MODEL 6
REMARK VINA RESULT:      -8.1      2.391      3.138
REMARK  Name = 
REMARK  6 active torsions:
REMARK  status: ('A' for Active; 'I' for Inactive)
REMARK    1  A    between atoms: C_1  and  O_2
REMARK    2  A    between atoms: O_2  and  C_3
REMARK    3  A    between atoms: C_5  and  C_6
REMARK    4  A    between atoms: C_9  and  C_10
REMARK    5  A    between atoms: C_16  and  S_17
REMARK    6  A    between atoms: S_17  and  N_20
REMARK                            x       y       z     vdW  Elec       q    Type
REMARK                         _______ _______ _______ _____ _____    ______ ____
ROOT
ATOM      1  C   UNL     1       3.094   6.057  18.738  0.00  0.00    +0.000 A 
ATOM      2  N   UNL     1       2.976   5.168  19.764  0.00  0.00    +0.000 NA
ATOM      3  C   UNL     1       2.202   5.490  20.815  0.00  0.00    +0.000 A 
ATOM      4  C   UNL     1       1.569   6.707  20.959  0.00  0.00    +0.000 A 
ATOM      5  C   UNL     1       1.693   7.650  19.938  0.00  0.00    +0.000 A 
ATOM      6  C   UNL     1       1.116   8.923  20.092  0.00  0.00    +0.000 A 
ATOM      7  C   UNL     1       1.239   9.875  19.079  0.00  0.00    +0.000 A 
ATOM      8  C   UNL     1       1.887   9.562  17.893  0.00  0.00    +0.000 A 
ATOM      9  C   UNL     1       2.428   8.288  17.725  0.00  0.00    +0.000 A 
ATOM     10  C   UNL     1       2.421   7.318  18.764  0.00  0.00    +0.000 A 
ENDROOT
BRANCH   1  17
ATOM     11  C   UNL     1       3.978   4.432  16.952  0.00  0.00    +0.000 A 
ATOM     12  C   UNL     1       4.937   4.101  15.973  0.00  0.00    +0.000 A 
ATOM     13  C   UNL     1       6.019   4.943  15.701  0.00  0.00    +0.000 A 
ATOM     14  C   UNL     1       7.041   4.584  14.666  0.00  0.00    +0.000 C 
ATOM     15  C   UNL     1       6.144   6.123  16.424  0.00  0.00    +0.000 A 
ATOM     16  C   UNL     1       5.213   6.438  17.419  0.00  0.00    +0.000 A 
ATOM     17  C   UNL     1       4.074   5.640  17.682  0.00  0.00    +0.000 A 
BRANCH  11  19
ATOM     18  C   UNL     1       3.205   2.337  17.722  0.00  0.00    +0.000 C 
ATOM     19  O   UNL     1       2.893   3.611  17.163  0.00  0.00    +0.000 OA
ENDBRANCH  11  19
ENDBRANCH   1  17
BRANCH   7  20
ATOM     20  S   UNL     1       0.671  11.539  19.331  0.00  0.00    +0.000 S 
ATOM     21  O   UNL     1       1.468  12.398  18.487  0.00  0.00    +0.000 OA
ATOM     22  O   UNL     1      -0.773  11.525  19.230  0.00  0.00    +0.000 OA
BRANCH  20  23
ATOM     23  N   UNL     1       1.185  11.836  20.915  0.00  0.00    +0.000 N 
ATOM     24  C   UNL     1       0.114  12.210  21.753  0.00  0.00    +0.000 A 
ATOM     25  N   UNL     1      -0.038  13.473  22.055  0.00  0.00    +0.000 NA
ATOM     26  C   UNL     1      -1.149  13.603  22.866  0.00  0.00    +0.000 A 
ATOM     27  C   UNL     1      -1.745  12.421  23.257  0.00  0.00    +0.000 A 
ATOM     28  S   UNL     1      -0.923  11.101  22.533  0.00  0.00    +0.000 S 
ATOM     29  H   UNL     1       1.837  12.619  20.852  0.00  0.00    +0.000 HD
ENDBRANCH  20  23
ENDBRANCH   7  20
TORSDOF 4
ENDMDL
MODEL 7
REMARK VINA RESULT:      -8.0      2.386      2.919
REMARK  Name = 
REMARK  6 active torsions:
REMARK  status: ('A' for Active; 'I' for Inactive)
REMARK    1  A    between atoms: C_1  and  O_2
REMARK    2  A    between atoms: O_2  and  C_3
REMARK    3  A    between atoms: C_5  and  C_6
REMARK    4  A    between atoms: C_9  and  C_10
REMARK    5  A    between atoms: C_16  and  S_17
REMARK    6  A    between atoms: S_17  and  N_20
REMARK                            x       y       z     vdW  Elec       q    Type
REMARK                         _______ _______ _______ _____ _____    ______ ____
ROOT
ATOM      1  C   UNL     1       3.156   5.754  18.832  0.00  0.00    +0.000 A 
ATOM      2  N   UNL     1       3.102   4.771  19.773  0.00  0.00    +0.000 NA
ATOM      3  C   UNL     1       2.335   4.957  20.861  0.00  0.00    +0.000 A 
ATOM      4  C   UNL     1       1.646   6.123  21.125  0.00  0.00    +0.000 A 
ATOM      5  C   UNL     1       1.703   7.159  20.193  0.00  0.00    +0.000 A 
ATOM      6  C   UNL     1       1.068   8.383  20.471  0.00  0.00    +0.000 A 
ATOM      7  C   UNL     1       1.125   9.427  19.548  0.00  0.00    +0.000 A 
ATOM      8  C   UNL     1       1.763   9.256  18.329  0.00  0.00    +0.000 A 
ATOM      9  C   UNL     1       2.362   8.032  18.037  0.00  0.00    +0.000 A 
ATOM     10  C   UNL     1       2.423   6.972  18.983  0.00  0.00    +0.000 A 
ENDROOT
BRANCH   1  17
ATOM     11  C   UNL     1       4.066   4.358  16.873  0.00  0.00    +0.000 A 
ATOM     12  C   UNL     1       5.022   4.165  15.855  0.00  0.00    +0.000 A 
ATOM     13  C   UNL     1       6.073   5.066  15.663  0.00  0.00    +0.000 A 
ATOM     14  C   UNL     1       7.091   4.853  14.584  0.00  0.00    +0.000 C 
ATOM     15  C   UNL     1       6.170   6.166  16.506  0.00  0.00    +0.000 A 
ATOM     16  C   UNL     1       5.244   6.343  17.538  0.00  0.00    +0.000 A 
ATOM     17  C   UNL     1       4.134   5.485  17.727  0.00  0.00    +0.000 A 
BRANCH  11  19
ATOM     18  C   UNL     1       3.345   2.226  17.589  0.00  0.00    +0.000 C 
ATOM     19  O   UNL     1       3.011   3.485  17.007  0.00  0.00    +0.000 OA
ENDBRANCH  11  19
ENDBRANCH   1  17
BRANCH   7  20
ATOM     20  S   UNL     1       0.481  11.031  19.960  0.00  0.00    +0.000 S 
ATOM     21  O   UNL     1      -0.938  10.880  20.188  0.00  0.00    +0.000 OA
ATOM     22  O   UNL     1       1.343  11.597  20.975  0.00  0.00    +0.000 OA
BRANCH  20  23
ATOM     23  N   UNL     1       0.631  11.844  18.484  0.00  0.00    +0.000 N 
ATOM     24  C   UNL     1       0.896  13.218  18.667  0.00  0.00    +0.000 A 
ATOM     25  N   UNL     1      -0.082  14.073  18.513  0.00  0.00    +0.000 NA
ATOM     26  C   UNL     1       0.402  15.345  18.754  0.00  0.00    +0.000 A 
ATOM     27  C   UNL     1       1.762  15.436  18.968  0.00  0.00    +0.000 A 
ATOM     28  S   UNL     1       2.453  13.866  18.930  0.00  0.00    +0.000 S 
ATOM     29  H   UNL     1      -0.274  11.746  18.021  0.00  0.00    +0.000 HD
ENDBRANCH  20  23
ENDBRANCH   7  20
TORSDOF 4
ENDMDL
MODEL 8
REMARK VINA RESULT:      -7.9      2.219      2.926
REMARK  Name = 
REMARK  6 active torsions:
REMARK  status: ('A' for Active; 'I' for Inactive)
REMARK    1  A    between atoms: C_1  and  O_2
REMARK    2  A    between atoms: O_2  and  C_3
REMARK    3  A    between atoms: C_5  and  C_6
REMARK    4  A    between atoms: C_9  and  C_10
REMARK    5  A    between atoms: C_16  and  S_17
REMARK    6  A    between atoms: S_17  and  N_20
REMARK                            x       y       z     vdW  Elec       q    Type
REMARK                         _______ _______ _______ _____ _____    ______ ____
ROOT
ATOM      1  C   UNL     1       3.093   5.922  18.793  0.00  0.00    +0.000 A 
ATOM      2  N   UNL     1       2.988   4.965  19.757  0.00  0.00    +0.000 NA
ATOM      3  C   UNL     1       2.228   5.215  20.837  0.00  0.00    +0.000 A 
ATOM      4  C   UNL     1       1.597   6.419  21.071  0.00  0.00    +0.000 A 
ATOM      5  C   UNL     1       1.709   7.429  20.116  0.00  0.00    +0.000 A 
ATOM      6  C   UNL     1       1.134   8.689  20.362  0.00  0.00    +0.000 A 
ATOM      7  C   UNL     1       1.245   9.707  19.415  0.00  0.00    +0.000 A 
ATOM      8  C   UNL     1       1.878   9.476  18.203  0.00  0.00    +0.000 A 
ATOM      9  C   UNL     1       2.416   8.217  17.942  0.00  0.00    +0.000 A 
ATOM     10  C   UNL     1       2.422   7.178  18.913  0.00  0.00    +0.000 A 
ENDROOT
BRANCH   1  17
ATOM     11  C   UNL     1       3.981   4.398  16.921  0.00  0.00    +0.000 A 
ATOM     12  C   UNL     1       4.927   4.137  15.908  0.00  0.00    +0.000 A 
ATOM     13  C   UNL     1       5.977   5.021  15.647  0.00  0.00    +0.000 A 
ATOM     14  C   UNL     1       6.985   4.735  14.576  0.00  0.00    +0.000 C 
ATOM     15  C   UNL     1       6.085   6.173  16.416  0.00  0.00    +0.000 A 
ATOM     16  C   UNL     1       5.169   6.419  17.444  0.00  0.00    +0.000 A 
ATOM     17  C   UNL     1       4.060   5.578  17.699  0.00  0.00    +0.000 A 
BRANCH  11  19
ATOM     18  C   UNL     1       3.283   2.266  17.657  0.00  0.00    +0.000 C 
ATOM     19  O   UNL     1       2.925   3.538  17.122  0.00  0.00    +0.000 OA
ENDBRANCH  11  19
ENDBRANCH   1  17
BRANCH   7  20
ATOM     20  S   UNL     1       0.681  11.350  19.787  0.00  0.00    +0.000 S 
ATOM     21  O   UNL     1       1.334  11.764  21.007  0.00  0.00    +0.000 OA
ATOM     22  O   UNL     1       0.799  12.134  18.576  0.00  0.00    +0.000 OA
BRANCH  20  23
ATOM     23  N   UNL     1      -0.936  11.068  20.196  0.00  0.00    +0.000 N 
ATOM     24  C   UNL     1      -1.410  12.007  21.136  0.00  0.00    +0.000 A 
ATOM     25  N   UNL     1      -1.510  11.648  22.390  0.00  0.00    +0.000 NA
ATOM     26  C   UNL     1      -1.977  12.724  23.121  0.00  0.00    +0.000 A 
ATOM     27  C   UNL     1      -2.334  13.836  22.387  0.00  0.00    +0.000 A 
ATOM     28  S   UNL     1      -2.014  13.550  20.726  0.00  0.00    +0.000 S 
ATOM     29  H   UNL     1      -0.955  10.141  20.625  0.00  0.00    +0.000 HD
ENDBRANCH  20  23
ENDBRANCH   7  20
TORSDOF 4
ENDMDL
MODEL 9
REMARK VINA RESULT:      -7.9      1.721      1.826
REMARK  Name = 
REMARK  6 active torsions:
REMARK  status: ('A' for Active; 'I' for Inactive)
REMARK    1  A    between atoms: C_1  and  O_2
REMARK    2  A    between atoms: O_2  and  C_3
REMARK    3  A    between atoms: C_5  and  C_6
REMARK    4  A    between atoms: C_9  and  C_10
REMARK    5  A    between atoms: C_16  and  S_17
REMARK    6  A    between atoms: S_17  and  N_20
REMARK                            x       y       z     vdW  Elec       q    Type
REMARK                         _______ _______ _______ _____ _____    ______ ____
ROOT
ATOM      1  C   UNL     1       3.856   5.278  18.393  0.00  0.00    +0.000 A 
ATOM      2  N   UNL     1       3.940   4.234  19.264  0.00  0.00    +0.000 NA
ATOM      3  C   UNL     1       3.198   4.265  20.385  0.00  0.00    +0.000 A 
ATOM      4  C   UNL     1       2.402   5.331  20.751  0.00  0.00    +0.000 A 
ATOM      5  C   UNL     1       2.317   6.428  19.893  0.00  0.00    +0.000 A 
ATOM      6  C   UNL     1       1.569   7.556  20.275  0.00  0.00    +0.000 A 
ATOM      7  C   UNL     1       1.483   8.659  19.426  0.00  0.00    +0.000 A 
ATOM      8  C   UNL     1       2.090   8.639  18.179  0.00  0.00    +0.000 A 
ATOM      9  C   UNL     1       2.801   7.507  17.784  0.00  0.00    +0.000 A 
ATOM     10  C   UNL     1       3.007   6.399  18.651  0.00  0.00    +0.000 A 
ENDROOT
BRANCH   1  17
ATOM     11  C   UNL     1       6.080   5.823  17.222  0.00  0.00    +0.000 A 
ATOM     12  C   UNL     1       6.932   5.698  16.106  0.00  0.00    +0.000 A 
ATOM     13  C   UNL     1       6.554   4.960  14.981  0.00  0.00    +0.000 A 
ATOM     14  C   UNL     1       7.458   4.837  13.792  0.00  0.00    +0.000 C 
ATOM     15  C   UNL     1       5.305   4.350  14.973  0.00  0.00    +0.000 A 
ATOM     16  C   UNL     1       4.445   4.499  16.064  0.00  0.00    +0.000 A 
ATOM     17  C   UNL     1       4.815   5.188  17.244  0.00  0.00    +0.000 A 
BRANCH  11  19
ATOM     18  C   UNL     1       7.870   6.905  18.320  0.00  0.00    +0.000 C 
ATOM     19  O   UNL     1       6.499   6.510  18.339  0.00  0.00    +0.000 OA
ENDBRANCH  11  19
ENDBRANCH   1  17
BRANCH   7  20
ATOM     20  S   UNL     1       0.692  10.154  19.968  0.00  0.00    +0.000 S 
ATOM     21  O   UNL     1      -0.720  10.018  19.696  0.00  0.00    +0.000 OA
ATOM     22  O   UNL     1       1.169  10.438  21.305  0.00  0.00    +0.000 OA
BRANCH  20  23
ATOM     23  N   UNL     1       1.277  11.274  18.843  0.00  0.00    +0.000 N 
ATOM     24  C   UNL     1       0.863  12.588  19.146  0.00  0.00    +0.000 A 
ATOM     25  N   UNL     1      -0.123  13.111  18.464  0.00  0.00    +0.000 NA
ATOM     26  C   UNL     1      -0.362  14.386  18.940  0.00  0.00    +0.000 A 
ATOM     27  C   UNL     1       0.526  14.844  19.892  0.00  0.00    +0.000 A 
ATOM     28  S   UNL     1       1.665  13.613  20.251  0.00  0.00    +0.000 S 
ATOM     29  H   UNL     1       0.869  11.003  17.947  0.00  0.00    +0.000 HD
ENDBRANCH  20  23
ENDBRANCH   7  20
TORSDOF 4
ENDMDL
