MODEL 1
REMARK VINA RESULT:      -8.8      0.000      0.000
REMARK  Name = 
REMARK  7 active torsions:
REMARK  status: ('A' for Active; 'I' for Inactive)
REMARK    1  A    between atoms: C_1  and  C_2
REMARK    2  A    between atoms: C_2  and  C_3
REMARK    3  A    between atoms: C_2  and  N_21
REMARK    4  A    between atoms: C_3  and  C_4
REMARK    5  A    between atoms: C_7  and  C_8
REMARK    6  A    between atoms: C_9  and  C_10
REMARK    7  A    between atoms: C_22  and  C_24
REMARK                            x       y       z     vdW  Elec       q    Type
REMARK                         _______ _______ _______ _____ _____    ______ ____
ROOT
ATOM      1  C   UNL     1       5.595   4.818  17.138  0.00  0.00    +0.000 A 
ATOM      2  C   UNL     1       6.567   4.771  18.144  0.00  0.00    +0.000 A 
ATOM      3  C   UNL     1       7.377   5.882  18.397  0.00  0.00    +0.000 A 
ATOM      4  C   UNL     1       7.216   7.053  17.654  0.00  0.00    +0.000 A 
ATOM      5  C   UNL     1       6.278   7.096  16.624  0.00  0.00    +0.000 A 
ATOM      6  C   UNL     1       5.481   5.981  16.362  0.00  0.00    +0.000 A 
ENDROOT
BRANCH   4   7
ATOM      7  C   UNL     1       7.975   8.220  17.983  0.00  0.00    +0.000 C 
ATOM      8  C   UNL     1       8.592   9.196  18.318  0.00  0.00    +0.000 C 
BRANCH   8   9
ATOM      9  C   UNL     1       9.336  10.326  18.783  0.00  0.00    +0.000 A 
ATOM     10  C   UNL     1       9.380  10.634  20.158  0.00  0.00    +0.000 A 
ATOM     11  C   UNL     1      10.131  11.721  20.616  0.00  0.00    +0.000 A 
ATOM     12  C   UNL     1      10.821  12.475  19.687  0.00  0.00    +0.000 A 
ATOM     13  C   UNL     1      10.781  12.181  18.338  0.00  0.00    +0.000 A 
ATOM     14  C   UNL     1      10.044  11.108  17.863  0.00  0.00    +0.000 A 
ATOM     15  C   UNL     1      11.624  13.134  17.589  0.00  0.00    +0.000 C 
ATOM     16  C   UNL     1      12.086  14.044  18.732  0.00  0.00    +0.000 C 
ATOM     17  O   UNL     1      11.602  13.551  20.001  0.00  0.00    +0.000 OA
ENDBRANCH   8   9
ENDBRANCH   4   7
BRANCH   1  18
ATOM     18  C   UNL     1       4.647   3.656  16.913  0.00  0.00    +0.000 C 
BRANCH  18  20
ATOM     19  C   UNL     1       3.813   1.483  17.935  0.00  0.00    +0.000 C 
ATOM     20  C   UNL     1       4.277   2.913  18.220  0.00  0.00    +0.000 C 
BRANCH  20  21
ATOM     21  N   UNL     1       3.300   3.622  19.042  0.00  0.00    +0.000 N 
ATOM     22  C   UNL     1       3.049   3.310  20.358  0.00  0.00    +0.000 C 
ATOM     23  O   UNL     1       3.639   2.439  20.986  0.00  0.00    +0.000 OA
ATOM     24  H   UNL     1       2.698   4.283  18.578  0.00  0.00    +0.000 HD
BRANCH  22  25
ATOM     25  C   UNL     1       1.983   4.084  21.047  0.00  0.00    +0.000 C 
ATOM     26  C   UNL     1       1.819   5.549  20.713  0.00  0.00    +0.000 C 
ATOM     27  C   UNL     1       0.701   4.587  20.431  0.00  0.00    +0.000 C 
ENDBRANCH  22  25
ENDBRANCH  20  21
ENDBRANCH  18  20
ENDBRANCH   1  18
TORSDOF 6
ENDMDL
MODEL 2
REMARK VINA RESULT:      -8.6      2.571      4.201
REMARK  Name = 
REMARK  7 active torsions:
REMARK  status: ('A' for Active; 'I' for Inactive)
REMARK    1  A    between atoms: C_1  and  C_2
REMARK    2  A    between atoms: C_2  and  C_3
REMARK    3  A    between atoms: C_2  and  N_21
REMARK    4  A    between atoms: C_3  and  C_4
REMARK    5  A    between atoms: C_7  and  C_8
REMARK    6  A    between atoms: C_9  and  C_10
REMARK    7  A    between atoms: C_22  and  C_24
REMARK                            x       y       z     vdW  Elec       q    Type
REMARK                         _______ _______ _______ _____ _____    ______ ____
ROOT
ATOM      1  C   UNL     1       6.671   5.700  18.031  0.00  0.00    +0.000 A 
ATOM      2  C   UNL     1       7.696   5.775  18.981  0.00  0.00    +0.000 A 
ATOM      3  C   UNL     1       8.435   6.953  19.131  0.00  0.00    +0.000 A 
ATOM      4  C   UNL     1       8.149   8.068  18.341  0.00  0.00    +0.000 A 
ATOM      5  C   UNL     1       7.157   7.989  17.365  0.00  0.00    +0.000 A 
ATOM      6  C   UNL     1       6.431   6.808  17.206  0.00  0.00    +0.000 A 
ENDROOT
BRANCH   4   7
ATOM      7  C   UNL     1       8.836   9.302  18.567  0.00  0.00    +0.000 C 
ATOM      8  C   UNL     1       9.369  10.368  18.724  0.00  0.00    +0.000 C 
BRANCH   8   9
ATOM      9  C   UNL     1       9.936  11.668  18.910  0.00  0.00    +0.000 A 
ATOM     10  C   UNL     1      10.223  12.142  20.207  0.00  0.00    +0.000 A 
ATOM     11  C   UNL     1      10.805  13.400  20.389  0.00  0.00    +0.000 A 
ATOM     12  C   UNL     1      11.086  14.157  19.268  0.00  0.00    +0.000 A 
ATOM     13  C   UNL     1      10.807  13.700  17.994  0.00  0.00    +0.000 A 
ATOM     14  C   UNL     1      10.231  12.457  17.792  0.00  0.00    +0.000 A 
ATOM     15  C   UNL     1      11.232  14.701  16.995  0.00  0.00    +0.000 C 
ATOM     16  C   UNL     1      11.732  15.814  17.922  0.00  0.00    +0.000 C 
ATOM     17  O   UNL     1      11.667  15.393  19.303  0.00  0.00    +0.000 OA
ENDBRANCH   8   9
ENDBRANCH   4   7
BRANCH   1  18
ATOM     18  C   UNL     1       5.801   4.463  17.918  0.00  0.00    +0.000 C 
BRANCH  18  20
ATOM     19  C   UNL     1       3.414   4.089  17.125  0.00  0.00    +0.000 C 
ATOM     20  C   UNL     1       4.826   4.514  16.717  0.00  0.00    +0.000 C 
BRANCH  20  21
ATOM     21  N   UNL     1       5.283   3.752  15.557  0.00  0.00    +0.000 N 
ATOM     22  C   UNL     1       5.926   4.319  14.482  0.00  0.00    +0.000 C 
ATOM     23  O   UNL     1       6.217   5.506  14.399  0.00  0.00    +0.000 OA
ATOM     24  H   UNL     1       4.994   2.788  15.495  0.00  0.00    +0.000 HD
BRANCH  22  25
ATOM     25  C   UNL     1       6.276   3.421  13.350  0.00  0.00    +0.000 C 
ATOM     26  C   UNL     1       5.360   3.376  12.149  0.00  0.00    +0.000 C 
ATOM     27  C   UNL     1       6.778   3.844  11.993  0.00  0.00    +0.000 C 
ENDBRANCH  22  25
ENDBRANCH  20  21
ENDBRANCH  18  20
ENDBRANCH   1  18
TORSDOF 6
ENDMDL
MODEL 3
REMARK VINA RESULT:      -8.6      2.789      4.534
REMARK  Name = 
REMARK  7 active torsions:
REMARK  status: ('A' for Active; 'I' for Inactive)
REMARK    1  A    between atoms: C_1  and  C_2
REMARK    2  A    between atoms: C_2  and  C_3
REMARK    3  A    between atoms: C_2  and  N_21
REMARK    4  A    between atoms: C_3  and  C_4
REMARK    5  A    between atoms: C_7  and  C_8
REMARK    6  A    between atoms: C_9  and  C_10
REMARK    7  A    between atoms: C_22  and  C_24
REMARK                            x       y       z     vdW  Elec       q    Type
REMARK                         _______ _______ _______ _____ _____    ______ ____
ROOT
ATOM      1  C   UNL     1       6.644   5.791  17.955  0.00  0.00    +0.000 A 
ATOM      2  C   UNL     1       6.174   6.887  17.223  0.00  0.00    +0.000 A 
ATOM      3  C   UNL     1       6.820   8.125  17.310  0.00  0.00    +0.000 A 
ATOM      4  C   UNL     1       7.947   8.274  18.120  0.00  0.00    +0.000 A 
ATOM      5  C   UNL     1       8.398   7.198  18.883  0.00  0.00    +0.000 A 
ATOM      6  C   UNL     1       7.743   5.968  18.808  0.00  0.00    +0.000 A 
ENDROOT
BRANCH   4   7
ATOM      7  C   UNL     1       8.666   9.510  18.128  0.00  0.00    +0.000 C 
ATOM      8  C   UNL     1       9.220  10.576  18.107  0.00  0.00    +0.000 C 
BRANCH   8   9
ATOM      9  C   UNL     1       9.815  11.878  18.091  0.00  0.00    +0.000 A 
ATOM     10  C   UNL     1      11.217  12.021  18.078  0.00  0.00    +0.000 A 
ATOM     11  C   UNL     1      11.799  13.291  18.033  0.00  0.00    +0.000 A 
ATOM     12  C   UNL     1      10.963  14.391  18.001  0.00  0.00    +0.000 A 
ATOM     13  C   UNL     1       9.588  14.259  18.015  0.00  0.00    +0.000 A 
ATOM     14  C   UNL     1       8.991  13.009  18.060  0.00  0.00    +0.000 A 
ATOM     15  C   UNL     1       8.953  15.590  17.952  0.00  0.00    +0.000 C 
ATOM     16  C   UNL     1      10.196  16.485  17.966  0.00  0.00    +0.000 C 
ATOM     17  O   UNL     1      11.399  15.684  17.941  0.00  0.00    +0.000 OA
ENDBRANCH   8   9
ENDBRANCH   4   7
BRANCH   1  18
ATOM     18  C   UNL     1       6.012   4.421  17.801  0.00  0.00    +0.000 C 
BRANCH  18  20
ATOM     19  C   UNL     1       3.619   3.808  17.198  0.00  0.00    +0.000 C 
ATOM     20  C   UNL     1       4.946   4.367  16.679  0.00  0.00    +0.000 C 
BRANCH  20  21
ATOM     21  N   UNL     1       5.383   3.645  15.487  0.00  0.00    +0.000 N 
ATOM     22  C   UNL     1       6.050   4.241  14.443  0.00  0.00    +0.000 C 
ATOM     23  O   UNL     1       6.381   5.420  14.417  0.00  0.00    +0.000 OA
ATOM     24  H   UNL     1       5.064   2.695  15.379  0.00  0.00    +0.000 HD
BRANCH  22  25
ATOM     25  C   UNL     1       6.378   3.385  13.271  0.00  0.00    +0.000 C 
ATOM     26  C   UNL     1       5.421   3.360  12.102  0.00  0.00    +0.000 C 
ATOM     27  C   UNL     1       6.823   3.861  11.911  0.00  0.00    +0.000 C 
ENDBRANCH  22  25
ENDBRANCH  20  21
ENDBRANCH  18  20
ENDBRANCH   1  18
TORSDOF 6
ENDMDL
MODEL 4
REMARK VINA RESULT:      -8.4      0.996      1.107
REMARK  Name = 
REMARK  7 active torsions:
REMARK  status: ('A' for Active; 'I' for Inactive)
REMARK    1  A    between atoms: C_1  and  C_2
REMARK    2  A    between atoms: C_2  and  C_3
REMARK    3  A    between atoms: C_2  and  N_21
REMARK    4  A    between atoms: C_3  and  C_4
REMARK    5  A    between atoms: C_7  and  C_8
REMARK    6  A    between atoms: C_9  and  C_10
REMARK    7  A    between atoms: C_22  and  C_24
REMARK                            x       y       z     vdW  Elec       q    Type
REMARK                         _______ _______ _______ _____ _____    ______ ____
ROOT
ATOM      1  C   UNL     1       5.900   4.920  17.073  0.00  0.00    +0.000 A 
ATOM      2  C   UNL     1       6.978   4.786  17.955  0.00  0.00    +0.000 A 
ATOM      3  C   UNL     1       7.742   5.903  18.311  0.00  0.00    +0.000 A 
ATOM      4  C   UNL     1       7.428   7.162  17.798  0.00  0.00    +0.000 A 
ATOM      5  C   UNL     1       6.381   7.298  16.888  0.00  0.00    +0.000 A 
ATOM      6  C   UNL     1       5.629   6.180  16.521  0.00  0.00    +0.000 A 
ENDROOT
BRANCH   4   7
ATOM      7  C   UNL     1       8.146   8.317  18.242  0.00  0.00    +0.000 C 
ATOM      8  C   UNL     1       8.763   9.299  18.556  0.00  0.00    +0.000 C 
BRANCH   8   9
ATOM      9  C   UNL     1       9.477  10.500  18.867  0.00  0.00    +0.000 A 
ATOM     10  C   UNL     1       9.630  10.913  20.206  0.00  0.00    +0.000 A 
ATOM     11  C   UNL     1      10.352  12.070  20.512  0.00  0.00    +0.000 A 
ATOM     12  C   UNL     1      10.905  12.788  19.470  0.00  0.00    +0.000 A 
ATOM     13  C   UNL     1      10.759  12.391  18.156  0.00  0.00    +0.000 A 
ATOM     14  C   UNL     1      10.047  11.248  17.830  0.00  0.00    +0.000 A 
ATOM     15  C   UNL     1      11.468  13.329  17.263  0.00  0.00    +0.000 C 
ATOM     16  C   UNL     1      11.978  14.347  18.289  0.00  0.00    +0.000 C 
ATOM     17  O   UNL     1      11.645  13.925  19.631  0.00  0.00    +0.000 OA
ENDBRANCH   8   9
ENDBRANCH   4   7
BRANCH   1  18
ATOM     18  C   UNL     1       5.006   3.739  16.749  0.00  0.00    +0.000 C 
BRANCH  18  20
ATOM     19  C   UNL     1       2.536   3.202  17.033  0.00  0.00    +0.000 C 
ATOM     20  C   UNL     1       3.837   3.570  17.751  0.00  0.00    +0.000 C 
BRANCH  20  21
ATOM     21  N   UNL     1       3.640   4.724  18.624  0.00  0.00    +0.000 N 
ATOM     22  C   UNL     1       2.745   4.741  19.668  0.00  0.00    +0.000 C 
ATOM     23  O   UNL     1       2.053   3.786  19.999  0.00  0.00    +0.000 OA
ATOM     24  H   UNL     1       4.093   5.586  18.360  0.00  0.00    +0.000 HD
BRANCH  22  25
ATOM     25  C   UNL     1       2.615   6.011  20.430  0.00  0.00    +0.000 C 
ATOM     26  C   UNL     1       2.215   7.265  19.686  0.00  0.00    +0.000 C 
ATOM     27  C   UNL     1       1.331   6.723  20.772  0.00  0.00    +0.000 C 
ENDBRANCH  22  25
ENDBRANCH  20  21
ENDBRANCH  18  20
ENDBRANCH   1  18
TORSDOF 6
ENDMDL
MODEL 5
REMARK VINA RESULT:      -8.3      2.519      4.067
REMARK  Name = 
REMARK  7 active torsions:
REMARK  status: ('A' for Active; 'I' for Inactive)
REMARK    1  A    between atoms: C_1  and  C_2
REMARK    2  A    between atoms: C_2  and  C_3
REMARK    3  A    between atoms: C_2  and  N_21
REMARK    4  A    between atoms: C_3  and  C_4
REMARK    5  A    between atoms: C_7  and  C_8
REMARK    6  A    between atoms: C_9  and  C_10
REMARK    7  A    between atoms: C_22  and  C_24
REMARK                            x       y       z     vdW  Elec       q    Type
REMARK                         _______ _______ _______ _____ _____    ______ ____
ROOT
ATOM      1  C   UNL     1       6.171   5.469  18.225  0.00  0.00    +0.000 A 
ATOM      2  C   UNL     1       7.389   5.558  18.909  0.00  0.00    +0.000 A 
ATOM      3  C   UNL     1       8.154   6.727  18.840  0.00  0.00    +0.000 A 
ATOM      4  C   UNL     1       7.703   7.819  18.097  0.00  0.00    +0.000 A 
ATOM      5  C   UNL     1       6.511   7.725  17.381  0.00  0.00    +0.000 A 
ATOM      6  C   UNL     1       5.756   6.552  17.438  0.00  0.00    +0.000 A 
ENDROOT
BRANCH   4   7
ATOM      7  C   UNL     1       8.436   9.048  18.112  0.00  0.00    +0.000 C 
ATOM      8  C   UNL     1       9.010  10.102  18.166  0.00  0.00    +0.000 C 
BRANCH   8   9
ATOM      9  C   UNL     1       9.675  11.362  18.301  0.00  0.00    +0.000 A 
ATOM     10  C   UNL     1      11.030  11.416  18.685  0.00  0.00    +0.000 A 
ATOM     11  C   UNL     1      11.689  12.645  18.789  0.00  0.00    +0.000 A 
ATOM     12  C   UNL     1      10.975  13.793  18.506  0.00  0.00    +0.000 A 
ATOM     13  C   UNL     1       9.647  13.749  18.131  0.00  0.00    +0.000 A 
ATOM     14  C   UNL     1       8.975  12.541  18.022  0.00  0.00    +0.000 A 
ATOM     15  C   UNL     1       9.150  15.115  17.871  0.00  0.00    +0.000 C 
ATOM     16  C   UNL     1      10.398  15.929  18.226  0.00  0.00    +0.000 C 
ATOM     17  O   UNL     1      11.500  15.053  18.554  0.00  0.00    +0.000 OA
ENDBRANCH   8   9
ENDBRANCH   4   7
BRANCH   1  18
ATOM     18  C   UNL     1       5.286   4.245  18.363  0.00  0.00    +0.000 C 
BRANCH  18  20
ATOM     19  C   UNL     1       3.438   2.848  17.315  0.00  0.00    +0.000 C 
ATOM     20  C   UNL     1       4.522   3.898  17.062  0.00  0.00    +0.000 C 
BRANCH  20  21
ATOM     21  N   UNL     1       5.392   3.492  15.961  0.00  0.00    +0.000 N 
ATOM     22  C   UNL     1       5.599   4.258  14.837  0.00  0.00    +0.000 C 
ATOM     23  O   UNL     1       5.113   5.368  14.659  0.00  0.00    +0.000 OA
ATOM     24  H   UNL     1       5.750   2.550  15.978  0.00  0.00    +0.000 HD
BRANCH  22  25
ATOM     25  C   UNL     1       6.466   3.682  13.775  0.00  0.00    +0.000 C 
ATOM     26  C   UNL     1       5.854   3.371  12.429  0.00  0.00    +0.000 C 
ATOM     27  C   UNL     1       6.952   4.388  12.535  0.00  0.00    +0.000 C 
ENDBRANCH  22  25
ENDBRANCH  20  21
ENDBRANCH  18  20
ENDBRANCH   1  18
TORSDOF 6
ENDMDL
MODEL 6
REMARK VINA RESULT:      -8.2      5.579      8.749
REMARK  Name = 
REMARK  7 active torsions:
REMARK  status: ('A' for Active; 'I' for Inactive)
REMARK    1  A    between atoms: C_1  and  C_2
REMARK    2  A    between atoms: C_2  and  C_3
REMARK    3  A    between atoms: C_2  and  N_21
REMARK    4  A    between atoms: C_3  and  C_4
REMARK    5  A    between atoms: C_7  and  C_8
REMARK    6  A    between atoms: C_9  and  C_10
REMARK    7  A    between atoms: C_22  and  C_24
REMARK                            x       y       z     vdW  Elec       q    Type
REMARK                         _______ _______ _______ _____ _____    ______ ____
ROOT
ATOM      1  C   UNL     1       4.453   6.091  18.326  0.00  0.00    +0.000 A 
ATOM      2  C   UNL     1       3.527   6.070  19.375  0.00  0.00    +0.000 A 
ATOM      3  C   UNL     1       2.470   6.985  19.402  0.00  0.00    +0.000 A 
ATOM      4  C   UNL     1       2.324   7.922  18.377  0.00  0.00    +0.000 A 
ATOM      5  C   UNL     1       3.264   7.976  17.350  0.00  0.00    +0.000 A 
ATOM      6  C   UNL     1       4.327   7.072  17.332  0.00  0.00    +0.000 A 
ENDROOT
BRANCH   4   7
ATOM      7  C   UNL     1       1.186   8.788  18.354  0.00  0.00    +0.000 C 
ATOM      8  C   UNL     1       0.194   9.466  18.327  0.00  0.00    +0.000 C 
BRANCH   8   9
ATOM      9  C   UNL     1      -1.024  10.217  18.325  0.00  0.00    +0.000 A 
ATOM     10  C   UNL     1      -1.325  11.091  19.390  0.00  0.00    +0.000 A 
ATOM     11  C   UNL     1      -2.500  11.847  19.375  0.00  0.00    +0.000 A 
ATOM     12  C   UNL     1      -3.349  11.712  18.294  0.00  0.00    +0.000 A 
ATOM     13  C   UNL     1      -3.063  10.857  17.247  0.00  0.00    +0.000 A 
ATOM     14  C   UNL     1      -1.903  10.098  17.243  0.00  0.00    +0.000 A 
ATOM     15  C   UNL     1      -4.128  10.933  16.228  0.00  0.00    +0.000 C 
ATOM     16  C   UNL     1      -5.084  11.919  16.907  0.00  0.00    +0.000 C 
ATOM     17  O   UNL     1      -4.519  12.402  18.147  0.00  0.00    +0.000 OA
ENDBRANCH   8   9
ENDBRANCH   4   7
BRANCH   1  18
ATOM     18  C   UNL     1       5.549   5.047  18.232  0.00  0.00    +0.000 C 
BRANCH  18  20
ATOM     19  C   UNL     1       5.146   3.767  16.073  0.00  0.00    +0.000 C 
ATOM     20  C   UNL     1       5.069   3.718  17.601  0.00  0.00    +0.000 C 
BRANCH  20  21
ATOM     21  N   UNL     1       3.739   3.305  18.041  0.00  0.00    +0.000 N 
ATOM     22  C   UNL     1       3.519   2.496  19.131  0.00  0.00    +0.000 C 
ATOM     23  O   UNL     1       4.404   2.071  19.866  0.00  0.00    +0.000 OA
ATOM     24  H   UNL     1       2.963   3.523  17.436  0.00  0.00    +0.000 HD
BRANCH  22  25
ATOM     25  C   UNL     1       2.111   2.113  19.419  0.00  0.00    +0.000 C 
ATOM     26  C   UNL     1       1.181   3.154  19.999  0.00  0.00    +0.000 C 
ATOM     27  C   UNL     1       0.889   2.554  18.654  0.00  0.00    +0.000 C 
ENDBRANCH  22  25
ENDBRANCH  20  21
ENDBRANCH  18  20
ENDBRANCH   1  18
TORSDOF 6
ENDMDL
MODEL 7
REMARK VINA RESULT:      -8.2      0.850      1.566
REMARK  Name = 
REMARK  7 active torsions:
REMARK  status: ('A' for Active; 'I' for Inactive)
REMARK    1  A    between atoms: C_1  and  C_2
REMARK    2  A    between atoms: C_2  and  C_3
REMARK    3  A    between atoms: C_2  and  N_21
REMARK    4  A    between atoms: C_3  and  C_4
REMARK    5  A    between atoms: C_7  and  C_8
REMARK    6  A    between atoms: C_9  and  C_10
REMARK    7  A    between atoms: C_22  and  C_24
REMARK                            x       y       z     vdW  Elec       q    Type
REMARK                         _______ _______ _______ _____ _____    ______ ____
ROOT
ATOM      1  C   UNL     1       5.593   5.227  16.983  0.00  0.00    +0.000 A 
ATOM      2  C   UNL     1       6.776   5.019  17.702  0.00  0.00    +0.000 A 
ATOM      3  C   UNL     1       7.607   6.098  18.022  0.00  0.00    +0.000 A 
ATOM      4  C   UNL     1       7.259   7.393  17.635  0.00  0.00    +0.000 A 
ATOM      5  C   UNL     1       6.104   7.604  16.884  0.00  0.00    +0.000 A 
ATOM      6  C   UNL     1       5.283   6.525  16.552  0.00  0.00    +0.000 A 
ENDROOT
BRANCH   4   7
ATOM      7  C   UNL     1       8.058   8.504  18.051  0.00  0.00    +0.000 C 
ATOM      8  C   UNL     1       8.702   9.473  18.355  0.00  0.00    +0.000 C 
BRANCH   8   9
ATOM      9  C   UNL     1       9.411  10.667  18.697  0.00  0.00    +0.000 A 
ATOM     10  C   UNL     1      10.355  11.217  17.806  0.00  0.00    +0.000 A 
ATOM     11  C   UNL     1      11.027  12.400  18.127  0.00  0.00    +0.000 A 
ATOM     12  C   UNL     1      10.738  13.007  19.333  0.00  0.00    +0.000 A 
ATOM     13  C   UNL     1       9.816  12.474  20.212  0.00  0.00    +0.000 A 
ATOM     14  C   UNL     1       9.139  11.303  19.914  0.00  0.00    +0.000 A 
ATOM     15  C   UNL     1       9.695  13.340  21.402  0.00  0.00    +0.000 C 
ATOM     16  C   UNL     1      10.746  14.404  21.072  0.00  0.00    +0.000 C 
ATOM     17  O   UNL     1      11.310  14.171  19.761  0.00  0.00    +0.000 OA
ENDBRANCH   8   9
ENDBRANCH   4   7
BRANCH   1  18
ATOM     18  C   UNL     1       4.636   4.084  16.708  0.00  0.00    +0.000 C 
BRANCH  18  20
ATOM     19  C   UNL     1       4.099   1.716  17.465  0.00  0.00    +0.000 C 
ATOM     20  C   UNL     1       4.465   3.132  17.917  0.00  0.00    +0.000 C 
BRANCH  20  21
ATOM     21  N   UNL     1       3.520   3.618  18.919  0.00  0.00    +0.000 N 
ATOM     22  C   UNL     1       3.431   3.100  20.190  0.00  0.00    +0.000 C 
ATOM     23  O   UNL     1       4.153   2.211  20.626  0.00  0.00    +0.000 OA
ATOM     24  H   UNL     1       2.820   4.276  18.614  0.00  0.00    +0.000 HD
BRANCH  22  25
ATOM     25  C   UNL     1       2.377   3.660  21.078  0.00  0.00    +0.000 C 
ATOM     26  C   UNL     1       0.947   3.668  20.591  0.00  0.00    +0.000 C 
ATOM     27  C   UNL     1       1.317   2.879  21.813  0.00  0.00    +0.000 C 
ENDBRANCH  22  25
ENDBRANCH  20  21
ENDBRANCH  18  20
ENDBRANCH   1  18
TORSDOF 6
ENDMDL
MODEL 8
REMARK VINA RESULT:      -8.1      1.419      1.941
REMARK  Name = 
REMARK  7 active torsions:
REMARK  status: ('A' for Active; 'I' for Inactive)
REMARK    1  A    between atoms: C_1  and  C_2
REMARK    2  A    between atoms: C_2  and  C_3
REMARK    3  A    between atoms: C_2  and  N_21
REMARK    4  A    between atoms: C_3  and  C_4
REMARK    5  A    between atoms: C_7  and  C_8
REMARK    6  A    between atoms: C_9  and  C_10
REMARK    7  A    between atoms: C_22  and  C_24
REMARK                            x       y       z     vdW  Elec       q    Type
REMARK                         _______ _______ _______ _____ _____    ______ ____
ROOT
ATOM      1  C   UNL     1       6.259   5.422  17.414  0.00  0.00    +0.000 A 
ATOM      2  C   UNL     1       6.041   6.585  16.667  0.00  0.00    +0.000 A 
ATOM      3  C   UNL     1       6.755   7.753  16.953  0.00  0.00    +0.000 A 
ATOM      4  C   UNL     1       7.699   7.766  17.981  0.00  0.00    +0.000 A 
ATOM      5  C   UNL     1       7.895   6.624  18.756  0.00  0.00    +0.000 A 
ATOM      6  C   UNL     1       7.170   5.463  18.479  0.00  0.00    +0.000 A 
ENDROOT
BRANCH   4   7
ATOM      7  C   UNL     1       8.499   8.930  18.205  0.00  0.00    +0.000 C 
ATOM      8  C   UNL     1       9.123   9.934  18.424  0.00  0.00    +0.000 C 
BRANCH   8   9
ATOM      9  C   UNL     1       9.831  11.134  18.749  0.00  0.00    +0.000 A 
ATOM     10  C   UNL     1      10.437  11.285  20.013  0.00  0.00    +0.000 A 
ATOM     11  C   UNL     1      11.153  12.446  20.321  0.00  0.00    +0.000 A 
ATOM     12  C   UNL     1      11.247  13.430  19.356  0.00  0.00    +0.000 A 
ATOM     13  C   UNL     1      10.654  13.290  18.116  0.00  0.00    +0.000 A 
ATOM     14  C   UNL     1       9.940  12.148  17.791  0.00  0.00    +0.000 A 
ATOM     15  C   UNL     1      10.935  14.479  17.286  0.00  0.00    +0.000 C 
ATOM     16  C   UNL     1      11.724  15.328  18.288  0.00  0.00    +0.000 C 
ATOM     17  O   UNL     1      11.928  14.602  19.521  0.00  0.00    +0.000 OA
ENDBRANCH   8   9
ENDBRANCH   4   7
BRANCH   1  18
ATOM     18  C   UNL     1       5.563   4.123  17.057  0.00  0.00    +0.000 C 
BRANCH  18  20
ATOM     19  C   UNL     1       3.520   5.587  17.444  0.00  0.00    +0.000 C 
ATOM     20  C   UNL     1       4.042   4.152  17.345  0.00  0.00    +0.000 C 
BRANCH  20  21
ATOM     21  N   UNL     1       3.651   3.374  18.518  0.00  0.00    +0.000 N 
ATOM     22  C   UNL     1       2.343   3.107  18.848  0.00  0.00    +0.000 C 
ATOM     23  O   UNL     1       1.377   3.455  18.180  0.00  0.00    +0.000 OA
ATOM     24  H   UNL     1       4.375   3.137  19.178  0.00  0.00    +0.000 HD
BRANCH  22  25
ATOM     25  C   UNL     1       2.102   2.352  20.107  0.00  0.00    +0.000 C 
ATOM     26  C   UNL     1       2.691   2.881  21.394  0.00  0.00    +0.000 C 
ATOM     27  C   UNL     1       1.202   2.769  21.243  0.00  0.00    +0.000 C 
ENDBRANCH  22  25
ENDBRANCH  20  21
ENDBRANCH  18  20
ENDBRANCH   1  18
TORSDOF 6
ENDMDL
MODEL 9
REMARK VINA RESULT:      -8.1      1.874      2.458
REMARK  Name = 
REMARK  7 active torsions:
REMARK  status: ('A' for Active; 'I' for Inactive)
REMARK    1  A    between atoms: C_1  and  C_2
REMARK    2  A    between atoms: C_2  and  C_3
REMARK    3  A    between atoms: C_2  and  N_21
REMARK    4  A    between atoms: C_3  and  C_4
REMARK    5  A    between atoms: C_7  and  C_8
REMARK    6  A    between atoms: C_9  and  C_10
REMARK    7  A    between atoms: C_22  and  C_24
REMARK                            x       y       z     vdW  Elec       q    Type
REMARK                         _______ _______ _______ _____ _____    ______ ____
ROOT
ATOM      1  C   UNL     1       6.368   5.334  17.547  0.00  0.00    +0.000 A 
ATOM      2  C   UNL     1       5.974   6.453  16.804  0.00  0.00    +0.000 A 
ATOM      3  C   UNL     1       6.599   7.688  17.000  0.00  0.00    +0.000 A 
ATOM      4  C   UNL     1       7.629   7.814  17.934  0.00  0.00    +0.000 A 
ATOM      5  C   UNL     1       8.001   6.716  18.708  0.00  0.00    +0.000 A 
ATOM      6  C   UNL     1       7.365   5.487  18.521  0.00  0.00    +0.000 A 
ENDROOT
BRANCH   4   7
ATOM      7  C   UNL     1       8.335   9.052  18.061  0.00  0.00    +0.000 C 
ATOM      8  C   UNL     1       8.944  10.087  18.106  0.00  0.00    +0.000 C 
BRANCH   8   9
ATOM      9  C   UNL     1       9.651  11.330  18.091  0.00  0.00    +0.000 A 
ATOM     10  C   UNL     1      11.060  11.349  18.032  0.00  0.00    +0.000 A 
ATOM     11  C   UNL     1      11.750  12.564  17.987  0.00  0.00    +0.000 A 
ATOM     12  C   UNL     1      11.015  13.733  18.002  0.00  0.00    +0.000 A 
ATOM     13  C   UNL     1       9.635  13.723  18.060  0.00  0.00    +0.000 A 
ATOM     14  C   UNL     1       8.931  12.530  18.106  0.00  0.00    +0.000 A 
ATOM     15  C   UNL     1       9.119  15.106  18.040  0.00  0.00    +0.000 C 
ATOM     16  C   UNL     1      10.437  15.887  18.026  0.00  0.00    +0.000 C 
ATOM     17  O   UNL     1      11.562  14.984  17.947  0.00  0.00    +0.000 OA
ENDBRANCH   8   9
ENDBRANCH   4   7
BRANCH   1  18
ATOM     18  C   UNL     1       5.765   3.968  17.282  0.00  0.00    +0.000 C 
BRANCH  18  20
ATOM     19  C   UNL     1       3.776   2.417  17.601  0.00  0.00    +0.000 C 
ATOM     20  C   UNL     1       4.406   3.757  17.991  0.00  0.00    +0.000 C 
BRANCH  20  21
ATOM     21  N   UNL     1       3.461   4.852  17.790  0.00  0.00    +0.000 N 
ATOM     22  C   UNL     1       3.149   5.772  18.764  0.00  0.00    +0.000 C 
ATOM     23  O   UNL     1       3.653   5.794  19.880  0.00  0.00    +0.000 OA
ATOM     24  H   UNL     1       2.923   4.849  16.938  0.00  0.00    +0.000 HD
BRANCH  22  25
ATOM     25  C   UNL     1       2.123   6.795  18.427  0.00  0.00    +0.000 C 
ATOM     26  C   UNL     1       2.020   8.031  19.291  0.00  0.00    +0.000 C 
ATOM     27  C   UNL     1       2.379   8.160  17.839  0.00  0.00    +0.000 C 
ENDBRANCH  22  25
ENDBRANCH  20  21
ENDBRANCH  18  20
ENDBRANCH   1  18
TORSDOF 6
ENDMDL
