MODEL 1
REMARK VINA RESULT:      -8.1      0.000      0.000
REMARK  Name = 
REMARK  6 active torsions:
REMARK  status: ('A' for Active; 'I' for Inactive)
REMARK    1  A    between atoms: C_1  and  C_2
REMARK    2  A    between atoms: C_4  and  C_5
REMARK    3  A    between atoms: C_6  and  C_7
REMARK    4  A    between atoms: C_8  and  O_9
REMARK    5  A    between atoms: O_9  and  C_10
REMARK    6  A    between atoms: C_10  and  C_11
REMARK                            x       y       z     vdW  Elec       q    Type
REMARK                         _______ _______ _______ _____ _____    ______ ____
ROOT
ATOM      1  C   UNL     1       2.699   6.338  18.825  0.00  0.00    +0.000 C 
ATOM      2  O   UNL     1       2.112   5.508  19.528  0.00  0.00    +0.000 OA
ATOM      3  N   UNL     1       3.586   5.952  17.826  0.00  0.00    +0.000 N 
ATOM      4  C   UNL     1       4.215   6.895  16.885  0.00  0.00    +0.000 C 
ATOM      5  C   UNL     1       5.590   6.401  16.414  0.00  0.00    +0.000 C 
ATOM      6  N   UNL     1       5.383   5.081  15.824  0.00  0.00    +0.000 N 
ATOM      7  C   UNL     1       6.092   4.754  14.690  0.00  0.00    +0.000 A 
ATOM      8  C   UNL     1       5.577   3.812  13.802  0.00  0.00    +0.000 A 
ATOM      9  C   UNL     1       6.203   3.592  12.577  0.00  0.00    +0.000 A 
ATOM     10  C   UNL     1       7.352   4.303  12.269  0.00  0.00    +0.000 A 
ATOM     11  C   UNL     1       7.817   5.208  13.205  0.00  0.00    +0.000 A 
ATOM     12  N   UNL     1       7.208   5.451  14.386  0.00  0.00    +0.000 NA
ATOM     13  C   UNL     1       4.908   4.070  16.771  0.00  0.00    +0.000 C 
ATOM     14  C   UNL     1       3.573   4.543  17.387  0.00  0.00    +0.000 C 
ENDROOT
BRANCH   1  15
ATOM     15  C   UNL     1       2.378   7.829  18.961  0.00  0.00    +0.000 C 
BRANCH  15  16
ATOM     16  O   UNL     1       1.733   8.153  20.182  0.00  0.00    +0.000 OA
BRANCH  16  24
ATOM     17  C   UNL     1      -1.300  11.286  17.815  0.00  0.00    +0.000 C 
ATOM     18  C   UNL     1      -0.685  10.748  19.073  0.00  0.00    +0.000 A 
ATOM     19  C   UNL     1      -1.053  11.252  20.324  0.00  0.00    +0.000 A 
ATOM     20  C   UNL     1      -0.483  10.752  21.505  0.00  0.00    +0.000 A 
ATOM     21  C   UNL     1      -0.936  11.331  22.819  0.00  0.00    +0.000 C 
ATOM     22  C   UNL     1       0.479   9.719  21.430  0.00  0.00    +0.000 A 
ATOM     23  C   UNL     1       1.150   9.165  22.662  0.00  0.00    +0.000 C 
ATOM     24  C   UNL     1       0.833   9.192  20.167  0.00  0.00    +0.000 A 
ATOM     25  C   UNL     1       0.256   9.716  19.004  0.00  0.00    +0.000 A 
ENDBRANCH  16  24
ENDBRANCH  15  16
ENDBRANCH   1  15
TORSDOF 3
ENDMDL
MODEL 2
REMARK VINA RESULT:      -8.0      1.156      2.210
REMARK  Name = 
REMARK  6 active torsions:
REMARK  status: ('A' for Active; 'I' for Inactive)
REMARK    1  A    between atoms: C_1  and  C_2
REMARK    2  A    between atoms: C_4  and  C_5
REMARK    3  A    between atoms: C_6  and  C_7
REMARK    4  A    between atoms: C_8  and  O_9
REMARK    5  A    between atoms: O_9  and  C_10
REMARK    6  A    between atoms: C_10  and  C_11
REMARK                            x       y       z     vdW  Elec       q    Type
REMARK                         _______ _______ _______ _____ _____    ______ ____
ROOT
ATOM      1  C   UNL     1       3.582   5.507  19.165  0.00  0.00    +0.000 C 
ATOM      2  O   UNL     1       3.122   4.571  19.826  0.00  0.00    +0.000 OA
ATOM      3  N   UNL     1       4.348   5.290  18.025  0.00  0.00    +0.000 N 
ATOM      4  C   UNL     1       4.816   6.371  17.140  0.00  0.00    +0.000 C 
ATOM      5  C   UNL     1       6.137   6.009  16.446  0.00  0.00    +0.000 C 
ATOM      6  N   UNL     1       5.906   4.760  15.725  0.00  0.00    +0.000 N 
ATOM      7  C   UNL     1       6.475   4.608  14.482  0.00  0.00    +0.000 A 
ATOM      8  C   UNL     1       5.886   3.752  13.552  0.00  0.00    +0.000 A 
ATOM      9  C   UNL     1       6.358   3.713  12.242  0.00  0.00    +0.000 A 
ATOM     10  C   UNL     1       7.431   4.515  11.887  0.00  0.00    +0.000 A 
ATOM     11  C   UNL     1       7.978   5.325  12.864  0.00  0.00    +0.000 A 
ATOM     12  N   UNL     1       7.516   5.393  14.133  0.00  0.00    +0.000 NA
ATOM     13  C   UNL     1       5.593   3.620  16.590  0.00  0.00    +0.000 C 
ATOM     14  C   UNL     1       4.332   3.945  17.419  0.00  0.00    +0.000 C 
ENDROOT
BRANCH   1  15
ATOM     15  C   UNL     1       3.226   6.953  19.525  0.00  0.00    +0.000 C 
BRANCH  15  16
ATOM     16  O   UNL     1       1.859   7.263  19.311  0.00  0.00    +0.000 OA
BRANCH  16  24
ATOM     17  C   UNL     1       0.018   9.469  23.356  0.00  0.00    +0.000 C 
ATOM     18  C   UNL     1       0.451   9.504  21.920  0.00  0.00    +0.000 A 
ATOM     19  C   UNL     1       0.407  10.692  21.186  0.00  0.00    +0.000 A 
ATOM     20  C   UNL     1       0.814  10.732  19.842  0.00  0.00    +0.000 A 
ATOM     21  C   UNL     1       0.753  12.049  19.116  0.00  0.00    +0.000 C 
ATOM     22  C   UNL     1       1.277   9.550  19.221  0.00  0.00    +0.000 A 
ATOM     23  C   UNL     1       1.695   9.525  17.772  0.00  0.00    +0.000 C 
ATOM     24  C   UNL     1       1.346   8.354  19.970  0.00  0.00    +0.000 A 
ATOM     25  C   UNL     1       0.925   8.340  21.305  0.00  0.00    +0.000 A 
ENDBRANCH  16  24
ENDBRANCH  15  16
ENDBRANCH   1  15
TORSDOF 3
ENDMDL
MODEL 3
REMARK VINA RESULT:      -7.9      3.324     10.063
REMARK  Name = 
REMARK  6 active torsions:
REMARK  status: ('A' for Active; 'I' for Inactive)
REMARK    1  A    between atoms: C_1  and  C_2
REMARK    2  A    between atoms: C_4  and  C_5
REMARK    3  A    between atoms: C_6  and  C_7
REMARK    4  A    between atoms: C_8  and  O_9
REMARK    5  A    between atoms: O_9  and  C_10
REMARK    6  A    between atoms: C_10  and  C_11
REMARK                            x       y       z     vdW  Elec       q    Type
REMARK                         _______ _______ _______ _____ _____    ______ ____
ROOT
ATOM      1  C   UNL     1       1.632   9.361  18.542  0.00  0.00    +0.000 C 
ATOM      2  O   UNL     1       2.032   9.782  17.452  0.00  0.00    +0.000 OA
ATOM      3  N   UNL     1       0.735  10.084  19.320  0.00  0.00    +0.000 N 
ATOM      4  C   UNL     1       0.138   9.571  20.565  0.00  0.00    +0.000 C 
ATOM      5  C   UNL     1      -0.195  10.702  21.549  0.00  0.00    +0.000 C 
ATOM      6  N   UNL     1      -1.082  11.624  20.845  0.00  0.00    +0.000 N 
ATOM      7  C   UNL     1      -2.126  12.187  21.543  0.00  0.00    +0.000 A 
ATOM      8  C   UNL     1      -3.270  12.599  20.862  0.00  0.00    +0.000 A 
ATOM      9  C   UNL     1      -4.392  13.020  21.572  0.00  0.00    +0.000 A 
ATOM     10  C   UNL     1      -4.344  13.045  22.957  0.00  0.00    +0.000 A 
ATOM     11  C   UNL     1      -3.171  12.640  23.566  0.00  0.00    +0.000 A 
ATOM     12  N   UNL     1      -2.083  12.206  22.892  0.00  0.00    +0.000 NA
ATOM     13  C   UNL     1      -0.468  12.279  19.688  0.00  0.00    +0.000 C 
ATOM     14  C   UNL     1       0.006  11.202  18.689  0.00  0.00    +0.000 C 
ENDROOT
BRANCH   1  15
ATOM     15  C   UNL     1       2.032   7.963  19.023  0.00  0.00    +0.000 C 
BRANCH  15  16
ATOM     16  O   UNL     1       3.204   7.469  18.393  0.00  0.00    +0.000 OA
BRANCH  16  24
ATOM     17  C   UNL     1       1.246   2.910  18.395  0.00  0.00    +0.000 C 
ATOM     18  C   UNL     1       2.311   3.885  17.986  0.00  0.00    +0.000 A 
ATOM     19  C   UNL     1       3.366   3.490  17.159  0.00  0.00    +0.000 A 
ATOM     20  C   UNL     1       4.364   4.398  16.771  0.00  0.00    +0.000 A 
ATOM     21  C   UNL     1       5.463   3.908  15.866  0.00  0.00    +0.000 C 
ATOM     22  C   UNL     1       4.302   5.735  17.225  0.00  0.00    +0.000 A 
ATOM     23  C   UNL     1       5.364   6.746  16.868  0.00  0.00    +0.000 C 
ATOM     24  C   UNL     1       3.221   6.141  18.041  0.00  0.00    +0.000 A 
ATOM     25  C   UNL     1       2.245   5.213  18.420  0.00  0.00    +0.000 A 
ENDBRANCH  16  24
ENDBRANCH  15  16
ENDBRANCH   1  15
TORSDOF 3
ENDMDL
MODEL 4
REMARK VINA RESULT:      -7.8      3.893     10.531
REMARK  Name = 
REMARK  6 active torsions:
REMARK  status: ('A' for Active; 'I' for Inactive)
REMARK    1  A    between atoms: C_1  and  C_2
REMARK    2  A    between atoms: C_4  and  C_5
REMARK    3  A    between atoms: C_6  and  C_7
REMARK    4  A    between atoms: C_8  and  O_9
REMARK    5  A    between atoms: O_9  and  C_10
REMARK    6  A    between atoms: C_10  and  C_11
REMARK                            x       y       z     vdW  Elec       q    Type
REMARK                         _______ _______ _______ _____ _____    ______ ____
ROOT
ATOM      1  C   UNL     1       0.936   9.443  19.885  0.00  0.00    +0.000 C 
ATOM      2  O   UNL     1       1.308   9.742  18.745  0.00  0.00    +0.000 OA
ATOM      3  N   UNL     1       0.002  10.208  20.573  0.00  0.00    +0.000 N 
ATOM      4  C   UNL     1      -0.561   9.827  21.880  0.00  0.00    +0.000 C 
ATOM      5  C   UNL     1      -0.955  11.055  22.713  0.00  0.00    +0.000 C 
ATOM      6  N   UNL     1      -1.896  11.826  21.906  0.00  0.00    +0.000 N 
ATOM      7  C   UNL     1      -2.968  12.414  22.537  0.00  0.00    +0.000 A 
ATOM      8  C   UNL     1      -4.137  12.669  21.821  0.00  0.00    +0.000 A 
ATOM      9  C   UNL     1      -5.279  13.113  22.483  0.00  0.00    +0.000 A 
ATOM     10  C   UNL     1      -5.228  13.320  23.852  0.00  0.00    +0.000 A 
ATOM     11  C   UNL     1      -4.032  13.064  24.496  0.00  0.00    +0.000 A 
ATOM     12  N   UNL     1      -2.922  12.610  23.872  0.00  0.00    +0.000 NA
ATOM     13  C   UNL     1      -1.325  12.361  20.668  0.00  0.00    +0.000 C 
ATOM     14  C   UNL     1      -0.793  11.192  19.811  0.00  0.00    +0.000 C 
ENDROOT
BRANCH   1  15
ATOM     15  C   UNL     1       1.419   8.144  20.537  0.00  0.00    +0.000 C 
BRANCH  15  16
ATOM     16  O   UNL     1       2.521   7.556  19.866  0.00  0.00    +0.000 OA
BRANCH  16  24
ATOM     17  C   UNL     1       1.181   2.980  21.238  0.00  0.00    +0.000 C 
ATOM     18  C   UNL     1       1.867   3.923  20.294  0.00  0.00    +0.000 A 
ATOM     19  C   UNL     1       2.484   3.452  19.131  0.00  0.00    +0.000 A 
ATOM     20  C   UNL     1       3.125   4.329  18.242  0.00  0.00    +0.000 A 
ATOM     21  C   UNL     1       3.757   3.755  17.002  0.00  0.00    +0.000 C 
ATOM     22  C   UNL     1       3.148   5.713  18.527  0.00  0.00    +0.000 A 
ATOM     23  C   UNL     1       3.851   6.699  17.627  0.00  0.00    +0.000 C 
ATOM     24  C   UNL     1       2.502   6.193  19.690  0.00  0.00    +0.000 A 
ATOM     25  C   UNL     1       1.879   5.295  20.563  0.00  0.00    +0.000 A 
ENDBRANCH  16  24
ENDBRANCH  15  16
ENDBRANCH   1  15
TORSDOF 3
ENDMDL
MODEL 5
REMARK VINA RESULT:      -7.7      3.099      5.078
REMARK  Name = 
REMARK  6 active torsions:
REMARK  status: ('A' for Active; 'I' for Inactive)
REMARK    1  A    between atoms: C_1  and  C_2
REMARK    2  A    between atoms: C_4  and  C_5
REMARK    3  A    between atoms: C_6  and  C_7
REMARK    4  A    between atoms: C_8  and  O_9
REMARK    5  A    between atoms: O_9  and  C_10
REMARK    6  A    between atoms: C_10  and  C_11
REMARK                            x       y       z     vdW  Elec       q    Type
REMARK                         _______ _______ _______ _____ _____    ______ ____
ROOT
ATOM      1  C   UNL     1       0.685  10.656  19.948  0.00  0.00    +0.000 C 
ATOM      2  O   UNL     1       0.358  10.897  21.114  0.00  0.00    +0.000 OA
ATOM      3  N   UNL     1       1.215   9.426  19.576  0.00  0.00    +0.000 N 
ATOM      4  C   UNL     1       1.506   9.052  18.181  0.00  0.00    +0.000 C 
ATOM      5  C   UNL     1       2.667   8.050  18.088  0.00  0.00    +0.000 C 
ATOM      6  N   UNL     1       2.295   6.899  18.907  0.00  0.00    +0.000 N 
ATOM      7  C   UNL     1       2.612   5.641  18.448  0.00  0.00    +0.000 A 
ATOM      8  C   UNL     1       1.851   4.546  18.853  0.00  0.00    +0.000 A 
ATOM      9  C   UNL     1       2.060   3.297  18.272  0.00  0.00    +0.000 A 
ATOM     10  C   UNL     1       3.047   3.158  17.309  0.00  0.00    +0.000 A 
ATOM     11  C   UNL     1       3.775   4.282  16.969  0.00  0.00    +0.000 A 
ATOM     12  N   UNL     1       3.569   5.505  17.505  0.00  0.00    +0.000 NA
ATOM     13  C   UNL     1       2.152   7.201  20.333  0.00  0.00    +0.000 C 
ATOM     14  C   UNL     1       1.077   8.294  20.513  0.00  0.00    +0.000 C 
ENDROOT
BRANCH   1  15
ATOM     15  C   UNL     1       0.412  11.682  18.843  0.00  0.00    +0.000 C 
BRANCH  15  16
ATOM     16  O   UNL     1      -0.809  12.381  19.019  0.00  0.00    +0.000 OA
BRANCH  16  24
ATOM     17  C   UNL     1      -2.987   9.960  15.276  0.00  0.00    +0.000 C 
ATOM     18  C   UNL     1      -3.052  10.699  16.579  0.00  0.00    +0.000 A 
ATOM     19  C   UNL     1      -4.269  10.875  17.245  0.00  0.00    +0.000 A 
ATOM     20  C   UNL     1      -4.336  11.564  18.466  0.00  0.00    +0.000 A 
ATOM     21  C   UNL     1      -5.678  11.705  19.135  0.00  0.00    +0.000 C 
ATOM     22  C   UNL     1      -3.154  12.089  19.034  0.00  0.00    +0.000 A 
ATOM     23  C   UNL     1      -3.169  12.867  20.326  0.00  0.00    +0.000 C 
ATOM     24  C   UNL     1      -1.919  11.889  18.375  0.00  0.00    +0.000 A 
ATOM     25  C   UNL     1      -1.882  11.207  17.153  0.00  0.00    +0.000 A 
ENDBRANCH  16  24
ENDBRANCH  15  16
ENDBRANCH   1  15
TORSDOF 3
ENDMDL
MODEL 6
REMARK VINA RESULT:      -7.7      3.486      9.991
REMARK  Name = 
REMARK  6 active torsions:
REMARK  status: ('A' for Active; 'I' for Inactive)
REMARK    1  A    between atoms: C_1  and  C_2
REMARK    2  A    between atoms: C_4  and  C_5
REMARK    3  A    between atoms: C_6  and  C_7
REMARK    4  A    between atoms: C_8  and  O_9
REMARK    5  A    between atoms: O_9  and  C_10
REMARK    6  A    between atoms: C_10  and  C_11
REMARK                            x       y       z     vdW  Elec       q    Type
REMARK                         _______ _______ _______ _____ _____    ______ ____
ROOT
ATOM      1  C   UNL     1       1.801   9.218  18.527  0.00  0.00    +0.000 C 
ATOM      2  O   UNL     1       2.229   9.646  17.450  0.00  0.00    +0.000 OA
ATOM      3  N   UNL     1       0.915   9.955  19.304  0.00  0.00    +0.000 N 
ATOM      4  C   UNL     1       0.284   9.438  20.532  0.00  0.00    +0.000 C 
ATOM      5  C   UNL     1      -0.029  10.563  21.530  0.00  0.00    +0.000 C 
ATOM      6  N   UNL     1      -0.878  11.522  20.830  0.00  0.00    +0.000 N 
ATOM      7  C   UNL     1      -1.915  12.104  21.522  0.00  0.00    +0.000 A 
ATOM      8  C   UNL     1      -3.036  12.561  20.833  0.00  0.00    +0.000 A 
ATOM      9  C   UNL     1      -4.156  13.003  21.534  0.00  0.00    +0.000 A 
ATOM     10  C   UNL     1      -4.127  13.003  22.919  0.00  0.00    +0.000 A 
ATOM     11  C   UNL     1      -2.976  12.554  23.538  0.00  0.00    +0.000 A 
ATOM     12  N   UNL     1      -1.891  12.099  22.873  0.00  0.00    +0.000 NA
ATOM     13  C   UNL     1      -0.228  12.178  19.693  0.00  0.00    +0.000 C 
ATOM     14  C   UNL     1       0.228  11.104  18.682  0.00  0.00    +0.000 C 
ENDROOT
BRANCH   1  15
ATOM     15  C   UNL     1       2.153   7.801  18.989  0.00  0.00    +0.000 C 
BRANCH  15  16
ATOM     16  O   UNL     1       2.133   6.849  17.938  0.00  0.00    +0.000 OA
BRANCH  16  24
ATOM     17  C   UNL     1       7.010   6.014  17.560  0.00  0.00    +0.000 C 
ATOM     18  C   UNL     1       5.594   5.525  17.653  0.00  0.00    +0.000 A 
ATOM     19  C   UNL     1       5.308   4.158  17.687  0.00  0.00    +0.000 A 
ATOM     20  C   UNL     1       3.986   3.694  17.776  0.00  0.00    +0.000 A 
ATOM     21  C   UNL     1       3.751   2.208  17.823  0.00  0.00    +0.000 C 
ATOM     22  C   UNL     1       2.925   4.625  17.832  0.00  0.00    +0.000 A 
ATOM     23  C   UNL     1       1.483   4.186  17.895  0.00  0.00    +0.000 C 
ATOM     24  C   UNL     1       3.215   6.009  17.824  0.00  0.00    +0.000 A 
ATOM     25  C   UNL     1       4.542   6.444  17.725  0.00  0.00    +0.000 A 
ENDBRANCH  16  24
ENDBRANCH  15  16
ENDBRANCH   1  15
TORSDOF 3
ENDMDL
MODEL 7
REMARK VINA RESULT:      -7.6      1.463      2.537
REMARK  Name = 
REMARK  6 active torsions:
REMARK  status: ('A' for Active; 'I' for Inactive)
REMARK    1  A    between atoms: C_1  and  C_2
REMARK    2  A    between atoms: C_4  and  C_5
REMARK    3  A    between atoms: C_6  and  C_7
REMARK    4  A    between atoms: C_8  and  O_9
REMARK    5  A    between atoms: O_9  and  C_10
REMARK    6  A    between atoms: C_10  and  C_11
REMARK                            x       y       z     vdW  Elec       q    Type
REMARK                         _______ _______ _______ _____ _____    ______ ____
ROOT
ATOM      1  C   UNL     1       1.633   4.930  20.248  0.00  0.00    +0.000 C 
ATOM      2  O   UNL     1       0.747   4.086  20.418  0.00  0.00    +0.000 OA
ATOM      3  N   UNL     1       2.620   4.769  19.282  0.00  0.00    +0.000 N 
ATOM      4  C   UNL     1       3.622   5.801  18.961  0.00  0.00    +0.000 C 
ATOM      5  C   UNL     1       4.935   5.184  18.458  0.00  0.00    +0.000 C 
ATOM      6  N   UNL     1       4.597   4.358  17.302  0.00  0.00    +0.000 N 
ATOM      7  C   UNL     1       5.455   4.355  16.227  0.00  0.00    +0.000 A 
ATOM      8  C   UNL     1       4.967   4.068  14.953  0.00  0.00    +0.000 A 
ATOM      9  C   UNL     1       5.790   4.219  13.839  0.00  0.00    +0.000 A 
ATOM     10  C   UNL     1       7.100   4.634  14.019  0.00  0.00    +0.000 A 
ATOM     11  C   UNL     1       7.522   4.884  15.311  0.00  0.00    +0.000 A 
ATOM     12  N   UNL     1       6.730   4.766  16.400  0.00  0.00    +0.000 NA
ATOM     13  C   UNL     1       3.725   3.222  17.613  0.00  0.00    +0.000 C 
ATOM     14  C   UNL     1       2.415   3.747  18.238  0.00  0.00    +0.000 C 
ENDROOT
BRANCH   1  15
ATOM     15  C   UNL     1       1.605   6.247  21.031  0.00  0.00    +0.000 C 
BRANCH  15  16
ATOM     16  O   UNL     1       1.836   7.386  20.219  0.00  0.00    +0.000 OA
BRANCH  16  24
ATOM     17  C   UNL     1      -0.876  10.223  23.255  0.00  0.00    +0.000 C 
ATOM     18  C   UNL     1      -0.219   9.967  21.931  0.00  0.00    +0.000 A 
ATOM     19  C   UNL     1      -0.272  10.917  20.907  0.00  0.00    +0.000 A 
ATOM     20  C   UNL     1       0.343  10.684  19.667  0.00  0.00    +0.000 A 
ATOM     21  C   UNL     1       0.258  11.757  18.614  0.00  0.00    +0.000 C 
ATOM     22  C   UNL     1       1.028   9.468  19.448  0.00  0.00    +0.000 A 
ATOM     23  C   UNL     1       1.678   9.148  18.125  0.00  0.00    +0.000 C 
ATOM     24  C   UNL     1       1.104   8.517  20.491  0.00  0.00    +0.000 A 
ATOM     25  C   UNL     1       0.474   8.771  21.715  0.00  0.00    +0.000 A 
ENDBRANCH  16  24
ENDBRANCH  15  16
ENDBRANCH   1  15
TORSDOF 3
ENDMDL
MODEL 8
REMARK VINA RESULT:      -7.4      3.931      6.477
REMARK  Name = 
REMARK  6 active torsions:
REMARK  status: ('A' for Active; 'I' for Inactive)
REMARK    1  A    between atoms: C_1  and  C_2
REMARK    2  A    between atoms: C_4  and  C_5
REMARK    3  A    between atoms: C_6  and  C_7
REMARK    4  A    between atoms: C_8  and  O_9
REMARK    5  A    between atoms: O_9  and  C_10
REMARK    6  A    between atoms: C_10  and  C_11
REMARK                            x       y       z     vdW  Elec       q    Type
REMARK                         _______ _______ _______ _____ _____    ______ ____
ROOT
ATOM      1  C   UNL     1      -0.445  11.577  21.295  0.00  0.00    +0.000 C 
ATOM      2  O   UNL     1      -0.544  11.933  22.473  0.00  0.00    +0.000 OA
ATOM      3  N   UNL     1       0.220  10.409  20.937  0.00  0.00    +0.000 N 
ATOM      4  C   UNL     1       0.260   9.882  19.562  0.00  0.00    +0.000 C 
ATOM      5  C   UNL     1       1.544   9.084  19.292  0.00  0.00    +0.000 C 
ATOM      6  N   UNL     1       1.599   8.025  20.296  0.00  0.00    +0.000 N 
ATOM      7  C   UNL     1       2.047   6.782  19.910  0.00  0.00    +0.000 A 
ATOM      8  C   UNL     1       1.626   5.650  20.605  0.00  0.00    +0.000 A 
ATOM      9  C   UNL     1       1.942   4.380  20.128  0.00  0.00    +0.000 A 
ATOM     10  C   UNL     1       2.696   4.262  18.972  0.00  0.00    +0.000 A 
ATOM     11  C   UNL     1       3.094   5.427  18.343  0.00  0.00    +0.000 A 
ATOM     12  N   UNL     1       2.776   6.666  18.780  0.00  0.00    +0.000 NA
ATOM     13  C   UNL     1       1.722   8.511  21.672  0.00  0.00    +0.000 C 
ATOM     14  C   UNL     1       0.520   9.425  21.995  0.00  0.00    +0.000 C 
ENDROOT
BRANCH   1  15
ATOM     15  C   UNL     1      -1.155  12.364  20.189  0.00  0.00    +0.000 C 
BRANCH  15  16
ATOM     16  O   UNL     1      -2.569  12.285  20.265  0.00  0.00    +0.000 OA
BRANCH  16  24
ATOM     17  C   UNL     1      -2.743  10.674  15.576  0.00  0.00    +0.000 C 
ATOM     18  C   UNL     1      -3.411  11.192  16.815  0.00  0.00    +0.000 A 
ATOM     19  C   UNL     1      -4.800  11.342  16.872  0.00  0.00    +0.000 A 
ATOM     20  C   UNL     1      -5.432  11.824  18.029  0.00  0.00    +0.000 A 
ATOM     21  C   UNL     1      -6.932  11.947  18.026  0.00  0.00    +0.000 C 
ATOM     22  C   UNL     1      -4.651  12.162  19.157  0.00  0.00    +0.000 A 
ATOM     23  C   UNL     1      -5.271  12.716  20.416  0.00  0.00    +0.000 C 
ATOM     24  C   UNL     1      -3.250  11.986  19.110  0.00  0.00    +0.000 A 
ATOM     25  C   UNL     1      -2.645  11.513  17.939  0.00  0.00    +0.000 A 
ENDBRANCH  16  24
ENDBRANCH  15  16
ENDBRANCH   1  15
TORSDOF 3
ENDMDL
MODEL 9
REMARK VINA RESULT:      -7.4      3.446      9.770
REMARK  Name = 
REMARK  6 active torsions:
REMARK  status: ('A' for Active; 'I' for Inactive)
REMARK    1  A    between atoms: C_1  and  C_2
REMARK    2  A    between atoms: C_4  and  C_5
REMARK    3  A    between atoms: C_6  and  C_7
REMARK    4  A    between atoms: C_8  and  O_9
REMARK    5  A    between atoms: O_9  and  C_10
REMARK    6  A    between atoms: C_10  and  C_11
REMARK                            x       y       z     vdW  Elec       q    Type
REMARK                         _______ _______ _______ _____ _____    ______ ____
ROOT
ATOM      1  C   UNL     1       2.028   8.535  18.575  0.00  0.00    +0.000 C 
ATOM      2  O   UNL     1       2.327   8.732  17.392  0.00  0.00    +0.000 OA
ATOM      3  N   UNL     1       1.233   9.427  19.286  0.00  0.00    +0.000 N 
ATOM      4  C   UNL     1       0.752   9.176  20.656  0.00  0.00    +0.000 C 
ATOM      5  C   UNL     1       0.548  10.483  21.437  0.00  0.00    +0.000 C 
ATOM      6  N   UNL     1      -0.383  11.297  20.661  0.00  0.00    +0.000 N 
ATOM      7  C   UNL     1      -1.337  12.022  21.337  0.00  0.00    +0.000 A 
ATOM      8  C   UNL     1      -2.533  12.351  20.702  0.00  0.00    +0.000 A 
ATOM      9  C   UNL     1      -3.567  12.942  21.424  0.00  0.00    +0.000 A 
ATOM     10  C   UNL     1      -3.379  13.219  22.769  0.00  0.00    +0.000 A 
ATOM     11  C   UNL     1      -2.161  12.883  23.329  0.00  0.00    +0.000 A 
ATOM     12  N   UNL     1      -1.157  12.287  22.649  0.00  0.00    +0.000 NA
ATOM     13  C   UNL     1       0.127  11.701  19.349  0.00  0.00    +0.000 C 
ATOM     14  C   UNL     1       0.471  10.439  18.529  0.00  0.00    +0.000 C 
ENDROOT
BRANCH   1  15
ATOM     15  C   UNL     1       2.441   7.233  19.269  0.00  0.00    +0.000 C 
BRANCH  15  16
ATOM     16  O   UNL     1       2.570   6.140  18.375  0.00  0.00    +0.000 OA
BRANCH  16  24
ATOM     17  C   UNL     1       1.214   2.880  21.861  0.00  0.00    +0.000 C 
ATOM     18  C   UNL     1       1.913   3.220  20.578  0.00  0.00    +0.000 A 
ATOM     19  C   UNL     1       2.548   2.230  19.823  0.00  0.00    +0.000 A 
ATOM     20  C   UNL     1       3.203   2.541  18.620  0.00  0.00    +0.000 A 
ATOM     21  C   UNL     1       3.854   1.423  17.851  0.00  0.00    +0.000 C 
ATOM     22  C   UNL     1       3.219   3.878  18.164  0.00  0.00    +0.000 A 
ATOM     23  C   UNL     1       3.935   4.278  16.897  0.00  0.00    +0.000 C 
ATOM     24  C   UNL     1       2.555   4.876  18.914  0.00  0.00    +0.000 A 
ATOM     25  C   UNL     1       1.919   4.539  20.115  0.00  0.00    +0.000 A 
ENDBRANCH  16  24
ENDBRANCH  15  16
ENDBRANCH   1  15
TORSDOF 3
ENDMDL
