MODEL 1
REMARK VINA RESULT:      -7.8      0.000      0.000
REMARK  Name = 
REMARK  2 active torsions:
REMARK  status: ('A' for Active; 'I' for Inactive)
REMARK    1  A    between atoms: C_2  and  O_3
REMARK    2  A    between atoms: C_2  and  C_4
REMARK                            x       y       z     vdW  Elec       q    Type
REMARK                         _______ _______ _______ _____ _____    ______ ____
ROOT
ATOM      1  C   UNL     1       1.630   4.132  19.559  0.00  0.00    +0.000 A 
ATOM      2  C   UNL     1       1.570   5.197  20.473  0.00  0.00    +0.000 A 
ATOM      3  C   UNL     1       2.057   6.435  20.116  0.00  0.00    +0.000 A 
ATOM      4  C   UNL     1       3.289   6.412  19.502  0.00  0.00    +0.000 A 
ATOM      5  C   UNL     1       3.518   5.319  18.658  0.00  0.00    +0.000 A 
ATOM      6  C   UNL     1       2.628   4.233  18.563  0.00  0.00    +0.000 A 
ATOM      7  N   UNL     1       3.039   3.468  17.453  0.00  0.00    +0.000 N 
ATOM      8  C   UNL     1       4.166   4.045  16.895  0.00  0.00    +0.000 A 
ATOM      9  C   UNL     1       5.093   4.124  15.795  0.00  0.00    +0.000 A 
ATOM     10  C   UNL     1       5.293   3.599  14.509  0.00  0.00    +0.000 A 
ATOM     11  C   UNL     1       6.399   4.056  13.763  0.00  0.00    +0.000 A 
ATOM     12 BR   UNL     1       6.629   3.518  11.963  0.00  0.00    +0.000 Br
ATOM     13  C   UNL     1       7.342   4.953  14.291  0.00  0.00    +0.000 A 
ATOM     14  C   UNL     1       7.161   5.469  15.569  0.00  0.00    +0.000 A 
ATOM     15  C   UNL     1       6.010   5.067  16.245  0.00  0.00    +0.000 A 
ATOM     16  O   UNL     1       5.686   5.617  17.427  0.00  0.00    +0.000 OA
ATOM     17  C   UNL     1       4.515   5.034  17.742  0.00  0.00    +0.000 A 
ATOM     18  H   UNL     1       2.571   2.626  17.105  0.00  0.00    +0.000 HD
ENDROOT
BRANCH   1  20
ATOM     19  O   UNL     1       0.287   2.270  18.979  0.00  0.00    +0.000 OA
ATOM     20  C   UNL     1       0.802   2.951  19.845  0.00  0.00    +0.000 C 
BRANCH  20  21
ATOM     21  O   UNL     1       0.672   2.703  21.175  0.00  0.00    +0.000 OA
ATOM     22  H   UNL     1       1.504   2.649  21.682  0.00  0.00    +0.000 HD
ENDBRANCH  20  21
ENDBRANCH   1  20
TORSDOF 2
ENDMDL
MODEL 2
REMARK VINA RESULT:      -7.8      4.324      6.673
REMARK  Name = 
REMARK  2 active torsions:
REMARK  status: ('A' for Active; 'I' for Inactive)
REMARK    1  A    between atoms: C_2  and  O_3
REMARK    2  A    between atoms: C_2  and  C_4
REMARK                            x       y       z     vdW  Elec       q    Type
REMARK                         _______ _______ _______ _____ _____    ______ ____
ROOT
ATOM      1  C   UNL     1       4.347   4.209  19.132  0.00  0.00    +0.000 A 
ATOM      2  C   UNL     1       5.242   4.225  18.051  0.00  0.00    +0.000 A 
ATOM      3  C   UNL     1       5.709   5.426  17.565  0.00  0.00    +0.000 A 
ATOM      4  C   UNL     1       4.740   6.389  17.388  0.00  0.00    +0.000 A 
ATOM      5  C   UNL     1       3.713   6.390  18.340  0.00  0.00    +0.000 A 
ATOM      6  C   UNL     1       3.582   5.383  19.315  0.00  0.00    +0.000 A 
ATOM      7  N   UNL     1       2.619   5.838  20.239  0.00  0.00    +0.000 N 
ATOM      8  C   UNL     1       2.149   7.074  19.834  0.00  0.00    +0.000 A 
ATOM      9  C   UNL     1       1.406   8.269  20.140  0.00  0.00    +0.000 A 
ATOM     10  C   UNL     1       0.737   8.883  21.211  0.00  0.00    +0.000 A 
ATOM     11  C   UNL     1       0.174  10.160  21.006  0.00  0.00    +0.000 A 
ATOM     12 BR   UNL     1      -0.590  11.114  22.451  0.00  0.00    +0.000 Br
ATOM     13  C   UNL     1       0.193  10.797  19.755  0.00  0.00    +0.000 A 
ATOM     14  C   UNL     1       0.839  10.191  18.684  0.00  0.00    +0.000 A 
ATOM     15  C   UNL     1       1.464   8.973  18.942  0.00  0.00    +0.000 A 
ATOM     16  O   UNL     1       2.225   8.383  18.005  0.00  0.00    +0.000 OA
ATOM     17  C   UNL     1       2.692   7.280  18.618  0.00  0.00    +0.000 A 
ATOM     18  H   UNL     1       2.325   5.340  21.084  0.00  0.00    +0.000 HD
ENDROOT
BRANCH   1  20
ATOM     19  O   UNL     1       3.151   2.656  20.463  0.00  0.00    +0.000 OA
ATOM     20  C   UNL     1       4.152   2.927  19.827  0.00  0.00    +0.000 C 
BRANCH  20  21
ATOM     21  O   UNL     1       5.207   2.081  19.687  0.00  0.00    +0.000 OA
ATOM     22  H   UNL     1       5.249   1.344  20.325  0.00  0.00    +0.000 HD
ENDBRANCH  20  21
ENDBRANCH   1  20
TORSDOF 2
ENDMDL
MODEL 3
REMARK VINA RESULT:      -7.6      4.596      6.118
REMARK  Name = 
REMARK  2 active torsions:
REMARK  status: ('A' for Active; 'I' for Inactive)
REMARK    1  A    between atoms: C_2  and  O_3
REMARK    2  A    between atoms: C_2  and  C_4
REMARK                            x       y       z     vdW  Elec       q    Type
REMARK                         _______ _______ _______ _____ _____    ______ ____
ROOT
ATOM      1  C   UNL     1      -0.255  10.229  21.483  0.00  0.00    +0.000 A 
ATOM      2  C   UNL     1      -0.772  11.199  20.609  0.00  0.00    +0.000 A 
ATOM      3  C   UNL     1      -0.941  10.901  19.276  0.00  0.00    +0.000 A 
ATOM      4  C   UNL     1       0.129  10.262  18.690  0.00  0.00    +0.000 A 
ATOM      5  C   UNL     1       0.811   9.357  19.511  0.00  0.00    +0.000 A 
ATOM      6  C   UNL     1       0.535   9.221  20.885  0.00  0.00    +0.000 A 
ATOM      7  N   UNL     1       1.211   8.064  21.321  0.00  0.00    +0.000 N 
ATOM      8  C   UNL     1       1.907   7.516  20.258  0.00  0.00    +0.000 A 
ATOM      9  C   UNL     1       2.641   6.405  19.709  0.00  0.00    +0.000 A 
ATOM     10  C   UNL     1       3.011   5.089  20.027  0.00  0.00    +0.000 A 
ATOM     11  C   UNL     1       3.738   4.347  19.073  0.00  0.00    +0.000 A 
ATOM     12 BR   UNL     1       4.119   2.517  19.369  0.00  0.00    +0.000 Br
ATOM     13  C   UNL     1       4.167   4.905  17.857  0.00  0.00    +0.000 A 
ATOM     14  C   UNL     1       3.819   6.212  17.538  0.00  0.00    +0.000 A 
ATOM     15  C   UNL     1       3.023   6.887  18.462  0.00  0.00    +0.000 A 
ATOM     16  O   UNL     1       2.528   8.103  18.177  0.00  0.00    +0.000 OA
ATOM     17  C   UNL     1       1.785   8.409  19.255  0.00  0.00    +0.000 A 
ATOM     18  H   UNL     1       1.181   7.680  22.270  0.00  0.00    +0.000 HD
ENDROOT
BRANCH   1  20
ATOM     19  O   UNL     1      -1.196  11.278  23.387  0.00  0.00    +0.000 OA
ATOM     20  C   UNL     1      -0.415  10.467  22.926  0.00  0.00    +0.000 C 
BRANCH  20  21
ATOM     21  O   UNL     1       0.400   9.690  23.687  0.00  0.00    +0.000 OA
ATOM     22  H   UNL     1       1.352   9.902  23.643  0.00  0.00    +0.000 HD
ENDBRANCH  20  21
ENDBRANCH   1  20
TORSDOF 2
ENDMDL
MODEL 4
REMARK VINA RESULT:      -7.4      3.985      5.228
REMARK  Name = 
REMARK  2 active torsions:
REMARK  status: ('A' for Active; 'I' for Inactive)
REMARK    1  A    between atoms: C_2  and  O_3
REMARK    2  A    between atoms: C_2  and  C_4
REMARK                            x       y       z     vdW  Elec       q    Type
REMARK                         _______ _______ _______ _____ _____    ______ ____
ROOT
ATOM      1  C   UNL     1       0.318  10.088  19.485  0.00  0.00    +0.000 A 
ATOM      2  C   UNL     1      -0.050  10.159  20.838  0.00  0.00    +0.000 A 
ATOM      3  C   UNL     1       0.798   9.666  21.805  0.00  0.00    +0.000 A 
ATOM      4  C   UNL     1       1.328   8.426  21.525  0.00  0.00    +0.000 A 
ATOM      5  C   UNL     1       1.618   8.187  20.177  0.00  0.00    +0.000 A 
ATOM      6  C   UNL     1       1.248   9.078  19.152  0.00  0.00    +0.000 A 
ATOM      7  N   UNL     1       1.917   8.654  17.986  0.00  0.00    +0.000 N 
ATOM      8  C   UNL     1       2.656   7.520  18.273  0.00  0.00    +0.000 A 
ATOM      9  C   UNL     1       3.671   6.579  17.876  0.00  0.00    +0.000 A 
ATOM     10  C   UNL     1       4.605   6.363  16.850  0.00  0.00    +0.000 A 
ATOM     11  C   UNL     1       5.462   5.247  16.947  0.00  0.00    +0.000 A 
ATOM     12 BR   UNL     1       6.853   4.995  15.689  0.00  0.00    +0.000 Br
ATOM     13  C   UNL     1       5.359   4.310  17.988  0.00  0.00    +0.000 A 
ATOM     14  C   UNL     1       4.428   4.506  19.001  0.00  0.00    +0.000 A 
ATOM     15  C   UNL     1       3.659   5.666  18.924  0.00  0.00    +0.000 A 
ATOM     16  O   UNL     1       2.831   6.004  19.927  0.00  0.00    +0.000 OA
ATOM     17  C   UNL     1       2.311   7.180  19.531  0.00  0.00    +0.000 A 
ATOM     18  H   UNL     1       1.876   9.119  17.075  0.00  0.00    +0.000 HD
ENDROOT
BRANCH   1  20
ATOM     19  O   UNL     1      -0.742  12.079  18.759  0.00  0.00    +0.000 OA
ATOM     20  C   UNL     1      -0.438  10.922  18.537  0.00  0.00    +0.000 C 
BRANCH  20  21
ATOM     21  O   UNL     1      -0.763  10.264  17.393  0.00  0.00    +0.000 OA
ATOM     22  H   UNL     1      -1.520  10.626  16.894  0.00  0.00    +0.000 HD
ENDBRANCH  20  21
ENDBRANCH   1  20
TORSDOF 2
ENDMDL
MODEL 5
REMARK VINA RESULT:      -7.4      4.276      6.268
REMARK  Name = 
REMARK  2 active torsions:
REMARK  status: ('A' for Active; 'I' for Inactive)
REMARK    1  A    between atoms: C_2  and  O_3
REMARK    2  A    between atoms: C_2  and  C_4
REMARK                            x       y       z     vdW  Elec       q    Type
REMARK                         _______ _______ _______ _____ _____    ______ ____
ROOT
ATOM      1  C   UNL     1       2.991   3.815  20.431  0.00  0.00    +0.000 A 
ATOM      2  C   UNL     1       3.964   3.273  19.577  0.00  0.00    +0.000 A 
ATOM      3  C   UNL     1       4.860   4.105  18.943  0.00  0.00    +0.000 A 
ATOM      4  C   UNL     1       4.296   5.222  18.365  0.00  0.00    +0.000 A 
ATOM      5  C   UNL     1       3.222   5.782  19.065  0.00  0.00    +0.000 A 
ATOM      6  C   UNL     1       2.645   5.165  20.191  0.00  0.00    +0.000 A 
ATOM      7  N   UNL     1       1.785   6.115  20.778  0.00  0.00    +0.000 N 
ATOM      8  C   UNL     1       1.807   7.274  20.023  0.00  0.00    +0.000 A 
ATOM      9  C   UNL     1       1.474   8.670  19.901  0.00  0.00    +0.000 A 
ATOM     10  C   UNL     1       0.924   9.721  20.652  0.00  0.00    +0.000 A 
ATOM     11  C   UNL     1       0.848  11.000  20.061  0.00  0.00    +0.000 A 
ATOM     12 BR   UNL     1       0.277  12.492  21.075  0.00  0.00    +0.000 Br
ATOM     13  C   UNL     1       1.229  11.235  18.730  0.00  0.00    +0.000 A 
ATOM     14  C   UNL     1       1.761  10.198  17.973  0.00  0.00    +0.000 A 
ATOM     15  C   UNL     1       1.907   8.970  18.615  0.00  0.00    +0.000 A 
ATOM     16  O   UNL     1       2.535   7.950  18.005  0.00  0.00    +0.000 OA
ATOM     17  C   UNL     1       2.531   6.972  18.927  0.00  0.00    +0.000 A 
ATOM     18  H   UNL     1       1.242   5.976  21.634  0.00  0.00    +0.000 HD
ENDROOT
BRANCH   1  20
ATOM     19  O   UNL     1       2.878   2.152  22.114  0.00  0.00    +0.000 OA
ATOM     20  C   UNL     1       2.298   2.888  21.338  0.00  0.00    +0.000 C 
BRANCH  20  21
ATOM     21  O   UNL     1       0.945   2.936  21.216  0.00  0.00    +0.000 OA
ATOM     22  H   UNL     1       0.490   3.590  21.779  0.00  0.00    +0.000 HD
ENDBRANCH  20  21
ENDBRANCH   1  20
TORSDOF 2
ENDMDL
MODEL 6
REMARK VINA RESULT:      -7.4      3.725      6.709
REMARK  Name = 
REMARK  2 active torsions:
REMARK  status: ('A' for Active; 'I' for Inactive)
REMARK    1  A    between atoms: C_2  and  O_3
REMARK    2  A    between atoms: C_2  and  C_4
REMARK                            x       y       z     vdW  Elec       q    Type
REMARK                         _______ _______ _______ _____ _____    ______ ____
ROOT
ATOM      1  C   UNL     1       4.157   4.226  17.164  0.00  0.00    +0.000 A 
ATOM      2  C   UNL     1       3.950   2.939  17.688  0.00  0.00    +0.000 A 
ATOM      3  C   UNL     1       2.803   2.664  18.398  0.00  0.00    +0.000 A 
ATOM      4  C   UNL     1       2.468   3.614  19.338  0.00  0.00    +0.000 A 
ATOM      5  C   UNL     1       2.748   4.937  18.979  0.00  0.00    +0.000 A 
ATOM      6  C   UNL     1       3.469   5.273  17.818  0.00  0.00    +0.000 A 
ATOM      7  N   UNL     1       3.335   6.666  17.646  0.00  0.00    +0.000 N 
ATOM      8  C   UNL     1       2.579   7.181  18.684  0.00  0.00    +0.000 A 
ATOM      9  C   UNL     1       1.837   8.284  19.237  0.00  0.00    +0.000 A 
ATOM     10  C   UNL     1       1.398   9.573  18.895  0.00  0.00    +0.000 A 
ATOM     11  C   UNL     1       0.609  10.282  19.825  0.00  0.00    +0.000 A 
ATOM     12 BR   UNL     1      -0.155  11.949  19.358  0.00  0.00    +0.000 Br
ATOM     13  C   UNL     1       0.317   9.776  21.101  0.00  0.00    +0.000 A 
ATOM     14  C   UNL     1       0.759   8.507  21.456  0.00  0.00    +0.000 A 
ATOM     15  C   UNL     1       1.458   7.796  20.482  0.00  0.00    +0.000 A 
ATOM     16  O   UNL     1       1.805   6.515  20.689  0.00  0.00    +0.000 OA
ATOM     17  C   UNL     1       2.404   6.154  19.540  0.00  0.00    +0.000 A 
ATOM     18  H   UNL     1       3.722   7.209  16.870  0.00  0.00    +0.000 HD
ENDROOT
BRANCH   1  20
ATOM     19  O   UNL     1       5.367   5.397  15.499  0.00  0.00    +0.000 OA
ATOM     20  C   UNL     1       5.202   4.377  16.140  0.00  0.00    +0.000 C 
BRANCH  20  21
ATOM     21  O   UNL     1       5.959   3.258  15.984  0.00  0.00    +0.000 OA
ATOM     22  H   UNL     1       6.287   3.089  15.080  0.00  0.00    +0.000 HD
ENDBRANCH  20  21
ENDBRANCH   1  20
TORSDOF 2
ENDMDL
MODEL 7
REMARK VINA RESULT:      -7.4      3.876      6.978
REMARK  Name = 
REMARK  2 active torsions:
REMARK  status: ('A' for Active; 'I' for Inactive)
REMARK    1  A    between atoms: C_2  and  O_3
REMARK    2  A    between atoms: C_2  and  C_4
REMARK                            x       y       z     vdW  Elec       q    Type
REMARK                         _______ _______ _______ _____ _____    ______ ____
ROOT
ATOM      1  C   UNL     1       4.729   5.100  16.779  0.00  0.00    +0.000 A 
ATOM      2  C   UNL     1       4.706   3.767  17.221  0.00  0.00    +0.000 A 
ATOM      3  C   UNL     1       3.602   3.285  17.888  0.00  0.00    +0.000 A 
ATOM      4  C   UNL     1       3.119   4.116  18.875  0.00  0.00    +0.000 A 
ATOM      5  C   UNL     1       3.207   5.485  18.601  0.00  0.00    +0.000 A 
ATOM      6  C   UNL     1       3.887   5.993  17.478  0.00  0.00    +0.000 A 
ATOM      7  N   UNL     1       3.553   7.360  17.387  0.00  0.00    +0.000 N 
ATOM      8  C   UNL     1       2.716   7.695  18.436  0.00  0.00    +0.000 A 
ATOM      9  C   UNL     1       1.813   8.642  19.037  0.00  0.00    +0.000 A 
ATOM     10  C   UNL     1       1.195   9.872  18.762  0.00  0.00    +0.000 A 
ATOM     11  C   UNL     1       0.298  10.400  19.714  0.00  0.00    +0.000 A 
ATOM     12 BR   UNL     1      -0.695  11.964  19.330  0.00  0.00    +0.000 Br
ATOM     13  C   UNL     1       0.066   9.779  20.952  0.00  0.00    +0.000 A 
ATOM     14  C   UNL     1       0.684   8.568  21.241  0.00  0.00    +0.000 A 
ATOM     15  C   UNL     1       1.493   8.028  20.242  0.00  0.00    +0.000 A 
ATOM     16  O   UNL     1       2.021   6.800  20.380  0.00  0.00    +0.000 OA
ATOM     17  C   UNL     1       2.681   6.602  19.225  0.00  0.00    +0.000 A 
ATOM     18  H   UNL     1       3.867   8.000  16.652  0.00  0.00    +0.000 HD
ENDROOT
BRANCH   1  20
ATOM     19  O   UNL     1       6.741   4.787  15.569  0.00  0.00    +0.000 OA
ATOM     20  C   UNL     1       5.754   5.464  15.790  0.00  0.00    +0.000 C 
BRANCH  20  21
ATOM     21  O   UNL     1       5.486   6.633  15.151  0.00  0.00    +0.000 OA
ATOM     22  H   UNL     1       4.607   7.020  15.324  0.00  0.00    +0.000 HD
ENDBRANCH  20  21
ENDBRANCH   1  20
TORSDOF 2
ENDMDL
MODEL 8
REMARK VINA RESULT:      -7.1      4.004      6.753
REMARK  Name = 
REMARK  2 active torsions:
REMARK  status: ('A' for Active; 'I' for Inactive)
REMARK    1  A    between atoms: C_2  and  O_3
REMARK    2  A    between atoms: C_2  and  C_4
REMARK                            x       y       z     vdW  Elec       q    Type
REMARK                         _______ _______ _______ _____ _____    ______ ____
ROOT
ATOM      1  C   UNL     1       3.632   4.190  18.809  0.00  0.00    +0.000 A 
ATOM      2  C   UNL     1       3.254   3.096  19.605  0.00  0.00    +0.000 A 
ATOM      3  C   UNL     1       2.023   3.091  20.222  0.00  0.00    +0.000 A 
ATOM      4  C   UNL     1       1.693   4.270  20.854  0.00  0.00    +0.000 A 
ATOM      5  C   UNL     1       2.132   5.436  20.217  0.00  0.00    +0.000 A 
ATOM      6  C   UNL     1       2.989   5.414  19.100  0.00  0.00    +0.000 A 
ATOM      7  N   UNL     1       3.007   6.723  18.578  0.00  0.00    +0.000 N 
ATOM      8  C   UNL     1       2.209   7.536  19.363  0.00  0.00    +0.000 A 
ATOM      9  C   UNL     1       1.527   8.793  19.538  0.00  0.00    +0.000 A 
ATOM     10  C   UNL     1       1.249   9.979  18.841  0.00  0.00    +0.000 A 
ATOM     11  C   UNL     1       0.446  10.954  19.470  0.00  0.00    +0.000 A 
ATOM     12 BR   UNL     1      -0.106  12.497  18.523  0.00  0.00    +0.000 Br
ATOM     13  C   UNL     1      -0.013  10.811  20.789  0.00  0.00    +0.000 A 
ATOM     14  C   UNL     1       0.268   9.646  21.493  0.00  0.00    +0.000 A 
ATOM     15  C   UNL     1       0.986   8.665  20.812  0.00  0.00    +0.000 A 
ATOM     16  O   UNL     1       1.187   7.457  21.366  0.00  0.00    +0.000 OA
ATOM     17  C   UNL     1       1.854   6.776  20.418  0.00  0.00    +0.000 A 
ATOM     18  H   UNL     1       3.517   7.023  17.743  0.00  0.00    +0.000 HD
ENDROOT
BRANCH   1  20
ATOM     19  O   UNL     1       4.696   4.068  16.696  0.00  0.00    +0.000 OA
ATOM     20  C   UNL     1       4.780   4.003  17.908  0.00  0.00    +0.000 C 
BRANCH  20  21
ATOM     21  O   UNL     1       5.939   3.746  18.569  0.00  0.00    +0.000 OA
ATOM     22  H   UNL     1       6.113   2.809  18.776  0.00  0.00    +0.000 HD
ENDBRANCH  20  21
ENDBRANCH   1  20
TORSDOF 2
ENDMDL
