MODEL 1
REMARK VINA RESULT:      -7.5      0.000      0.000
REMARK  Name = 
REMARK  8 active torsions:
REMARK  status: ('A' for Active; 'I' for Inactive)
REMARK    1  A    between atoms: C_1  and  C_2
REMARK    2  A    between atoms: C_2  and  C_3
REMARK    3  A    between atoms: C_2  and  O_4
REMARK    4  A    between atoms: O_4  and  C_5
REMARK    5  A    between atoms: N_7  and  C_8
REMARK    6  A    between atoms: C_15  and  C_17
REMARK    7  A    between atoms: C_17  and  C_18
REMARK    8  A    between atoms: C_18  and  N_19
REMARK                            x       y       z     vdW  Elec       q    Type
REMARK                         _______ _______ _______ _____ _____    ______ ____
ROOT
ATOM      1  C   UNL     1      -3.304  11.556  17.286  0.00  0.00    +0.000 A 
ATOM      2  C   UNL     1      -2.840  10.408  16.659  0.00  0.00    +0.000 A 
ATOM      3  C   UNL     1      -1.653   9.815  17.065  0.00  0.00    +0.000 A 
ATOM      4  C   UNL     1      -0.899  10.327  18.136  0.00  0.00    +0.000 A 
ATOM      5  C   UNL     1      -1.364  11.502  18.821  0.00  0.00    +0.000 A 
ATOM      6  C   UNL     1      -2.573  12.090  18.362  0.00  0.00    +0.000 A 
ATOM      7  N   UNL     1      -0.726  12.014  20.014  0.00  0.00    +0.000 N 
ATOM      8  C   UNL     1      -0.596  13.365  20.324  0.00  0.00    +0.000 C 
ATOM      9  O   UNL     1      -0.107  13.679  21.404  0.00  0.00    +0.000 OA
ATOM     10  C   UNL     1      -0.424  11.062  21.045  0.00  0.00    +0.000 A 
ATOM     11  C   UNL     1      -1.109  11.142  22.273  0.00  0.00    +0.000 A 
ATOM     12  C   UNL     1      -0.856  10.228  23.295  0.00  0.00    +0.000 A 
ATOM     13  C   UNL     1       0.098   9.228  23.114  0.00  0.00    +0.000 A 
ATOM     14  C   UNL     1       0.793   9.143  21.912  0.00  0.00    +0.000 A 
ATOM     15  C   UNL     1       0.529  10.048  20.862  0.00  0.00    +0.000 A 
ATOM     16  C   UNL     1       1.272   9.980  19.571  0.00  0.00    +0.000 C 
ATOM     17  C   UNL     1       0.356   9.522  18.443  0.00  0.00    +0.000 C 
ENDROOT
BRANCH   1  20
ATOM     18  C   UNL     1      -5.712  11.975  17.532  0.00  0.00    +0.000 C 
ATOM     19  O   UNL     1      -6.726  12.495  17.083  0.00  0.00    +0.000 OA
ATOM     20  N   UNL     1      -4.541  12.120  16.857  0.00  0.00    +0.000 N 
ATOM     21  H   UNL     1      -4.529  12.745  16.037  0.00  0.00    +0.000 HD
BRANCH  18  22
ATOM     22  O   UNL     1      -5.733  11.371  18.751  0.00  0.00    +0.000 OA
BRANCH  22  24
ATOM     23  C   UNL     1      -7.279  10.455  20.273  0.00  0.00    +0.000 C 
ATOM     24  C   UNL     1      -6.569  11.707  19.808  0.00  0.00    +0.000 C 
ATOM     25  C   UNL     1      -5.735  12.290  20.956  0.00  0.00    +0.000 C 
ENDBRANCH  22  24
ENDBRANCH  18  22
ENDBRANCH   1  20
BRANCH   8  26
ATOM     26  C   UNL     1      -1.016  14.521  19.434  0.00  0.00    +0.000 C 
BRANCH  26  27
ATOM     27  C   UNL     1       0.100  15.206  18.618  0.00  0.00    +0.000 C 
BRANCH  27  28
ATOM     28  N   UNL     1       1.365  15.324  19.388  0.00  0.00    +0.000 NA
ATOM     29  C   UNL     1       1.436  16.554  20.195  0.00  0.00    +0.000 C 
ATOM     30  C   UNL     1       1.601  17.784  19.286  0.00  0.00    +0.000 C 
ATOM     31  O   UNL     1       2.785  17.677  18.515  0.00  0.00    +0.000 OA
ATOM     32  C   UNL     1       2.735  16.524  17.691  0.00  0.00    +0.000 C 
ATOM     33  C   UNL     1       2.568  15.246  18.531  0.00  0.00    +0.000 C 
ENDBRANCH  27  28
ENDBRANCH  26  27
ENDBRANCH   8  26
TORSDOF 6
ENDMDL
MODEL 2
REMARK VINA RESULT:      -7.4      0.956      1.373
REMARK  Name = 
REMARK  8 active torsions:
REMARK  status: ('A' for Active; 'I' for Inactive)
REMARK    1  A    between atoms: C_1  and  C_2
REMARK    2  A    between atoms: C_2  and  C_3
REMARK    3  A    between atoms: C_2  and  O_4
REMARK    4  A    between atoms: O_4  and  C_5
REMARK    5  A    between atoms: N_7  and  C_8
REMARK    6  A    between atoms: C_15  and  C_17
REMARK    7  A    between atoms: C_17  and  C_18
REMARK    8  A    between atoms: C_18  and  N_19
REMARK                            x       y       z     vdW  Elec       q    Type
REMARK                         _______ _______ _______ _____ _____    ______ ____
ROOT
ATOM      1  C   UNL     1      -3.602  11.564  17.438  0.00  0.00    +0.000 A 
ATOM      2  C   UNL     1      -3.225  10.420  16.748  0.00  0.00    +0.000 A 
ATOM      3  C   UNL     1      -2.008   9.808  17.012  0.00  0.00    +0.000 A 
ATOM      4  C   UNL     1      -1.135  10.295  18.002  0.00  0.00    +0.000 A 
ATOM      5  C   UNL     1      -1.506  11.465  18.750  0.00  0.00    +0.000 A 
ATOM      6  C   UNL     1      -2.751  12.073  18.435  0.00  0.00    +0.000 A 
ATOM      7  N   UNL     1      -0.736  11.950  19.873  0.00  0.00    +0.000 N 
ATOM      8  C   UNL     1      -0.555  13.295  20.187  0.00  0.00    +0.000 C 
ATOM      9  O   UNL     1       0.053  13.587  21.211  0.00  0.00    +0.000 OA
ATOM     10  C   UNL     1      -0.334  10.979  20.851  0.00  0.00    +0.000 A 
ATOM     11  C   UNL     1      -0.880  11.047  22.149  0.00  0.00    +0.000 A 
ATOM     12  C   UNL     1      -0.529  10.115  23.123  0.00  0.00    +0.000 A 
ATOM     13  C   UNL     1       0.387   9.108  22.824  0.00  0.00    +0.000 A 
ATOM     14  C   UNL     1       0.945   9.034  21.553  0.00  0.00    +0.000 A 
ATOM     15  C   UNL     1       0.579   9.957  20.551  0.00  0.00    +0.000 A 
ATOM     16  C   UNL     1       1.176   9.902  19.186  0.00  0.00    +0.000 C 
ATOM     17  C   UNL     1       0.136   9.472  18.158  0.00  0.00    +0.000 C 
ENDROOT
BRANCH   1  20
ATOM     18  C   UNL     1      -6.038  11.731  17.717  0.00  0.00    +0.000 C 
ATOM     19  O   UNL     1      -7.080  12.294  17.409  0.00  0.00    +0.000 OA
ATOM     20  N   UNL     1      -4.871  12.148  17.156  0.00  0.00    +0.000 N 
ATOM     21  H   UNL     1      -4.895  12.990  16.561  0.00  0.00    +0.000 HD
BRANCH  18  22
ATOM     22  O   UNL     1      -6.029  10.789  18.698  0.00  0.00    +0.000 OA
BRANCH  22  24
ATOM     23  C   UNL     1      -6.971   8.875  19.696  0.00  0.00    +0.000 C 
ATOM     24  C   UNL     1      -7.138  10.352  19.410  0.00  0.00    +0.000 C 
ATOM     25  C   UNL     1      -7.242  11.129  20.728  0.00  0.00    +0.000 C 
ENDBRANCH  22  24
ENDBRANCH  18  22
ENDBRANCH   1  20
BRANCH   8  26
ATOM     26  C   UNL     1      -1.055  14.469  19.364  0.00  0.00    +0.000 C 
BRANCH  26  27
ATOM     27  C   UNL     1      -0.879  15.871  19.984  0.00  0.00    +0.000 C 
BRANCH  27  28
ATOM     28  N   UNL     1      -0.172  16.804  19.069  0.00  0.00    +0.000 NA
ATOM     29  C   UNL     1       1.168  16.330  18.686  0.00  0.00    +0.000 C 
ATOM     30  C   UNL     1       2.128  16.409  19.885  0.00  0.00    +0.000 C 
ATOM     31  O   UNL     1       2.234  17.742  20.351  0.00  0.00    +0.000 OA
ATOM     32  C   UNL     1       0.966  18.219  20.771  0.00  0.00    +0.000 C 
ATOM     33  C   UNL     1      -0.055  18.171  19.621  0.00  0.00    +0.000 C 
ENDBRANCH  27  28
ENDBRANCH  26  27
ENDBRANCH   8  26
TORSDOF 6
ENDMDL
MODEL 3
REMARK VINA RESULT:      -7.3      1.647      6.869
REMARK  Name = 
REMARK  8 active torsions:
REMARK  status: ('A' for Active; 'I' for Inactive)
REMARK    1  A    between atoms: C_1  and  C_2
REMARK    2  A    between atoms: C_2  and  C_3
REMARK    3  A    between atoms: C_2  and  O_4
REMARK    4  A    between atoms: O_4  and  C_5
REMARK    5  A    between atoms: N_7  and  C_8
REMARK    6  A    between atoms: C_15  and  C_17
REMARK    7  A    between atoms: C_17  and  C_18
REMARK    8  A    between atoms: C_18  and  N_19
REMARK                            x       y       z     vdW  Elec       q    Type
REMARK                         _______ _______ _______ _____ _____    ______ ____
ROOT
ATOM      1  C   UNL     1      -0.608  14.468  19.911  0.00  0.00    +0.000 A 
ATOM      2  C   UNL     1      -0.220  14.415  21.242  0.00  0.00    +0.000 A 
ATOM      3  C   UNL     1      -0.125  13.196  21.900  0.00  0.00    +0.000 A 
ATOM      4  C   UNL     1      -0.382  11.979  21.241  0.00  0.00    +0.000 A 
ATOM      5  C   UNL     1      -0.765  11.999  19.857  0.00  0.00    +0.000 A 
ATOM      6  C   UNL     1      -0.868  13.268  19.225  0.00  0.00    +0.000 A 
ATOM      7  N   UNL     1      -0.913  10.794  19.071  0.00  0.00    +0.000 N 
ATOM      8  C   UNL     1      -1.870  10.611  18.076  0.00  0.00    +0.000 C 
ATOM      9  O   UNL     1      -1.850   9.576  17.419  0.00  0.00    +0.000 OA
ATOM     10  C   UNL     1       0.143   9.826  19.165  0.00  0.00    +0.000 A 
ATOM     11  C   UNL     1       0.946   9.576  18.035  0.00  0.00    +0.000 A 
ATOM     12  C   UNL     1       1.990   8.655  18.088  0.00  0.00    +0.000 A 
ATOM     13  C   UNL     1       2.240   7.954  19.267  0.00  0.00    +0.000 A 
ATOM     14  C   UNL     1       1.448   8.179  20.388  0.00  0.00    +0.000 A 
ATOM     15  C   UNL     1       0.403   9.126  20.353  0.00  0.00    +0.000 A 
ATOM     16  C   UNL     1      -0.464   9.372  21.540  0.00  0.00    +0.000 C 
ATOM     17  C   UNL     1      -0.200  10.754  22.126  0.00  0.00    +0.000 C 
ENDROOT
BRANCH   1  20
ATOM     18  C   UNL     1       0.430  16.458  18.911  0.00  0.00    +0.000 C 
ATOM     19  O   UNL     1       0.278  17.541  18.360  0.00  0.00    +0.000 OA
ATOM     20  N   UNL     1      -0.667  15.737  19.264  0.00  0.00    +0.000 N 
ATOM     21  H   UNL     1      -1.591  16.087  18.969  0.00  0.00    +0.000 HD
BRANCH  18  22
ATOM     22  O   UNL     1       1.675  15.928  19.051  0.00  0.00    +0.000 OA
BRANCH  22  24
ATOM     23  C   UNL     1       3.504  15.985  17.569  0.00  0.00    +0.000 C 
ATOM     24  C   UNL     1       2.345  15.171  18.099  0.00  0.00    +0.000 C 
ATOM     25  C   UNL     1       2.867  13.880  18.743  0.00  0.00    +0.000 C 
ENDBRANCH  22  24
ENDBRANCH  18  22
ENDBRANCH   1  20
BRANCH   8  26
ATOM     26  C   UNL     1      -2.965  11.598  17.711  0.00  0.00    +0.000 C 
BRANCH  26  27
ATOM     27  C   UNL     1      -4.237  11.573  18.584  0.00  0.00    +0.000 C 
BRANCH  27  28
ATOM     28  N   UNL     1      -5.462  11.320  17.784  0.00  0.00    +0.000 NA
ATOM     29  C   UNL     1      -6.009  12.540  17.167  0.00  0.00    +0.000 C 
ATOM     30  C   UNL     1      -6.617  13.459  18.240  0.00  0.00    +0.000 C 
ATOM     31  O   UNL     1      -7.660  12.794  18.931  0.00  0.00    +0.000 OA
ATOM     32  C   UNL     1      -7.160  11.634  19.577  0.00  0.00    +0.000 C 
ATOM     33  C   UNL     1      -6.532  10.661  18.565  0.00  0.00    +0.000 C 
ENDBRANCH  27  28
ENDBRANCH  26  27
ENDBRANCH   8  26
TORSDOF 6
ENDMDL
MODEL 4
REMARK VINA RESULT:      -7.3      0.688      1.080
REMARK  Name = 
REMARK  8 active torsions:
REMARK  status: ('A' for Active; 'I' for Inactive)
REMARK    1  A    between atoms: C_1  and  C_2
REMARK    2  A    between atoms: C_2  and  C_3
REMARK    3  A    between atoms: C_2  and  O_4
REMARK    4  A    between atoms: O_4  and  C_5
REMARK    5  A    between atoms: N_7  and  C_8
REMARK    6  A    between atoms: C_15  and  C_17
REMARK    7  A    between atoms: C_17  and  C_18
REMARK    8  A    between atoms: C_18  and  N_19
REMARK                            x       y       z     vdW  Elec       q    Type
REMARK                         _______ _______ _______ _____ _____    ______ ____
ROOT
ATOM      1  C   UNL     1      -3.519  11.584  17.448  0.00  0.00    +0.000 A 
ATOM      2  C   UNL     1      -3.036  10.470  16.775  0.00  0.00    +0.000 A 
ATOM      3  C   UNL     1      -1.812   9.914  17.122  0.00  0.00    +0.000 A 
ATOM      4  C   UNL     1      -1.039  10.429  18.179  0.00  0.00    +0.000 A 
ATOM      5  C   UNL     1      -1.522  11.569  18.909  0.00  0.00    +0.000 A 
ATOM      6  C   UNL     1      -2.770  12.120  18.510  0.00  0.00    +0.000 A 
ATOM      7  N   UNL     1      -0.861  12.076  20.091  0.00  0.00    +0.000 N 
ATOM      8  C   UNL     1      -0.771  13.423  20.431  0.00  0.00    +0.000 C 
ATOM      9  O   UNL     1      -0.254  13.730  21.500  0.00  0.00    +0.000 OA
ATOM     10  C   UNL     1      -0.483  11.111  21.085  0.00  0.00    +0.000 A 
ATOM     11  C   UNL     1      -1.125  11.135  22.340  0.00  0.00    +0.000 A 
ATOM     12  C   UNL     1      -0.799  10.208  23.328  0.00  0.00    +0.000 A 
ATOM     13  C   UNL     1       0.185   9.251  23.086  0.00  0.00    +0.000 A 
ATOM     14  C   UNL     1       0.837   9.222  21.858  0.00  0.00    +0.000 A 
ATOM     15  C   UNL     1       0.500  10.141  20.843  0.00  0.00    +0.000 A 
ATOM     16  C   UNL     1       1.196  10.133  19.524  0.00  0.00    +0.000 C 
ATOM     17  C   UNL     1       0.256   9.667  18.418  0.00  0.00    +0.000 C 
ENDROOT
BRANCH   1  20
ATOM     18  C   UNL     1      -5.897  12.036  17.868  0.00  0.00    +0.000 C 
ATOM     19  O   UNL     1      -6.949  12.515  17.463  0.00  0.00    +0.000 OA
ATOM     20  N   UNL     1      -4.792  12.109  17.079  0.00  0.00    +0.000 N 
ATOM     21  H   UNL     1      -4.857  12.650  16.204  0.00  0.00    +0.000 HD
BRANCH  18  22
ATOM     22  O   UNL     1      -5.806  11.555  19.137  0.00  0.00    +0.000 OA
BRANCH  22  24
ATOM     23  C   UNL     1      -7.314  11.155  20.901  0.00  0.00    +0.000 C 
ATOM     24  C   UNL     1      -6.357  12.142  20.268  0.00  0.00    +0.000 C 
ATOM     25  C   UNL     1      -5.241  12.495  21.260  0.00  0.00    +0.000 C 
ENDBRANCH  22  24
ENDBRANCH  18  22
ENDBRANCH   1  20
BRANCH   8  26
ATOM     26  C   UNL     1      -1.268  14.583  19.586  0.00  0.00    +0.000 C 
BRANCH  26  27
ATOM     27  C   UNL     1      -0.227  15.273  18.680  0.00  0.00    +0.000 C 
BRANCH  27  28
ATOM     28  N   UNL     1      -0.103  16.724  18.973  0.00  0.00    +0.000 NA
ATOM     29  C   UNL     1       0.819  17.420  18.059  0.00  0.00    +0.000 C 
ATOM     30  C   UNL     1       2.271  17.001  18.341  0.00  0.00    +0.000 C 
ATOM     31  O   UNL     1       2.631  17.316  19.674  0.00  0.00    +0.000 OA
ATOM     32  C   UNL     1       1.790  16.628  20.586  0.00  0.00    +0.000 C 
ATOM     33  C   UNL     1       0.312  16.995  20.366  0.00  0.00    +0.000 C 
ENDBRANCH  27  28
ENDBRANCH  26  27
ENDBRANCH   8  26
TORSDOF 6
ENDMDL
MODEL 5
REMARK VINA RESULT:      -7.3      1.222      1.618
REMARK  Name = 
REMARK  8 active torsions:
REMARK  status: ('A' for Active; 'I' for Inactive)
REMARK    1  A    between atoms: C_1  and  C_2
REMARK    2  A    between atoms: C_2  and  C_3
REMARK    3  A    between atoms: C_2  and  O_4
REMARK    4  A    between atoms: O_4  and  C_5
REMARK    5  A    between atoms: N_7  and  C_8
REMARK    6  A    between atoms: C_15  and  C_17
REMARK    7  A    between atoms: C_17  and  C_18
REMARK    8  A    between atoms: C_18  and  N_19
REMARK                            x       y       z     vdW  Elec       q    Type
REMARK                         _______ _______ _______ _____ _____    ______ ____
ROOT
ATOM      1  C   UNL     1      -4.335  12.108  18.486  0.00  0.00    +0.000 A 
ATOM      2  C   UNL     1      -4.065  11.124  17.545  0.00  0.00    +0.000 A 
ATOM      3  C   UNL     1      -2.812  10.529  17.488  0.00  0.00    +0.000 A 
ATOM      4  C   UNL     1      -1.790  10.872  18.392  0.00  0.00    +0.000 A 
ATOM      5  C   UNL     1      -2.045  11.872  19.392  0.00  0.00    +0.000 A 
ATOM      6  C   UNL     1      -3.334  12.470  19.404  0.00  0.00    +0.000 A 
ATOM      7  N   UNL     1      -1.100  12.184  20.442  0.00  0.00    +0.000 N 
ATOM      8  C   UNL     1      -0.888  13.459  20.962  0.00  0.00    +0.000 C 
ATOM      9  O   UNL     1      -0.118  13.591  21.907  0.00  0.00    +0.000 OA
ATOM     10  C   UNL     1      -0.524  11.074  21.145  0.00  0.00    +0.000 A 
ATOM     11  C   UNL     1      -0.841  10.886  22.505  0.00  0.00    +0.000 A 
ATOM     12  C   UNL     1      -0.314   9.813  23.221  0.00  0.00    +0.000 A 
ATOM     13  C   UNL     1       0.551   8.917  22.595  0.00  0.00    +0.000 A 
ATOM     14  C   UNL     1       0.885   9.095  21.257  0.00  0.00    +0.000 A 
ATOM     15  C   UNL     1       0.340  10.165  20.516  0.00  0.00    +0.000 A 
ATOM     16  C   UNL     1       0.695  10.380  19.084  0.00  0.00    +0.000 C 
ATOM     17  C   UNL     1      -0.500  10.092  18.182  0.00  0.00    +0.000 C 
ENDROOT
BRANCH   1  20
ATOM     18  C   UNL     1      -6.716  12.059  19.092  0.00  0.00    +0.000 C 
ATOM     19  O   UNL     1      -7.801  12.625  19.078  0.00  0.00    +0.000 OA
ATOM     20  N   UNL     1      -5.642  12.675  18.529  0.00  0.00    +0.000 N 
ATOM     21  H   UNL     1      -5.761  13.643  18.193  0.00  0.00    +0.000 HD
BRANCH  18  22
ATOM     22  O   UNL     1      -6.559  10.891  19.771  0.00  0.00    +0.000 OA
BRANCH  22  24
ATOM     23  C   UNL     1      -7.115   8.609  19.952  0.00  0.00    +0.000 C 
ATOM     24  C   UNL     1      -7.582  10.034  20.156  0.00  0.00    +0.000 C 
ATOM     25  C   UNL     1      -7.916  10.266  21.635  0.00  0.00    +0.000 C 
ENDBRANCH  22  24
ENDBRANCH  18  22
ENDBRANCH   1  20
BRANCH   8  26
ATOM     26  C   UNL     1      -1.539  14.737  20.462  0.00  0.00    +0.000 C 
BRANCH  26  27
ATOM     27  C   UNL     1      -0.599  15.930  20.191  0.00  0.00    +0.000 C 
BRANCH  27  28
ATOM     28  N   UNL     1      -0.076  15.928  18.801  0.00  0.00    +0.000 NA
ATOM     29  C   UNL     1       1.388  15.789  18.735  0.00  0.00    +0.000 C 
ATOM     30  C   UNL     1       2.073  17.071  19.239  0.00  0.00    +0.000 C 
ATOM     31  O   UNL     1       1.687  18.183  18.451  0.00  0.00    +0.000 OA
ATOM     32  C   UNL     1       0.284  18.376  18.524  0.00  0.00    +0.000 C 
ATOM     33  C   UNL     1      -0.475  17.129  18.036  0.00  0.00    +0.000 C 
ENDBRANCH  27  28
ENDBRANCH  26  27
ENDBRANCH   8  26
TORSDOF 6
ENDMDL
MODEL 6
REMARK VINA RESULT:      -7.3      1.708      6.822
REMARK  Name = 
REMARK  8 active torsions:
REMARK  status: ('A' for Active; 'I' for Inactive)
REMARK    1  A    between atoms: C_1  and  C_2
REMARK    2  A    between atoms: C_2  and  C_3
REMARK    3  A    between atoms: C_2  and  O_4
REMARK    4  A    between atoms: O_4  and  C_5
REMARK    5  A    between atoms: N_7  and  C_8
REMARK    6  A    between atoms: C_15  and  C_17
REMARK    7  A    between atoms: C_17  and  C_18
REMARK    8  A    between atoms: C_18  and  N_19
REMARK                            x       y       z     vdW  Elec       q    Type
REMARK                         _______ _______ _______ _____ _____    ______ ____
ROOT
ATOM      1  C   UNL     1      -0.813  14.538  19.950  0.00  0.00    +0.000 A 
ATOM      2  C   UNL     1      -0.309  14.503  21.243  0.00  0.00    +0.000 A 
ATOM      3  C   UNL     1      -0.117  13.291  21.891  0.00  0.00    +0.000 A 
ATOM      4  C   UNL     1      -0.391  12.064  21.258  0.00  0.00    +0.000 A 
ATOM      5  C   UNL     1      -0.893  12.066  19.912  0.00  0.00    +0.000 A 
ATOM      6  C   UNL     1      -1.093  13.328  19.291  0.00  0.00    +0.000 A 
ATOM      7  N   UNL     1      -1.069  10.854  19.143  0.00  0.00    +0.000 N 
ATOM      8  C   UNL     1      -2.103  10.636  18.236  0.00  0.00    +0.000 C 
ATOM      9  O   UNL     1      -2.106   9.599  17.581  0.00  0.00    +0.000 OA
ATOM     10  C   UNL     1       0.022   9.921  19.146  0.00  0.00    +0.000 A 
ATOM     11  C   UNL     1       0.732   9.693  17.950  0.00  0.00    +0.000 A 
ATOM     12  C   UNL     1       1.806   8.807  17.913  0.00  0.00    +0.000 A 
ATOM     13  C   UNL     1       2.181   8.119  19.067  0.00  0.00    +0.000 A 
ATOM     14  C   UNL     1       1.482   8.322  20.252  0.00  0.00    +0.000 A 
ATOM     15  C   UNL     1       0.408   9.234  20.307  0.00  0.00    +0.000 A 
ATOM     16  C   UNL     1      -0.361   9.457  21.565  0.00  0.00    +0.000 C 
ATOM     17  C   UNL     1      -0.092  10.849  22.125  0.00  0.00    +0.000 C 
ENDROOT
BRANCH   1  20
ATOM     18  C   UNL     1       0.016  16.423  18.608  0.00  0.00    +0.000 C 
ATOM     19  O   UNL     1      -0.214  17.510  18.095  0.00  0.00    +0.000 OA
ATOM     20  N   UNL     1      -0.970  15.803  19.310  0.00  0.00    +0.000 N 
ATOM     21  H   UNL     1      -1.909  16.229  19.304  0.00  0.00    +0.000 HD
BRANCH  18  22
ATOM     22  O   UNL     1       1.195  15.788  18.373  0.00  0.00    +0.000 OA
BRANCH  22  24
ATOM     23  C   UNL     1       2.844  16.168  20.011  0.00  0.00    +0.000 C 
ATOM     24  C   UNL     1       2.459  16.333  18.557  0.00  0.00    +0.000 C 
ATOM     25  C   UNL     1       3.469  15.599  17.664  0.00  0.00    +0.000 C 
ENDBRANCH  22  24
ENDBRANCH  18  22
ENDBRANCH   1  20
BRANCH   8  26
ATOM     26  C   UNL     1      -3.258  11.585  17.967  0.00  0.00    +0.000 C 
BRANCH  26  27
ATOM     27  C   UNL     1      -4.678  11.015  18.158  0.00  0.00    +0.000 C 
BRANCH  27  28
ATOM     28  N   UNL     1      -5.673  12.077  18.457  0.00  0.00    +0.000 NA
ATOM     29  C   UNL     1      -5.267  12.950  19.571  0.00  0.00    +0.000 C 
ATOM     30  C   UNL     1      -5.336  12.186  20.904  0.00  0.00    +0.000 C 
ATOM     31  O   UNL     1      -6.653  11.724  21.146  0.00  0.00    +0.000 OA
ATOM     32  C   UNL     1      -7.063  10.843  20.113  0.00  0.00    +0.000 C 
ATOM     33  C   UNL     1      -7.021  11.538  18.740  0.00  0.00    +0.000 C 
ENDBRANCH  27  28
ENDBRANCH  26  27
ENDBRANCH   8  26
TORSDOF 6
ENDMDL
MODEL 7
REMARK VINA RESULT:      -7.2      1.700      2.259
REMARK  Name = 
REMARK  8 active torsions:
REMARK  status: ('A' for Active; 'I' for Inactive)
REMARK    1  A    between atoms: C_1  and  C_2
REMARK    2  A    between atoms: C_2  and  C_3
REMARK    3  A    between atoms: C_2  and  O_4
REMARK    4  A    between atoms: O_4  and  C_5
REMARK    5  A    between atoms: N_7  and  C_8
REMARK    6  A    between atoms: C_15  and  C_17
REMARK    7  A    between atoms: C_17  and  C_18
REMARK    8  A    between atoms: C_18  and  N_19
REMARK                            x       y       z     vdW  Elec       q    Type
REMARK                         _______ _______ _______ _____ _____    ______ ____
ROOT
ATOM      1  C   UNL     1      -4.719  12.232  19.173  0.00  0.00    +0.000 A 
ATOM      2  C   UNL     1      -4.689  11.279  18.164  0.00  0.00    +0.000 A 
ATOM      3  C   UNL     1      -3.496  10.662  17.813  0.00  0.00    +0.000 A 
ATOM      4  C   UNL     1      -2.292  10.950  18.481  0.00  0.00    +0.000 A 
ATOM      5  C   UNL     1      -2.294  11.915  19.545  0.00  0.00    +0.000 A 
ATOM      6  C   UNL     1      -3.532  12.538  19.861  0.00  0.00    +0.000 A 
ATOM      7  N   UNL     1      -1.134  12.168  20.372  0.00  0.00    +0.000 N 
ATOM      8  C   UNL     1      -0.778  13.417  20.874  0.00  0.00    +0.000 C 
ATOM      9  O   UNL     1       0.184  13.498  21.631  0.00  0.00    +0.000 OA
ATOM     10  C   UNL     1      -0.449  11.020  20.894  0.00  0.00    +0.000 A 
ATOM     11  C   UNL     1      -0.465  10.787  22.284  0.00  0.00    +0.000 A 
ATOM     12  C   UNL     1       0.175   9.676  22.830  0.00  0.00    +0.000 A 
ATOM     13  C   UNL     1       0.857   8.788  22.000  0.00  0.00    +0.000 A 
ATOM     14  C   UNL     1       0.895   9.011  20.628  0.00  0.00    +0.000 A 
ATOM     15  C   UNL     1       0.231  10.119  20.061  0.00  0.00    +0.000 A 
ATOM     16  C   UNL     1       0.269  10.382  18.594  0.00  0.00    +0.000 C 
ATOM     17  C   UNL     1      -1.101  10.153  17.967  0.00  0.00    +0.000 C 
ENDROOT
BRANCH   1  20
ATOM     18  C   UNL     1      -6.489  12.807  20.778  0.00  0.00    +0.000 C 
ATOM     19  O   UNL     1      -7.573  13.340  20.979  0.00  0.00    +0.000 OA
ATOM     20  N   UNL     1      -5.969  12.822  19.522  0.00  0.00    +0.000 N 
ATOM     21  H   UNL     1      -6.464  13.368  18.800  0.00  0.00    +0.000 HD
BRANCH  18  22
ATOM     22  O   UNL     1      -5.760  12.320  21.818  0.00  0.00    +0.000 OA
BRANCH  22  24
ATOM     23  C   UNL     1      -6.335  12.659  24.076  0.00  0.00    +0.000 C 
ATOM     24  C   UNL     1      -5.392  13.031  22.952  0.00  0.00    +0.000 C 
ATOM     25  C   UNL     1      -3.952  12.670  23.341  0.00  0.00    +0.000 C 
ENDBRANCH  22  24
ENDBRANCH  18  22
ENDBRANCH   1  20
BRANCH   8  26
ATOM     26  C   UNL     1      -1.486  14.726  20.573  0.00  0.00    +0.000 C 
BRANCH  26  27
ATOM     27  C   UNL     1      -0.588  15.939  20.250  0.00  0.00    +0.000 C 
BRANCH  27  28
ATOM     28  N   UNL     1      -0.088  15.911  18.852  0.00  0.00    +0.000 NA
ATOM     29  C   UNL     1       1.373  15.751  18.765  0.00  0.00    +0.000 C 
ATOM     30  C   UNL     1       2.082  17.030  19.240  0.00  0.00    +0.000 C 
ATOM     31  O   UNL     1       1.699  18.136  18.443  0.00  0.00    +0.000 OA
ATOM     32  C   UNL     1       0.300  18.350  18.536  0.00  0.00    +0.000 C 
ATOM     33  C   UNL     1      -0.484  17.107  18.077  0.00  0.00    +0.000 C 
ENDBRANCH  27  28
ENDBRANCH  26  27
ENDBRANCH   8  26
TORSDOF 6
ENDMDL
MODEL 8
REMARK VINA RESULT:      -7.2      0.717      1.008
REMARK  Name = 
REMARK  8 active torsions:
REMARK  status: ('A' for Active; 'I' for Inactive)
REMARK    1  A    between atoms: C_1  and  C_2
REMARK    2  A    between atoms: C_2  and  C_3
REMARK    3  A    between atoms: C_2  and  O_4
REMARK    4  A    between atoms: O_4  and  C_5
REMARK    5  A    between atoms: N_7  and  C_8
REMARK    6  A    between atoms: C_15  and  C_17
REMARK    7  A    between atoms: C_17  and  C_18
REMARK    8  A    between atoms: C_18  and  N_19
REMARK                            x       y       z     vdW  Elec       q    Type
REMARK                         _______ _______ _______ _____ _____    ______ ____
ROOT
ATOM      1  C   UNL     1      -3.655  11.649  17.568  0.00  0.00    +0.000 A 
ATOM      2  C   UNL     1      -3.239  10.532  16.857  0.00  0.00    +0.000 A 
ATOM      3  C   UNL     1      -2.010   9.945  17.123  0.00  0.00    +0.000 A 
ATOM      4  C   UNL     1      -1.162  10.432  18.135  0.00  0.00    +0.000 A 
ATOM      5  C   UNL     1      -1.574  11.574  18.904  0.00  0.00    +0.000 A 
ATOM      6  C   UNL     1      -2.830  12.157  18.588  0.00  0.00    +0.000 A 
ATOM      7  N   UNL     1      -0.830  12.053  20.048  0.00  0.00    +0.000 N 
ATOM      8  C   UNL     1      -0.689  13.394  20.395  0.00  0.00    +0.000 C 
ATOM      9  O   UNL     1      -0.101  13.678  21.433  0.00  0.00    +0.000 OA
ATOM     10  C   UNL     1      -0.415  11.070  21.008  0.00  0.00    +0.000 A 
ATOM     11  C   UNL     1      -0.978  11.094  22.300  0.00  0.00    +0.000 A 
ATOM     12  C   UNL     1      -0.614  10.149  23.257  0.00  0.00    +0.000 A 
ATOM     13  C   UNL     1       0.332   9.173  22.947  0.00  0.00    +0.000 A 
ATOM     14  C   UNL     1       0.907   9.143  21.681  0.00  0.00    +0.000 A 
ATOM     15  C   UNL     1       0.529  10.080  20.697  0.00  0.00    +0.000 A 
ATOM     16  C   UNL     1       1.143  10.072  19.338  0.00  0.00    +0.000 C 
ATOM     17  C   UNL     1       0.128   9.639  18.287  0.00  0.00    +0.000 C 
ENDROOT
BRANCH   1  20
ATOM     18  C   UNL     1      -6.043  11.985  18.041  0.00  0.00    +0.000 C 
ATOM     19  O   UNL     1      -7.101  12.506  17.714  0.00  0.00    +0.000 OA
ATOM     20  N   UNL     1      -4.936  12.206  17.283  0.00  0.00    +0.000 N 
ATOM     21  H   UNL     1      -5.007  12.884  16.509  0.00  0.00    +0.000 HD
BRANCH  18  22
ATOM     22  O   UNL     1      -5.947  11.301  19.213  0.00  0.00    +0.000 OA
BRANCH  22  24
ATOM     23  C   UNL     1      -5.537  13.262  20.451  0.00  0.00    +0.000 C 
ATOM     24  C   UNL     1      -6.074  11.848  20.483  0.00  0.00    +0.000 C 
ATOM     25  C   UNL     1      -7.554  11.863  20.890  0.00  0.00    +0.000 C 
ENDBRANCH  22  24
ENDBRANCH  18  22
ENDBRANCH   1  20
BRANCH   8  26
ATOM     26  C   UNL     1      -1.209  14.574  19.593  0.00  0.00    +0.000 C 
BRANCH  26  27
ATOM     27  C   UNL     1      -0.182  15.323  18.719  0.00  0.00    +0.000 C 
BRANCH  27  28
ATOM     28  N   UNL     1       0.457  16.450  19.445  0.00  0.00    +0.000 NA
ATOM     29  C   UNL     1       0.236  17.753  18.797  0.00  0.00    +0.000 C 
ATOM     30  C   UNL     1       1.032  17.842  17.484  0.00  0.00    +0.000 C 
ATOM     31  O   UNL     1       2.418  17.688  17.732  0.00  0.00    +0.000 OA
ATOM     32  C   UNL     1       2.676  16.422  18.318  0.00  0.00    +0.000 C 
ATOM     33  C   UNL     1       1.910  16.256  19.642  0.00  0.00    +0.000 C 
ENDBRANCH  27  28
ENDBRANCH  26  27
ENDBRANCH   8  26
TORSDOF 6
ENDMDL
MODEL 9
REMARK VINA RESULT:      -7.2      2.122      3.387
REMARK  Name = 
REMARK  8 active torsions:
REMARK  status: ('A' for Active; 'I' for Inactive)
REMARK    1  A    between atoms: C_1  and  C_2
REMARK    2  A    between atoms: C_2  and  C_3
REMARK    3  A    between atoms: C_2  and  O_4
REMARK    4  A    between atoms: O_4  and  C_5
REMARK    5  A    between atoms: N_7  and  C_8
REMARK    6  A    between atoms: C_15  and  C_17
REMARK    7  A    between atoms: C_17  and  C_18
REMARK    8  A    between atoms: C_18  and  N_19
REMARK                            x       y       z     vdW  Elec       q    Type
REMARK                         _______ _______ _______ _____ _____    ______ ____
ROOT
ATOM      1  C   UNL     1      -3.726  11.675  17.768  0.00  0.00    +0.000 A 
ATOM      2  C   UNL     1      -3.313  10.621  16.965  0.00  0.00    +0.000 A 
ATOM      3  C   UNL     1      -2.062  10.047  17.144  0.00  0.00    +0.000 A 
ATOM      4  C   UNL     1      -1.188  10.483  18.156  0.00  0.00    +0.000 A 
ATOM      5  C   UNL     1      -1.594  11.558  19.018  0.00  0.00    +0.000 A 
ATOM      6  C   UNL     1      -2.875  12.131  18.790  0.00  0.00    +0.000 A 
ATOM      7  N   UNL     1      -0.818  11.975  20.165  0.00  0.00    +0.000 N 
ATOM      8  C   UNL     1      -0.694  13.292  20.600  0.00  0.00    +0.000 C 
ATOM      9  O   UNL     1      -0.073  13.517  21.634  0.00  0.00    +0.000 OA
ATOM     10  C   UNL     1      -0.346  10.938  21.038  0.00  0.00    +0.000 A 
ATOM     11  C   UNL     1      -0.860  10.858  22.348  0.00  0.00    +0.000 A 
ATOM     12  C   UNL     1      -0.439   9.858  23.222  0.00  0.00    +0.000 A 
ATOM     13  C   UNL     1       0.515   8.929  22.810  0.00  0.00    +0.000 A 
ATOM     14  C   UNL     1       1.043   9.002  21.525  0.00  0.00    +0.000 A 
ATOM     15  C   UNL     1       0.607   9.996  20.624  0.00  0.00    +0.000 A 
ATOM     16  C   UNL     1       1.169  10.097  19.246  0.00  0.00    +0.000 C 
ATOM     17  C   UNL     1       0.124   9.713  18.205  0.00  0.00    +0.000 C 
ENDROOT
BRANCH   1  20
ATOM     18  C   UNL     1      -6.165  11.664  18.069  0.00  0.00    +0.000 C 
ATOM     19  O   UNL     1      -7.240  12.204  17.843  0.00  0.00    +0.000 OA
ATOM     20  N   UNL     1      -5.029  12.219  17.569  0.00  0.00    +0.000 N 
ATOM     21  H   UNL     1      -5.105  13.132  17.095  0.00  0.00    +0.000 HD
BRANCH  18  22
ATOM     22  O   UNL     1      -6.095  10.598  18.912  0.00  0.00    +0.000 OA
BRANCH  22  24
ATOM     23  C   UNL     1      -6.777   8.502  19.739  0.00  0.00    +0.000 C 
ATOM     24  C   UNL     1      -7.179   9.935  19.471  0.00  0.00    +0.000 C 
ATOM     25  C   UNL     1      -7.578  10.619  20.785  0.00  0.00    +0.000 C 
ENDBRANCH  22  24
ENDBRANCH  18  22
ENDBRANCH   1  20
BRANCH   8  26
ATOM     26  C   UNL     1      -1.270  14.512  19.903  0.00  0.00    +0.000 C 
BRANCH  26  27
ATOM     27  C   UNL     1      -2.427  15.236  20.623  0.00  0.00    +0.000 C 
BRANCH  27  28
ATOM     28  N   UNL     1      -2.941  14.460  21.780  0.00  0.00    +0.000 NA
ATOM     29  C   UNL     1      -4.329  14.004  21.597  0.00  0.00    +0.000 C 
ATOM     30  C   UNL     1      -5.299  15.196  21.666  0.00  0.00    +0.000 C 
ATOM     31  O   UNL     1      -5.198  15.848  22.919  0.00  0.00    +0.000 OA
ATOM     32  C   UNL     1      -3.882  16.341  23.113  0.00  0.00    +0.000 C 
ATOM     33  C   UNL     1      -2.848  15.203  23.056  0.00  0.00    +0.000 C 
ENDBRANCH  27  28
ENDBRANCH  26  27
ENDBRANCH   8  26
TORSDOF 6
ENDMDL
