MODEL 1
REMARK VINA RESULT:      -6.4      0.000      0.000
REMARK  Name = 
REMARK  4 active torsions:
REMARK  status: ('A' for Active; 'I' for Inactive)
REMARK    1  A    between atoms: C_1  and  C_2
REMARK    2  A    between atoms: C_4  and  C_5
REMARK    3  A    between atoms: C_6  and  N_7
REMARK    4  A    between atoms: N_10  and  C_11
REMARK                            x       y       z     vdW  Elec       q    Type
REMARK                         _______ _______ _______ _____ _____    ______ ____
ROOT
ATOM      1  N   UNL     1       6.047   4.839  18.140  0.00  0.00    +0.000 N 
ATOM      2  C   UNL     1       4.821   4.566  18.710  0.00  0.00    +0.000 C 
ATOM      3  O   UNL     1       4.159   5.333  19.386  0.00  0.00    +0.000 OA
ATOM      4  N   UNL     1       4.391   3.263  18.490  0.00  0.00    +0.000 N 
ATOM      5  H   UNL     1       6.544   4.044  17.763  0.00  0.00    +0.000 HD
ATOM      6  H   UNL     1       5.118   2.575  18.601  0.00  0.00    +0.000 HD
ENDROOT
BRANCH   1  12
ATOM      7  C   UNL     1       8.893   9.885  17.928  0.00  0.00    +0.000 C 
ATOM      8  C   UNL     1       8.160   8.577  17.983  0.00  0.00    +0.000 A 
ATOM      9  C   UNL     1       8.543   7.607  18.905  0.00  0.00    +0.000 A 
ATOM     10  C   UNL     1       7.880   6.364  19.028  0.00  0.00    +0.000 A 
ATOM     11  C   UNL     1       8.420   5.492  20.127  0.00  0.00    +0.000 C 
ATOM     12  C   UNL     1       6.806   6.056  18.163  0.00  0.00    +0.000 A 
ATOM     13  C   UNL     1       6.422   7.061  17.235  0.00  0.00    +0.000 A 
ATOM     14 CL   UNL     1       5.108   6.796  16.128  0.00  0.00    +0.000 Cl
ATOM     15  C   UNL     1       7.087   8.296  17.142  0.00  0.00    +0.000 A 
ENDBRANCH   1  12
BRANCH   4  16
ATOM     16  C   UNL     1       3.106   2.880  18.967  0.00  0.00    +0.000 A 
ATOM     17  C   UNL     1       2.033   2.670  18.089  0.00  0.00    +0.000 A 
ATOM     18  C   UNL     1       0.772   2.320  18.579  0.00  0.00    +0.000 A 
ATOM     19  C   UNL     1       0.570   2.200  19.952  0.00  0.00    +0.000 A 
ATOM     20  C   UNL     1       1.632   2.420  20.831  0.00  0.00    +0.000 A 
ATOM     21  C   UNL     1       2.903   2.739  20.341  0.00  0.00    +0.000 A 
ENDBRANCH   4  16
TORSDOF 2
ENDMDL
MODEL 2
REMARK VINA RESULT:      -6.3      5.499      7.165
REMARK  Name = 
REMARK  4 active torsions:
REMARK  status: ('A' for Active; 'I' for Inactive)
REMARK    1  A    between atoms: C_1  and  C_2
REMARK    2  A    between atoms: C_4  and  C_5
REMARK    3  A    between atoms: C_6  and  N_7
REMARK    4  A    between atoms: N_10  and  C_11
REMARK                            x       y       z     vdW  Elec       q    Type
REMARK                         _______ _______ _______ _____ _____    ______ ____
ROOT
ATOM      1  N   UNL     1       2.496   6.706  20.738  0.00  0.00    +0.000 N 
ATOM      2  C   UNL     1       1.502   7.656  20.854  0.00  0.00    +0.000 C 
ATOM      3  O   UNL     1       0.459   7.681  20.226  0.00  0.00    +0.000 OA
ATOM      4  N   UNL     1       1.812   8.668  21.754  0.00  0.00    +0.000 N 
ATOM      5  H   UNL     1       3.370   6.925  21.196  0.00  0.00    +0.000 HD
ATOM      6  H   UNL     1       2.761   8.997  21.678  0.00  0.00    +0.000 HD
ENDROOT
BRANCH   1  12
ATOM      7  C   UNL     1       2.732   2.209  17.088  0.00  0.00    +0.000 C 
ATOM      8  C   UNL     1       2.669   3.371  18.034  0.00  0.00    +0.000 A 
ATOM      9  C   UNL     1       2.376   3.155  19.378  0.00  0.00    +0.000 A 
ATOM     10  C   UNL     1       2.325   4.202  20.327  0.00  0.00    +0.000 A 
ATOM     11  C   UNL     1       2.051   3.737  21.731  0.00  0.00    +0.000 C 
ATOM     12  C   UNL     1       2.537   5.535  19.911  0.00  0.00    +0.000 A 
ATOM     13  C   UNL     1       2.844   5.736  18.539  0.00  0.00    +0.000 A 
ATOM     14 CL   UNL     1       3.134   7.334  17.916  0.00  0.00    +0.000 Cl
ATOM     15  C   UNL     1       2.904   4.678  17.616  0.00  0.00    +0.000 A 
ENDBRANCH   1  12
BRANCH   4  16
ATOM     16  C   UNL     1       0.835   9.670  22.016  0.00  0.00    +0.000 A 
ATOM     17  C   UNL     1      -0.115   9.514  23.036  0.00  0.00    +0.000 A 
ATOM     18  C   UNL     1      -1.083  10.497  23.260  0.00  0.00    +0.000 A 
ATOM     19  C   UNL     1      -1.120  11.631  22.452  0.00  0.00    +0.000 A 
ATOM     20  C   UNL     1      -0.185  11.785  21.428  0.00  0.00    +0.000 A 
ATOM     21  C   UNL     1       0.805  10.817  21.222  0.00  0.00    +0.000 A 
ENDBRANCH   4  16
TORSDOF 2
ENDMDL
MODEL 3
REMARK VINA RESULT:      -6.2      5.563      7.179
REMARK  Name = 
REMARK  4 active torsions:
REMARK  status: ('A' for Active; 'I' for Inactive)
REMARK    1  A    between atoms: C_1  and  C_2
REMARK    2  A    between atoms: C_4  and  C_5
REMARK    3  A    between atoms: C_6  and  N_7
REMARK    4  A    between atoms: N_10  and  C_11
REMARK                            x       y       z     vdW  Elec       q    Type
REMARK                         _______ _______ _______ _____ _____    ______ ____
ROOT
ATOM      1  N   UNL     1       2.385   6.688  20.844  0.00  0.00    +0.000 N 
ATOM      2  C   UNL     1       1.441   7.695  20.877  0.00  0.00    +0.000 C 
ATOM      3  O   UNL     1       0.487   7.806  20.127  0.00  0.00    +0.000 OA
ATOM      4  N   UNL     1       1.697   8.656  21.847  0.00  0.00    +0.000 N 
ATOM      5  H   UNL     1       3.207   6.837  21.414  0.00  0.00    +0.000 HD
ATOM      6  H   UNL     1       2.666   8.926  21.899  0.00  0.00    +0.000 HD
ENDROOT
BRANCH   1  12
ATOM      7  C   UNL     1       2.757   2.309  17.064  0.00  0.00    +0.000 C 
ATOM      8  C   UNL     1       2.658   3.441  18.044  0.00  0.00    +0.000 A 
ATOM      9  C   UNL     1       2.339   3.179  19.373  0.00  0.00    +0.000 A 
ATOM     10  C   UNL     1       2.254   4.195  20.353  0.00  0.00    +0.000 A 
ATOM     11  C   UNL     1       1.956   3.684  21.735  0.00  0.00    +0.000 C 
ATOM     12  C   UNL     1       2.458   5.543  19.983  0.00  0.00    +0.000 A 
ATOM     13  C   UNL     1       2.792   5.791  18.625  0.00  0.00    +0.000 A 
ATOM     14 CL   UNL     1       3.075   7.411  18.058  0.00  0.00    +0.000 Cl
ATOM     15  C   UNL     1       2.886   4.762  17.671  0.00  0.00    +0.000 A 
ENDBRANCH   1  12
BRANCH   4  16
ATOM     16  C   UNL     1       0.756   9.709  22.027  0.00  0.00    +0.000 A 
ATOM     17  C   UNL     1       0.809  10.876  21.252  0.00  0.00    +0.000 A 
ATOM     18  C   UNL     1      -0.109  11.910  21.462  0.00  0.00    +0.000 A 
ATOM     19  C   UNL     1      -1.070  11.791  22.462  0.00  0.00    +0.000 A 
ATOM     20  C   UNL     1      -1.120  10.636  23.244  0.00  0.00    +0.000 A 
ATOM     21  C   UNL     1      -0.223   9.586  23.014  0.00  0.00    +0.000 A 
ENDBRANCH   4  16
TORSDOF 2
ENDMDL
MODEL 4
REMARK VINA RESULT:      -6.2      4.512      6.862
REMARK  Name = 
REMARK  4 active torsions:
REMARK  status: ('A' for Active; 'I' for Inactive)
REMARK    1  A    between atoms: C_1  and  C_2
REMARK    2  A    between atoms: C_4  and  C_5
REMARK    3  A    between atoms: C_6  and  N_7
REMARK    4  A    between atoms: N_10  and  C_11
REMARK                            x       y       z     vdW  Elec       q    Type
REMARK                         _______ _______ _______ _____ _____    ______ ____
ROOT
ATOM      1  N   UNL     1       2.440   6.351  18.163  0.00  0.00    +0.000 N 
ATOM      2  C   UNL     1       2.102   7.571  18.714  0.00  0.00    +0.000 C 
ATOM      3  O   UNL     1       2.165   7.865  19.894  0.00  0.00    +0.000 OA
ATOM      4  N   UNL     1       1.608   8.476  17.783  0.00  0.00    +0.000 N 
ATOM      5  H   UNL     1       2.162   6.212  17.201  0.00  0.00    +0.000 HD
ATOM      6  H   UNL     1       0.960   8.068  17.129  0.00  0.00    +0.000 HD
ENDROOT
BRANCH   1  12
ATOM      7  C   UNL     1       4.903   1.681  20.553  0.00  0.00    +0.000 C 
ATOM      8  C   UNL     1       4.263   2.888  19.934  0.00  0.00    +0.000 A 
ATOM      9  C   UNL     1       2.946   3.211  20.250  0.00  0.00    +0.000 A 
ATOM     10  C   UNL     1       2.290   4.348  19.722  0.00  0.00    +0.000 A 
ATOM     11  C   UNL     1       0.893   4.540  20.243  0.00  0.00    +0.000 C 
ATOM     12  C   UNL     1       2.966   5.182  18.804  0.00  0.00    +0.000 A 
ATOM     13  C   UNL     1       4.312   4.842  18.501  0.00  0.00    +0.000 A 
ATOM     14 CL   UNL     1       5.244   5.803  17.391  0.00  0.00    +0.000 Cl
ATOM     15  C   UNL     1       4.948   3.716  19.050  0.00  0.00    +0.000 A 
ENDBRANCH   1  12
BRANCH   4  16
ATOM     16  C   UNL     1       1.292   9.795  18.217  0.00  0.00    +0.000 A 
ATOM     17  C   UNL     1       0.019  10.115  18.713  0.00  0.00    +0.000 A 
ATOM     18  C   UNL     1      -0.279  11.421  19.110  0.00  0.00    +0.000 A 
ATOM     19  C   UNL     1       0.684  12.419  18.994  0.00  0.00    +0.000 A 
ATOM     20  C   UNL     1       1.948  12.108  18.490  0.00  0.00    +0.000 A 
ATOM     21  C   UNL     1       2.260  10.795  18.122  0.00  0.00    +0.000 A 
ENDBRANCH   4  16
TORSDOF 2
ENDMDL
MODEL 5
REMARK VINA RESULT:      -6.1      5.908      7.232
REMARK  Name = 
REMARK  4 active torsions:
REMARK  status: ('A' for Active; 'I' for Inactive)
REMARK    1  A    between atoms: C_1  and  C_2
REMARK    2  A    between atoms: C_4  and  C_5
REMARK    3  A    between atoms: C_6  and  N_7
REMARK    4  A    between atoms: N_10  and  C_11
REMARK                            x       y       z     vdW  Elec       q    Type
REMARK                         _______ _______ _______ _____ _____    ______ ____
ROOT
ATOM      1  N   UNL     1       2.373   6.976  20.696  0.00  0.00    +0.000 N 
ATOM      2  C   UNL     1       1.505   8.050  20.706  0.00  0.00    +0.000 C 
ATOM      3  O   UNL     1       0.811   8.417  19.775  0.00  0.00    +0.000 OA
ATOM      4  N   UNL     1       1.516   8.753  21.904  0.00  0.00    +0.000 N 
ATOM      5  H   UNL     1       3.003   6.913  21.484  0.00  0.00    +0.000 HD
ATOM      6  H   UNL     1       2.441   8.901  22.275  0.00  0.00    +0.000 HD
ENDROOT
BRANCH   1  12
ATOM      7  C   UNL     1       3.355   2.885  16.709  0.00  0.00    +0.000 C 
ATOM      8  C   UNL     1       3.103   3.946  17.740  0.00  0.00    +0.000 A 
ATOM      9  C   UNL     1       3.318   5.284  17.422  0.00  0.00    +0.000 A 
ATOM     10  C   UNL     1       3.077   6.335  18.338  0.00  0.00    +0.000 A 
ATOM     11  C   UNL     1       3.317   7.705  17.768  0.00  0.00    +0.000 C 
ATOM     12  C   UNL     1       2.638   6.036  19.647  0.00  0.00    +0.000 A 
ATOM     13  C   UNL     1       2.416   4.666  19.950  0.00  0.00    +0.000 A 
ATOM     14 CL   UNL     1       1.866   4.180  21.527  0.00  0.00    +0.000 Cl
ATOM     15  C   UNL     1       2.647   3.639  19.018  0.00  0.00    +0.000 A 
ENDBRANCH   1  12
BRANCH   4  16
ATOM     16  C   UNL     1       0.610   9.840  22.063  0.00  0.00    +0.000 A 
ATOM     17  C   UNL     1       0.760  11.028  21.332  0.00  0.00    +0.000 A 
ATOM     18  C   UNL     1      -0.125  12.093  21.522  0.00  0.00    +0.000 A 
ATOM     19  C   UNL     1      -1.150  11.986  22.458  0.00  0.00    +0.000 A 
ATOM     20  C   UNL     1      -1.295  10.811  23.197  0.00  0.00    +0.000 A 
ATOM     21  C   UNL     1      -0.431   9.731  22.986  0.00  0.00    +0.000 A 
ENDBRANCH   4  16
TORSDOF 2
ENDMDL
MODEL 6
REMARK VINA RESULT:      -6.1      6.233      6.798
REMARK  Name = 
REMARK  4 active torsions:
REMARK  status: ('A' for Active; 'I' for Inactive)
REMARK    1  A    between atoms: C_1  and  C_2
REMARK    2  A    between atoms: C_4  and  C_5
REMARK    3  A    between atoms: C_6  and  N_7
REMARK    4  A    between atoms: N_10  and  C_11
REMARK                            x       y       z     vdW  Elec       q    Type
REMARK                         _______ _______ _______ _____ _____    ______ ____
ROOT
ATOM      1  N   UNL     1       1.685   8.625  20.857  0.00  0.00    +0.000 N 
ATOM      2  C   UNL     1       1.314   7.299  20.757  0.00  0.00    +0.000 C 
ATOM      3  O   UNL     1       0.178   6.867  20.826  0.00  0.00    +0.000 OA
ATOM      4  N   UNL     1       2.394   6.436  20.615  0.00  0.00    +0.000 N 
ATOM      5  H   UNL     1       2.676   8.798  20.958  0.00  0.00    +0.000 HD
ATOM      6  H   UNL     1       3.168   6.657  21.220  0.00  0.00    +0.000 HD
ENDROOT
BRANCH   1  12
ATOM      7  C   UNL     1      -1.558  13.421  21.147  0.00  0.00    +0.000 C 
ATOM      8  C   UNL     1      -0.718  12.180  21.075  0.00  0.00    +0.000 A 
ATOM      9  C   UNL     1      -0.601  11.357  22.192  0.00  0.00    +0.000 A 
ATOM     10  C   UNL     1       0.154  10.162  22.185  0.00  0.00    +0.000 A 
ATOM     11  C   UNL     1       0.095   9.398  23.479  0.00  0.00    +0.000 C 
ATOM     12  C   UNL     1       0.859   9.786  21.020  0.00  0.00    +0.000 A 
ATOM     13  C   UNL     1       0.721  10.632  19.887  0.00  0.00    +0.000 A 
ATOM     14 CL   UNL     1       1.536  10.263  18.396  0.00  0.00    +0.000 Cl
ATOM     15  C   UNL     1      -0.048  11.808  19.913  0.00  0.00    +0.000 A 
ENDBRANCH   1  12
BRANCH   4  16
ATOM     16  C   UNL     1       2.137   5.048  20.430  0.00  0.00    +0.000 A 
ATOM     17  C   UNL     1       2.203   4.145  21.500  0.00  0.00    +0.000 A 
ATOM     18  C   UNL     1       1.972   2.782  21.294  0.00  0.00    +0.000 A 
ATOM     19  C   UNL     1       1.696   2.311  20.012  0.00  0.00    +0.000 A 
ATOM     20  C   UNL     1       1.641   3.205  18.942  0.00  0.00    +0.000 A 
ATOM     21  C   UNL     1       1.840   4.574  19.151  0.00  0.00    +0.000 A 
ENDBRANCH   4  16
TORSDOF 2
ENDMDL
MODEL 7
REMARK VINA RESULT:      -6.1      6.258      6.759
REMARK  Name = 
REMARK  4 active torsions:
REMARK  status: ('A' for Active; 'I' for Inactive)
REMARK    1  A    between atoms: C_1  and  C_2
REMARK    2  A    between atoms: C_4  and  C_5
REMARK    3  A    between atoms: C_6  and  N_7
REMARK    4  A    between atoms: N_10  and  C_11
REMARK                            x       y       z     vdW  Elec       q    Type
REMARK                         _______ _______ _______ _____ _____    ______ ____
ROOT
ATOM      1  N   UNL     1       1.585   8.574  20.765  0.00  0.00    +0.000 N 
ATOM      2  C   UNL     1       1.267   7.232  20.709  0.00  0.00    +0.000 C 
ATOM      3  O   UNL     1       0.154   6.754  20.831  0.00  0.00    +0.000 OA
ATOM      4  N   UNL     1       2.377   6.412  20.545  0.00  0.00    +0.000 N 
ATOM      5  H   UNL     1       2.570   8.791  20.824  0.00  0.00    +0.000 HD
ATOM      6  H   UNL     1       3.163   6.679  21.115  0.00  0.00    +0.000 HD
ENDROOT
BRANCH   1  12
ATOM      7  C   UNL     1      -1.861  13.225  21.066  0.00  0.00    +0.000 C 
ATOM      8  C   UNL     1      -0.968  12.022  20.991  0.00  0.00    +0.000 A 
ATOM      9  C   UNL     1      -0.727  11.267  22.136  0.00  0.00    +0.000 A 
ATOM     10  C   UNL     1       0.084  10.108  22.130  0.00  0.00    +0.000 A 
ATOM     11  C   UNL     1       0.161   9.413  23.461  0.00  0.00    +0.000 C 
ATOM     12  C   UNL     1       0.717   9.703  20.934  0.00  0.00    +0.000 A 
ATOM     13  C   UNL     1       0.452  10.480  19.774  0.00  0.00    +0.000 A 
ATOM     14 CL   UNL     1       1.169  10.069  18.244  0.00  0.00    +0.000 Cl
ATOM     15  C   UNL     1      -0.370  11.619  19.801  0.00  0.00    +0.000 A 
ENDBRANCH   1  12
BRANCH   4  16
ATOM     16  C   UNL     1       2.172   5.010  20.401  0.00  0.00    +0.000 A 
ATOM     17  C   UNL     1       1.839   4.445  19.161  0.00  0.00    +0.000 A 
ATOM     18  C   UNL     1       1.616   3.070  19.046  0.00  0.00    +0.000 A 
ATOM     19  C   UNL     1       1.704   2.256  20.172  0.00  0.00    +0.000 A 
ATOM     20  C   UNL     1       2.024   2.815  21.410  0.00  0.00    +0.000 A 
ATOM     21  C   UNL     1       2.279   4.186  21.522  0.00  0.00    +0.000 A 
ENDBRANCH   4  16
TORSDOF 2
ENDMDL
MODEL 8
REMARK VINA RESULT:      -6.1      4.528      6.875
REMARK  Name = 
REMARK  4 active torsions:
REMARK  status: ('A' for Active; 'I' for Inactive)
REMARK    1  A    between atoms: C_1  and  C_2
REMARK    2  A    between atoms: C_4  and  C_5
REMARK    3  A    between atoms: C_6  and  N_7
REMARK    4  A    between atoms: N_10  and  C_11
REMARK                            x       y       z     vdW  Elec       q    Type
REMARK                         _______ _______ _______ _____ _____    ______ ____
ROOT
ATOM      1  N   UNL     1       2.398   6.375  18.119  0.00  0.00    +0.000 N 
ATOM      2  C   UNL     1       2.082   7.600  18.669  0.00  0.00    +0.000 C 
ATOM      3  O   UNL     1       2.173   7.901  19.846  0.00  0.00    +0.000 OA
ATOM      4  N   UNL     1       1.576   8.503  17.742  0.00  0.00    +0.000 N 
ATOM      5  H   UNL     1       2.099   6.231  17.164  0.00  0.00    +0.000 HD
ATOM      6  H   UNL     1       0.911   8.096  17.105  0.00  0.00    +0.000 HD
ENDROOT
BRANCH   1  12
ATOM      7  C   UNL     1       4.875   1.701  20.489  0.00  0.00    +0.000 C 
ATOM      8  C   UNL     1       4.231   2.908  19.876  0.00  0.00    +0.000 A 
ATOM      9  C   UNL     1       2.923   3.244  20.215  0.00  0.00    +0.000 A 
ATOM     10  C   UNL     1       2.266   4.382  19.694  0.00  0.00    +0.000 A 
ATOM     11  C   UNL     1       0.880   4.587  20.240  0.00  0.00    +0.000 C 
ATOM     12  C   UNL     1       2.929   5.206  18.757  0.00  0.00    +0.000 A 
ATOM     13  C   UNL     1       4.266   4.854  18.429  0.00  0.00    +0.000 A 
ATOM     14 CL   UNL     1       5.183   5.802  17.296  0.00  0.00    +0.000 Cl
ATOM     15  C   UNL     1       4.905   3.726  18.973  0.00  0.00    +0.000 A 
ENDBRANCH   1  12
BRANCH   4  16
ATOM     16  C   UNL     1       1.279   9.827  18.175  0.00  0.00    +0.000 A 
ATOM     17  C   UNL     1       2.239  10.848  18.112  0.00  0.00    +0.000 A 
ATOM     18  C   UNL     1       1.936  12.135  18.565  0.00  0.00    +0.000 A 
ATOM     19  C   UNL     1       0.681  12.404  19.104  0.00  0.00    +0.000 A 
ATOM     20  C   UNL     1      -0.274  11.388  19.179  0.00  0.00    +0.000 A 
ATOM     21  C   UNL     1       0.015  10.108  18.696  0.00  0.00    +0.000 A 
ENDBRANCH   4  16
TORSDOF 2
ENDMDL
MODEL 9
REMARK VINA RESULT:      -6.1      4.364      5.397
REMARK  Name = 
REMARK  4 active torsions:
REMARK  status: ('A' for Active; 'I' for Inactive)
REMARK    1  A    between atoms: C_1  and  C_2
REMARK    2  A    between atoms: C_4  and  C_5
REMARK    3  A    between atoms: C_6  and  N_7
REMARK    4  A    between atoms: N_10  and  C_11
REMARK                            x       y       z     vdW  Elec       q    Type
REMARK                         _______ _______ _______ _____ _____    ______ ____
ROOT
ATOM      1  N   UNL     1       3.905   5.955  18.655  0.00  0.00    +0.000 N 
ATOM      2  C   UNL     1       2.880   6.871  18.776  0.00  0.00    +0.000 C 
ATOM      3  O   UNL     1       2.242   7.356  17.859  0.00  0.00    +0.000 OA
ATOM      4  N   UNL     1       2.645   7.262  20.089  0.00  0.00    +0.000 N 
ATOM      5  H   UNL     1       4.447   5.788  19.492  0.00  0.00    +0.000 HD
ATOM      6  H   UNL     1       3.487   7.436  20.613  0.00  0.00    +0.000 HD
ENDROOT
BRANCH   1  12
ATOM      7  C   UNL     1       6.289   3.764  13.847  0.00  0.00    +0.000 C 
ATOM      8  C   UNL     1       5.669   4.330  15.090  0.00  0.00    +0.000 A 
ATOM      9  C   UNL     1       4.605   3.668  15.696  0.00  0.00    +0.000 A 
ATOM     10  C   UNL     1       3.991   4.133  16.883  0.00  0.00    +0.000 A 
ATOM     11  C   UNL     1       2.902   3.233  17.397  0.00  0.00    +0.000 C 
ATOM     12  C   UNL     1       4.433   5.337  17.474  0.00  0.00    +0.000 A 
ATOM     13  C   UNL     1       5.525   5.995  16.847  0.00  0.00    +0.000 A 
ATOM     14 CL   UNL     1       6.160   7.481  17.492  0.00  0.00    +0.000 Cl
ATOM     15  C   UNL     1       6.130   5.505  15.676  0.00  0.00    +0.000 A 
ENDBRANCH   1  12
BRANCH   4  16
ATOM     16  C   UNL     1       1.563   8.149  20.351  0.00  0.00    +0.000 A 
ATOM     17  C   UNL     1       1.321   9.266  19.537  0.00  0.00    +0.000 A 
ATOM     18  C   UNL     1       0.269  10.140  19.827  0.00  0.00    +0.000 A 
ATOM     19  C   UNL     1      -0.532   9.916  20.943  0.00  0.00    +0.000 A 
ATOM     20  C   UNL     1      -0.287   8.813  21.763  0.00  0.00    +0.000 A 
ATOM     21  C   UNL     1       0.744   7.918  21.458  0.00  0.00    +0.000 A 
ENDBRANCH   4  16
TORSDOF 2
ENDMDL
