MODEL 1
REMARK VINA RESULT:      -6.3      0.000      0.000
REMARK  Name = 
REMARK  7 active torsions:
REMARK  status: ('A' for Active; 'I' for Inactive)
REMARK    1  A    between atoms: C_1  and  C_2
REMARK    2  A    between atoms: CA_3  and  C_4
REMARK    3  A    between atoms: C_4  and  OXT_6
REMARK    4  A    between atoms: CA_10  and  N_11
REMARK    5  A    between atoms: C_12  and  CA_14
REMARK    6  A    between atoms: CA_14  and  N_15
REMARK    7  A    between atoms: CA_14  and  C_16
REMARK                            x       y       z     vdW  Elec       q    Type
REMARK                         _______ _______ _______ _____ _____    ______ ____
ROOT
ATOM      1  C   UNL     1       7.198   7.556  17.347  0.00  0.00    +0.000 C 
ATOM      2  C   UNL     1       6.744   6.166  16.946  0.00  0.00    +0.000 C 
ATOM      3  CA  UNL     1       6.797   5.075  17.752  0.00  0.00    +0.000 C 
ATOM      4  N   UNL     1       6.033   3.919  17.528  0.00  0.00    +0.000 N 
ATOM      5  C   UNL     1       5.017   3.657  18.445  0.00  0.00    +0.000 C 
ATOM      6  O   UNL     1       5.015   3.295  19.598  0.00  0.00    +0.000 OA
ATOM      7  CA  UNL     1       3.974   4.371  17.471  0.00  0.00    +0.000 C 
ATOM      8  C   UNL     1       5.030   3.885  16.441  0.00  0.00    +0.000 C 
ATOM      9  S   UNL     1       5.417   4.739  14.939  0.00  0.00    +0.000 S 
ATOM     10  C   UNL     1       6.127   6.226  15.577  0.00  0.00    +0.000 C 
ENDROOT
BRANCH   7  11
ATOM     11  N   UNL     1       3.835   5.826  17.841  0.00  0.00    +0.000 N 
ATOM     12  C   UNL     1       2.641   6.436  18.128  0.00  0.00    +0.000 C 
ATOM     13  O   UNL     1       1.574   5.832  18.127  0.00  0.00    +0.000 OA
ATOM     14  H   UNL     1       4.678   6.374  17.992  0.00  0.00    +0.000 HD
BRANCH  12  15
ATOM     15  CA  UNL     1       2.740   7.981  18.373  0.00  0.00    +0.000 C 
BRANCH  15  16
ATOM     16  C   UNL     1       1.712   8.484  19.359  0.00  0.00    +0.000 C 
ATOM     17  C   UNL     1       1.635   7.987  20.613  0.00  0.00    +0.000 C 
ATOM     18  C   UNL     1       0.671   8.473  21.662  0.00  0.00    +0.000 C 
ATOM     19  C   UNL     1      -0.278   9.520  21.166  0.00  0.00    +0.000 C 
ATOM     20  C   UNL     1      -0.217  10.026  19.926  0.00  0.00    +0.000 C 
ATOM     21  C   UNL     1       0.796   9.596  18.899  0.00  0.00    +0.000 C 
ENDBRANCH  15  16
BRANCH  15  22
ATOM     22  N   UNL     1       2.629   8.695  17.090  0.00  0.00    +0.000 NA
ATOM     23  H1  UNL     1       3.187   9.550  17.173  0.00  0.00    +0.000 HD
ATOM     24  H2  UNL     1       1.675   9.037  16.986  0.00  0.00    +0.000 HD
ENDBRANCH  15  22
ENDBRANCH  12  15
ENDBRANCH   7  11
BRANCH   3  25
ATOM     25  C   UNL     1       7.605   5.104  19.032  0.00  0.00    +0.000 C 
ATOM     26  O   UNL     1       8.765   4.770  19.189  0.00  0.00    +0.000 OA
BRANCH  25  27
ATOM     27  OXT UNL     1       6.881   5.526  20.083  0.00  0.00    +0.000 OA
ATOM     28  HXT UNL     1       6.638   4.707  20.560  0.00  0.00    +0.000 HD
ENDBRANCH  25  27
ENDBRANCH   3  25
TORSDOF 6
ENDMDL
MODEL 2
REMARK VINA RESULT:      -6.2      0.154      1.206
REMARK  Name = 
REMARK  7 active torsions:
REMARK  status: ('A' for Active; 'I' for Inactive)
REMARK    1  A    between atoms: C_1  and  C_2
REMARK    2  A    between atoms: CA_3  and  C_4
REMARK    3  A    between atoms: C_4  and  OXT_6
REMARK    4  A    between atoms: CA_10  and  N_11
REMARK    5  A    between atoms: C_12  and  CA_14
REMARK    6  A    between atoms: CA_14  and  N_15
REMARK    7  A    between atoms: CA_14  and  C_16
REMARK                            x       y       z     vdW  Elec       q    Type
REMARK                         _______ _______ _______ _____ _____    ______ ____
ROOT
ATOM      1  C   UNL     1       7.134   7.542  17.322  0.00  0.00    +0.000 C 
ATOM      2  C   UNL     1       6.658   6.156  16.932  0.00  0.00    +0.000 C 
ATOM      3  CA  UNL     1       6.709   5.067  17.741  0.00  0.00    +0.000 C 
ATOM      4  N   UNL     1       5.928   3.920  17.533  0.00  0.00    +0.000 N 
ATOM      5  C   UNL     1       4.923   3.673  18.466  0.00  0.00    +0.000 C 
ATOM      6  O   UNL     1       4.934   3.315  19.620  0.00  0.00    +0.000 OA
ATOM      7  CA  UNL     1       3.875   4.397  17.505  0.00  0.00    +0.000 C 
ATOM      8  C   UNL     1       4.909   3.895  16.462  0.00  0.00    +0.000 C 
ATOM      9  S   UNL     1       5.283   4.739  14.951  0.00  0.00    +0.000 S 
ATOM     10  C   UNL     1       6.021   6.219  15.572  0.00  0.00    +0.000 C 
ENDROOT
BRANCH   7  11
ATOM     11  N   UNL     1       3.759   5.854  17.872  0.00  0.00    +0.000 N 
ATOM     12  C   UNL     1       2.575   6.484  18.162  0.00  0.00    +0.000 C 
ATOM     13  O   UNL     1       1.499   5.895  18.167  0.00  0.00    +0.000 OA
ATOM     14  H   UNL     1       4.611   6.390  18.018  0.00  0.00    +0.000 HD
BRANCH  12  15
ATOM     15  CA  UNL     1       2.698   8.028  18.403  0.00  0.00    +0.000 C 
BRANCH  15  16
ATOM     16  C   UNL     1       1.669   8.552  19.376  0.00  0.00    +0.000 C 
ATOM     17  C   UNL     1       0.796   9.522  19.026  0.00  0.00    +0.000 C 
ATOM     18  C   UNL     1      -0.284  10.058  19.926  0.00  0.00    +0.000 C 
ATOM     19  C   UNL     1      -0.261   9.476  21.305  0.00  0.00    +0.000 C 
ATOM     20  C   UNL     1       0.597   8.513  21.672  0.00  0.00    +0.000 C 
ATOM     21  C   UNL     1       1.629   7.921  20.750  0.00  0.00    +0.000 C 
ENDBRANCH  15  16
BRANCH  15  22
ATOM     22  N   UNL     1       2.614   8.738  17.116  0.00  0.00    +0.000 NA
ATOM     23  H1  UNL     1       3.414   9.377  17.073  0.00  0.00    +0.000 HD
ATOM     24  H2  UNL     1       1.808   9.361  17.137  0.00  0.00    +0.000 HD
ENDBRANCH  15  22
ENDBRANCH  12  15
ENDBRANCH   7  11
BRANCH   3  25
ATOM     25  C   UNL     1       7.537   5.091  19.009  0.00  0.00    +0.000 C 
ATOM     26  O   UNL     1       7.250   5.599  20.077  0.00  0.00    +0.000 OA
BRANCH  25  27
ATOM     27  OXT UNL     1       8.729   4.490  18.851  0.00  0.00    +0.000 OA
ATOM     28  HXT UNL     1       9.385   5.183  19.071  0.00  0.00    +0.000 HD
ENDBRANCH  25  27
ENDBRANCH   3  25
TORSDOF 6
ENDMDL
MODEL 3
REMARK VINA RESULT:      -6.0      3.110      4.448
REMARK  Name = 
REMARK  7 active torsions:
REMARK  status: ('A' for Active; 'I' for Inactive)
REMARK    1  A    between atoms: C_1  and  C_2
REMARK    2  A    between atoms: CA_3  and  C_4
REMARK    3  A    between atoms: C_4  and  OXT_6
REMARK    4  A    between atoms: CA_10  and  N_11
REMARK    5  A    between atoms: C_12  and  CA_14
REMARK    6  A    between atoms: CA_14  and  N_15
REMARK    7  A    between atoms: CA_14  and  C_16
REMARK                            x       y       z     vdW  Elec       q    Type
REMARK                         _______ _______ _______ _____ _____    ______ ____
ROOT
ATOM      1  C   UNL     1       5.257   4.497  20.229  0.00  0.00    +0.000 C 
ATOM      2  C   UNL     1       5.238   5.406  19.015  0.00  0.00    +0.000 C 
ATOM      3  CA  UNL     1       6.287   5.589  18.173  0.00  0.00    +0.000 C 
ATOM      4  N   UNL     1       6.145   6.098  16.872  0.00  0.00    +0.000 N 
ATOM      5  C   UNL     1       6.388   5.209  15.826  0.00  0.00    +0.000 C 
ATOM      6  O   UNL     1       7.391   4.695  15.392  0.00  0.00    +0.000 OA
ATOM      7  CA  UNL     1       4.822   4.914  15.736  0.00  0.00    +0.000 C 
ATOM      8  C   UNL     1       4.801   6.355  16.313  0.00  0.00    +0.000 C 
ATOM      9  S   UNL     1       3.556   6.965  17.414  0.00  0.00    +0.000 S 
ATOM     10  C   UNL     1       3.853   5.963  18.838  0.00  0.00    +0.000 C 
ENDROOT
BRANCH   7  11
ATOM     11  N   UNL     1       4.474   3.714  16.580  0.00  0.00    +0.000 N 
ATOM     12  C   UNL     1       3.199   3.237  16.751  0.00  0.00    +0.000 C 
ATOM     13  O   UNL     1       2.226   3.744  16.204  0.00  0.00    +0.000 OA
ATOM     14  H   UNL     1       5.229   3.154  16.968  0.00  0.00    +0.000 HD
BRANCH  12  15
ATOM     15  CA  UNL     1       3.078   2.048  17.765  0.00  0.00    +0.000 C 
BRANCH  15  16
ATOM     16  C   UNL     1       2.507   2.471  19.097  0.00  0.00    +0.000 C 
ATOM     17  C   UNL     1       3.074   2.087  20.262  0.00  0.00    +0.000 C 
ATOM     18  C   UNL     1       2.589   2.509  21.622  0.00  0.00    +0.000 C 
ATOM     19  C   UNL     1       1.344   3.341  21.585  0.00  0.00    +0.000 C 
ATOM     20  C   UNL     1       0.767   3.732  20.440  0.00  0.00    +0.000 C 
ATOM     21  C   UNL     1       1.294   3.374  19.076  0.00  0.00    +0.000 C 
ENDBRANCH  15  16
BRANCH  15  22
ATOM     22  N   UNL     1       4.392   1.406  17.936  0.00  0.00    +0.000 NA
ATOM     23  H1  UNL     1       4.427   0.615  17.287  0.00  0.00    +0.000 HD
ATOM     24  H2  UNL     1       4.426   0.968  18.855  0.00  0.00    +0.000 HD
ENDBRANCH  15  22
ENDBRANCH  12  15
ENDBRANCH   7  11
BRANCH   3  25
ATOM     25  C   UNL     1       7.674   5.122  18.560  0.00  0.00    +0.000 C 
ATOM     26  O   UNL     1       8.464   5.670  19.307  0.00  0.00    +0.000 OA
BRANCH  25  27
ATOM     27  OXT UNL     1       8.019   3.980  17.943  0.00  0.00    +0.000 OA
ATOM     28  HXT UNL     1       7.658   3.272  18.515  0.00  0.00    +0.000 HD
ENDBRANCH  25  27
ENDBRANCH   3  25
TORSDOF 6
ENDMDL
MODEL 4
REMARK VINA RESULT:      -6.0      3.088      4.538
REMARK  Name = 
REMARK  7 active torsions:
REMARK  status: ('A' for Active; 'I' for Inactive)
REMARK    1  A    between atoms: C_1  and  C_2
REMARK    2  A    between atoms: CA_3  and  C_4
REMARK    3  A    between atoms: C_4  and  OXT_6
REMARK    4  A    between atoms: CA_10  and  N_11
REMARK    5  A    between atoms: C_12  and  CA_14
REMARK    6  A    between atoms: CA_14  and  N_15
REMARK    7  A    between atoms: CA_14  and  C_16
REMARK                            x       y       z     vdW  Elec       q    Type
REMARK                         _______ _______ _______ _____ _____    ______ ____
ROOT
ATOM      1  C   UNL     1       5.234   4.581  20.208  0.00  0.00    +0.000 C 
ATOM      2  C   UNL     1       5.230   5.464  18.974  0.00  0.00    +0.000 C 
ATOM      3  CA  UNL     1       6.287   5.623  18.137  0.00  0.00    +0.000 C 
ATOM      4  N   UNL     1       6.159   6.105  16.825  0.00  0.00    +0.000 N 
ATOM      5  C   UNL     1       6.405   5.192  15.800  0.00  0.00    +0.000 C 
ATOM      6  O   UNL     1       7.409   4.663  15.386  0.00  0.00    +0.000 OA
ATOM      7  CA  UNL     1       4.838   4.904  15.703  0.00  0.00    +0.000 C 
ATOM      8  C   UNL     1       4.821   6.357  16.249  0.00  0.00    +0.000 C 
ATOM      9  S   UNL     1       3.570   6.997  17.327  0.00  0.00    +0.000 S 
ATOM     10  C   UNL     1       3.850   6.024  18.774  0.00  0.00    +0.000 C 
ENDROOT
BRANCH   7  11
ATOM     11  N   UNL     1       4.476   3.724  16.569  0.00  0.00    +0.000 N 
ATOM     12  C   UNL     1       3.197   3.257  16.739  0.00  0.00    +0.000 C 
ATOM     13  O   UNL     1       2.232   3.756  16.171  0.00  0.00    +0.000 OA
ATOM     14  H   UNL     1       5.225   3.170  16.977  0.00  0.00    +0.000 HD
BRANCH  12  15
ATOM     15  CA  UNL     1       3.061   2.091  17.777  0.00  0.00    +0.000 C 
BRANCH  15  16
ATOM     16  C   UNL     1       2.493   2.548  19.100  0.00  0.00    +0.000 C 
ATOM     17  C   UNL     1       1.413   3.357  19.162  0.00  0.00    +0.000 C 
ATOM     18  C   UNL     1       0.767   3.813  20.442  0.00  0.00    +0.000 C 
ATOM     19  C   UNL     1       1.485   3.356  21.674  0.00  0.00    +0.000 C 
ATOM     20  C   UNL     1       2.558   2.554  21.633  0.00  0.00    +0.000 C 
ATOM     21  C   UNL     1       3.162   2.035  20.355  0.00  0.00    +0.000 C 
ENDBRANCH  15  16
BRANCH  15  22
ATOM     22  N   UNL     1       4.367   1.437  17.964  0.00  0.00    +0.000 NA
ATOM     23  H1  UNL     1       4.317   0.526  17.497  0.00  0.00    +0.000 HD
ATOM     24  H2  UNL     1       4.477   1.200  18.948  0.00  0.00    +0.000 HD
ENDBRANCH  15  22
ENDBRANCH  12  15
ENDBRANCH   7  11
BRANCH   3  25
ATOM     25  C   UNL     1       7.668   5.157  18.546  0.00  0.00    +0.000 C 
ATOM     26  O   UNL     1       8.454   5.714  19.290  0.00  0.00    +0.000 OA
BRANCH  25  27
ATOM     27  OXT UNL     1       8.013   4.002  17.952  0.00  0.00    +0.000 OA
ATOM     28  HXT UNL     1       7.194   3.466  17.960  0.00  0.00    +0.000 HD
ENDBRANCH  25  27
ENDBRANCH   3  25
TORSDOF 6
ENDMDL
MODEL 5
REMARK VINA RESULT:      -5.9      2.685      4.152
REMARK  Name = 
REMARK  7 active torsions:
REMARK  status: ('A' for Active; 'I' for Inactive)
REMARK    1  A    between atoms: C_1  and  C_2
REMARK    2  A    between atoms: CA_3  and  C_4
REMARK    3  A    between atoms: C_4  and  OXT_6
REMARK    4  A    between atoms: CA_10  and  N_11
REMARK    5  A    between atoms: C_12  and  CA_14
REMARK    6  A    between atoms: CA_14  and  N_15
REMARK    7  A    between atoms: CA_14  and  C_16
REMARK                            x       y       z     vdW  Elec       q    Type
REMARK                         _______ _______ _______ _____ _____    ______ ____
ROOT
ATOM      1  C   UNL     1       5.096   3.698  19.434  0.00  0.00    +0.000 C 
ATOM      2  C   UNL     1       6.033   4.548  18.598  0.00  0.00    +0.000 C 
ATOM      3  CA  UNL     1       5.987   4.642  17.244  0.00  0.00    +0.000 C 
ATOM      4  N   UNL     1       6.571   5.699  16.529  0.00  0.00    +0.000 N 
ATOM      5  C   UNL     1       5.695   6.584  15.902  0.00  0.00    +0.000 C 
ATOM      6  O   UNL     1       4.969   6.488  14.941  0.00  0.00    +0.000 OA
ATOM      7  CA  UNL     1       5.800   7.557  17.162  0.00  0.00    +0.000 C 
ATOM      8  C   UNL     1       7.176   6.842  17.247  0.00  0.00    +0.000 C 
ATOM      9  S   UNL     1       8.026   6.503  18.763  0.00  0.00    +0.000 S 
ATOM     10  C   UNL     1       6.921   5.345  19.511  0.00  0.00    +0.000 C 
ENDROOT
BRANCH   7  11
ATOM     11  N   UNL     1       4.689   7.261  18.136  0.00  0.00    +0.000 N 
ATOM     12  C   UNL     1       3.405   7.726  18.004  0.00  0.00    +0.000 C 
ATOM     13  O   UNL     1       3.047   8.415  17.054  0.00  0.00    +0.000 OA
ATOM     14  H   UNL     1       4.860   6.594  18.885  0.00  0.00    +0.000 HD
BRANCH  12  15
ATOM     15  CA  UNL     1       2.458   7.379  19.204  0.00  0.00    +0.000 C 
BRANCH  15  16
ATOM     16  C   UNL     1       1.994   5.941  19.186  0.00  0.00    +0.000 C 
ATOM     17  C   UNL     1       1.807   5.274  18.027  0.00  0.00    +0.000 C 
ATOM     18  C   UNL     1       1.394   3.830  17.934  0.00  0.00    +0.000 C 
ATOM     19  C   UNL     1       1.117   3.199  19.264  0.00  0.00    +0.000 C 
ATOM     20  C   UNL     1       1.297   3.844  20.425  0.00  0.00    +0.000 C 
ATOM     21  C   UNL     1       1.783   5.265  20.522  0.00  0.00    +0.000 C 
ENDBRANCH  15  16
BRANCH  15  22
ATOM     22  N   UNL     1       1.309   8.300  19.212  0.00  0.00    +0.000 NA
ATOM     23  H1  UNL     1       1.686   9.250  19.141  0.00  0.00    +0.000 HD
ATOM     24  H2  UNL     1       0.878   8.279  20.134  0.00  0.00    +0.000 HD
ENDBRANCH  15  22
ENDBRANCH  12  15
ENDBRANCH   7  11
BRANCH   3  25
ATOM     25  C   UNL     1       5.176   3.654  16.433  0.00  0.00    +0.000 C 
ATOM     26  O   UNL     1       3.966   3.521  16.412  0.00  0.00    +0.000 OA
BRANCH  25  27
ATOM     27  OXT UNL     1       5.951   2.838  15.698  0.00  0.00    +0.000 OA
ATOM     28  HXT UNL     1       5.652   1.936  15.933  0.00  0.00    +0.000 HD
ENDBRANCH  25  27
ENDBRANCH   3  25
TORSDOF 6
ENDMDL
MODEL 6
REMARK VINA RESULT:      -5.8      2.682      4.075
REMARK  Name = 
REMARK  7 active torsions:
REMARK  status: ('A' for Active; 'I' for Inactive)
REMARK    1  A    between atoms: C_1  and  C_2
REMARK    2  A    between atoms: CA_3  and  C_4
REMARK    3  A    between atoms: C_4  and  OXT_6
REMARK    4  A    between atoms: CA_10  and  N_11
REMARK    5  A    between atoms: C_12  and  CA_14
REMARK    6  A    between atoms: CA_14  and  N_15
REMARK    7  A    between atoms: CA_14  and  C_16
REMARK                            x       y       z     vdW  Elec       q    Type
REMARK                         _______ _______ _______ _____ _____    ______ ____
ROOT
ATOM      1  C   UNL     1       5.133   3.682  19.463  0.00  0.00    +0.000 C 
ATOM      2  C   UNL     1       6.054   4.541  18.617  0.00  0.00    +0.000 C 
ATOM      3  CA  UNL     1       5.995   4.634  17.264  0.00  0.00    +0.000 C 
ATOM      4  N   UNL     1       6.562   5.697  16.544  0.00  0.00    +0.000 N 
ATOM      5  C   UNL     1       5.673   6.574  15.925  0.00  0.00    +0.000 C 
ATOM      6  O   UNL     1       4.938   6.473  14.972  0.00  0.00    +0.000 OA
ATOM      7  CA  UNL     1       5.783   7.548  17.185  0.00  0.00    +0.000 C 
ATOM      8  C   UNL     1       7.165   6.844  17.256  0.00  0.00    +0.000 C 
ATOM      9  S   UNL     1       8.033   6.512  18.763  0.00  0.00    +0.000 S 
ATOM     10  C   UNL     1       6.945   5.345  19.521  0.00  0.00    +0.000 C 
ENDROOT
BRANCH   7  11
ATOM     11  N   UNL     1       4.683   7.242  18.170  0.00  0.00    +0.000 N 
ATOM     12  C   UNL     1       3.399   7.711  18.060  0.00  0.00    +0.000 C 
ATOM     13  O   UNL     1       3.030   8.411  17.123  0.00  0.00    +0.000 OA
ATOM     14  H   UNL     1       4.863   6.567  18.909  0.00  0.00    +0.000 HD
BRANCH  12  15
ATOM     15  CA  UNL     1       2.467   7.351  19.268  0.00  0.00    +0.000 C 
BRANCH  15  16
ATOM     16  C   UNL     1       2.037   5.903  19.265  0.00  0.00    +0.000 C 
ATOM     17  C   UNL     1       1.862   5.217  20.415  0.00  0.00    +0.000 C 
ATOM     18  C   UNL     1       1.391   3.790  20.489  0.00  0.00    +0.000 C 
ATOM     19  C   UNL     1       1.207   3.148  19.148  0.00  0.00    +0.000 C 
ATOM     20  C   UNL     1       1.376   3.812  17.996  0.00  0.00    +0.000 C 
ATOM     21  C   UNL     1       1.774   5.262  17.921  0.00  0.00    +0.000 C 
ENDBRANCH  15  16
BRANCH  15  22
ATOM     22  N   UNL     1       1.297   8.246  19.275  0.00  0.00    +0.000 NA
ATOM     23  H1  UNL     1       1.114   8.509  18.302  0.00  0.00    +0.000 HD
ATOM     24  H2  UNL     1       1.559   9.124  19.719  0.00  0.00    +0.000 HD
ENDBRANCH  15  22
ENDBRANCH  12  15
ENDBRANCH   7  11
BRANCH   3  25
ATOM     25  C   UNL     1       5.183   3.640  16.460  0.00  0.00    +0.000 C 
ATOM     26  O   UNL     1       3.974   3.499  16.451  0.00  0.00    +0.000 OA
BRANCH  25  27
ATOM     27  OXT UNL     1       5.958   2.829  15.719  0.00  0.00    +0.000 OA
ATOM     28  HXT UNL     1       6.055   2.020  16.261  0.00  0.00    +0.000 HD
ENDBRANCH  25  27
ENDBRANCH   3  25
TORSDOF 6
ENDMDL
MODEL 7
REMARK VINA RESULT:      -5.8      7.018      9.001
REMARK  Name = 
REMARK  7 active torsions:
REMARK  status: ('A' for Active; 'I' for Inactive)
REMARK    1  A    between atoms: C_1  and  C_2
REMARK    2  A    between atoms: CA_3  and  C_4
REMARK    3  A    between atoms: C_4  and  OXT_6
REMARK    4  A    between atoms: CA_10  and  N_11
REMARK    5  A    between atoms: C_12  and  CA_14
REMARK    6  A    between atoms: CA_14  and  N_15
REMARK    7  A    between atoms: CA_14  and  C_16
REMARK                            x       y       z     vdW  Elec       q    Type
REMARK                         _______ _______ _______ _____ _____    ______ ____
ROOT
ATOM      1  C   UNL     1      -1.537  14.788  20.315  0.00  0.00    +0.000 C 
ATOM      2  C   UNL     1      -0.360  13.843  20.164  0.00  0.00    +0.000 C 
ATOM      3  CA  UNL     1      -0.116  12.781  20.973  0.00  0.00    +0.000 C 
ATOM      4  N   UNL     1       0.716  11.712  20.604  0.00  0.00    +0.000 N 
ATOM      5  C   UNL     1       0.092  10.485  20.383  0.00  0.00    +0.000 C 
ATOM      6  O   UNL     1      -0.428   9.677  21.115  0.00  0.00    +0.000 OA
ATOM      7  CA  UNL     1       0.043  10.810  18.821  0.00  0.00    +0.000 C 
ATOM      8  C   UNL     1       1.284  11.644  19.240  0.00  0.00    +0.000 C 
ATOM      9  S   UNL     1       1.762  13.165  18.472  0.00  0.00    +0.000 S 
ATOM     10  C   UNL     1       0.405  14.204  18.922  0.00  0.00    +0.000 C 
ENDROOT
BRANCH   7  11
ATOM     11  N   UNL     1      -1.271  11.460  18.470  0.00  0.00    +0.000 N 
ATOM     12  C   UNL     1      -2.318  10.806  17.872  0.00  0.00    +0.000 C 
ATOM     13  O   UNL     1      -2.276   9.614  17.589  0.00  0.00    +0.000 OA
ATOM     14  H   UNL     1      -1.443  12.412  18.783  0.00  0.00    +0.000 HD
BRANCH  12  15
ATOM     15  CA  UNL     1      -3.535  11.723  17.503  0.00  0.00    +0.000 C 
BRANCH  15  16
ATOM     16  C   UNL     1      -4.675  11.605  18.487  0.00  0.00    +0.000 C 
ATOM     17  C   UNL     1      -5.710  10.764  18.271  0.00  0.00    +0.000 C 
ATOM     18  C   UNL     1      -6.853  10.560  19.227  0.00  0.00    +0.000 C 
ATOM     19  C   UNL     1      -6.795  11.450  20.430  0.00  0.00    +0.000 C 
ATOM     20  C   UNL     1      -5.778  12.291  20.663  0.00  0.00    +0.000 C 
ATOM     21  C   UNL     1      -4.595  12.442  19.744  0.00  0.00    +0.000 C 
ENDBRANCH  15  16
BRANCH  15  22
ATOM     22  N   UNL     1      -3.988  11.420  16.136  0.00  0.00    +0.000 NA
ATOM     23  H1  UNL     1      -4.227  12.313  15.694  0.00  0.00    +0.000 HD
ATOM     24  H2  UNL     1      -4.879  10.928  16.186  0.00  0.00    +0.000 HD
ENDBRANCH  15  22
ENDBRANCH  12  15
ENDBRANCH   7  11
BRANCH   3  25
ATOM     25  C   UNL     1      -0.848  12.633  22.290  0.00  0.00    +0.000 C 
ATOM     26  O   UNL     1      -0.495  13.025  23.387  0.00  0.00    +0.000 OA
BRANCH  25  27
ATOM     27  OXT UNL     1      -1.998  11.951  22.161  0.00  0.00    +0.000 OA
ATOM     28  HXT UNL     1      -1.999  11.325  22.914  0.00  0.00    +0.000 HD
ENDBRANCH  25  27
ENDBRANCH   3  25
TORSDOF 6
ENDMDL
MODEL 8
REMARK VINA RESULT:      -5.8      6.986      8.966
REMARK  Name = 
REMARK  7 active torsions:
REMARK  status: ('A' for Active; 'I' for Inactive)
REMARK    1  A    between atoms: C_1  and  C_2
REMARK    2  A    between atoms: CA_3  and  C_4
REMARK    3  A    between atoms: C_4  and  OXT_6
REMARK    4  A    between atoms: CA_10  and  N_11
REMARK    5  A    between atoms: C_12  and  CA_14
REMARK    6  A    between atoms: CA_14  and  N_15
REMARK    7  A    between atoms: CA_14  and  C_16
REMARK                            x       y       z     vdW  Elec       q    Type
REMARK                         _______ _______ _______ _____ _____    ______ ____
ROOT
ATOM      1  C   UNL     1      -1.481  14.761  20.328  0.00  0.00    +0.000 C 
ATOM      2  C   UNL     1      -0.319  13.800  20.176  0.00  0.00    +0.000 C 
ATOM      3  CA  UNL     1      -0.085  12.738  20.989  0.00  0.00    +0.000 C 
ATOM      4  N   UNL     1       0.729  11.655  20.621  0.00  0.00    +0.000 N 
ATOM      5  C   UNL     1       0.087  10.437  20.409  0.00  0.00    +0.000 C 
ATOM      6  O   UNL     1      -0.441   9.640  21.148  0.00  0.00    +0.000 OA
ATOM      7  CA  UNL     1       0.035  10.755  18.846  0.00  0.00    +0.000 C 
ATOM      8  C   UNL     1       1.289  11.573  19.255  0.00  0.00    +0.000 C 
ATOM      9  S   UNL     1       1.785  13.084  18.477  0.00  0.00    +0.000 S 
ATOM     10  C   UNL     1       0.445  14.144  18.929  0.00  0.00    +0.000 C 
ENDROOT
BRANCH   7  11
ATOM     11  N   UNL     1      -1.272  11.422  18.499  0.00  0.00    +0.000 N 
ATOM     12  C   UNL     1      -2.311  10.794  17.859  0.00  0.00    +0.000 C 
ATOM     13  O   UNL     1      -2.267   9.613  17.531  0.00  0.00    +0.000 OA
ATOM     14  H   UNL     1      -1.447  12.362  18.844  0.00  0.00    +0.000 HD
BRANCH  12  15
ATOM     15  CA  UNL     1      -3.519  11.728  17.505  0.00  0.00    +0.000 C 
BRANCH  15  16
ATOM     16  C   UNL     1      -4.626  11.665  18.531  0.00  0.00    +0.000 C 
ATOM     17  C   UNL     1      -4.576  12.390  19.670  0.00  0.00    +0.000 C 
ATOM     18  C   UNL     1      -5.662  12.413  20.711  0.00  0.00    +0.000 C 
ATOM     19  C   UNL     1      -6.796  11.480  20.417  0.00  0.00    +0.000 C 
ATOM     20  C   UNL     1      -6.864  10.753  19.292  0.00  0.00    +0.000 C 
ATOM     21  C   UNL     1      -5.815  10.785  18.214  0.00  0.00    +0.000 C 
ENDBRANCH  15  16
BRANCH  15  22
ATOM     22  N   UNL     1      -4.026  11.396  16.164  0.00  0.00    +0.000 NA
ATOM     23  H1  UNL     1      -3.761  10.425  15.974  0.00  0.00    +0.000 HD
ATOM     24  H2  UNL     1      -3.502  11.930  15.473  0.00  0.00    +0.000 HD
ENDBRANCH  15  22
ENDBRANCH  12  15
ENDBRANCH   7  11
BRANCH   3  25
ATOM     25  C   UNL     1      -0.812  12.607  22.311  0.00  0.00    +0.000 C 
ATOM     26  O   UNL     1      -0.463  13.026  23.399  0.00  0.00    +0.000 OA
BRANCH  25  27
ATOM     27  OXT UNL     1      -1.953  11.905  22.199  0.00  0.00    +0.000 OA
ATOM     28  HXT UNL     1      -2.479  12.162  22.984  0.00  0.00    +0.000 HD
ENDBRANCH  25  27
ENDBRANCH   3  25
TORSDOF 6
ENDMDL
MODEL 9
REMARK VINA RESULT:      -5.8      3.095      6.348
REMARK  Name = 
REMARK  7 active torsions:
REMARK  status: ('A' for Active; 'I' for Inactive)
REMARK    1  A    between atoms: C_1  and  C_2
REMARK    2  A    between atoms: CA_3  and  C_4
REMARK    3  A    between atoms: C_4  and  OXT_6
REMARK    4  A    between atoms: CA_10  and  N_11
REMARK    5  A    between atoms: C_12  and  CA_14
REMARK    6  A    between atoms: CA_14  and  N_15
REMARK    7  A    between atoms: CA_14  and  C_16
REMARK                            x       y       z     vdW  Elec       q    Type
REMARK                         _______ _______ _______ _____ _____    ______ ____
ROOT
ATOM      1  C   UNL     1       3.989   1.480  18.658  0.00  0.00    +0.000 C 
ATOM      2  C   UNL     1       2.827   2.449  18.762  0.00  0.00    +0.000 C 
ATOM      3  CA  UNL     1       2.367   2.981  19.923  0.00  0.00    +0.000 C 
ATOM      4  N   UNL     1       1.583   4.144  19.975  0.00  0.00    +0.000 N 
ATOM      5  C   UNL     1       2.181   5.274  20.532  0.00  0.00    +0.000 C 
ATOM      6  O   UNL     1       2.496   5.574  21.659  0.00  0.00    +0.000 OA
ATOM      7  CA  UNL     1       2.574   5.767  19.066  0.00  0.00    +0.000 C 
ATOM      8  C   UNL     1       1.314   4.919  18.745  0.00  0.00    +0.000 C 
ATOM      9  S   UNL     1       1.081   4.017  17.240  0.00  0.00    +0.000 S 
ATOM     10  C   UNL     1       2.359   2.806  17.379  0.00  0.00    +0.000 C 
ENDROOT
BRANCH   7  11
ATOM     11  N   UNL     1       3.962   5.293  18.716  0.00  0.00    +0.000 N 
ATOM     12  C   UNL     1       4.850   6.008  17.953  0.00  0.00    +0.000 C 
ATOM     13  O   UNL     1       4.590   7.119  17.504  0.00  0.00    +0.000 OA
ATOM     14  H   UNL     1       4.310   4.442  19.150  0.00  0.00    +0.000 HD
BRANCH  12  15
ATOM     15  CA  UNL     1       6.187   5.256  17.633  0.00  0.00    +0.000 C 
BRANCH  15  16
ATOM     16  C   UNL     1       6.307   4.869  16.178  0.00  0.00    +0.000 C 
ATOM     17  C   UNL     1       7.361   5.258  15.428  0.00  0.00    +0.000 C 
ATOM     18  C   UNL     1       7.569   4.872  13.989  0.00  0.00    +0.000 C 
ATOM     19  C   UNL     1       6.443   4.069  13.414  0.00  0.00    +0.000 C 
ATOM     20  C   UNL     1       5.389   3.673  14.141  0.00  0.00    +0.000 C 
ATOM     21  C   UNL     1       5.216   3.995  15.601  0.00  0.00    +0.000 C 
ENDBRANCH  15  16
BRANCH  15  22
ATOM     22  N   UNL     1       6.312   4.074  18.502  0.00  0.00    +0.000 NA
ATOM     23  H1  UNL     1       5.494   3.483  18.325  0.00  0.00    +0.000 HD
ATOM     24  H2  UNL     1       6.196   4.366  19.471  0.00  0.00    +0.000 HD
ENDBRANCH  15  22
ENDBRANCH  12  15
ENDBRANCH   7  11
BRANCH   3  25
ATOM     25  C   UNL     1       2.797   2.404  21.255  0.00  0.00    +0.000 C 
ATOM     26  O   UNL     1       3.917   2.073  21.598  0.00  0.00    +0.000 OA
BRANCH  25  27
ATOM     27  OXT UNL     1       1.762   2.234  22.095  0.00  0.00    +0.000 OA
ATOM     28  HXT UNL     1       1.821   2.990  22.715  0.00  0.00    +0.000 HD
ENDBRANCH  25  27
ENDBRANCH   3  25
TORSDOF 6
ENDMDL
