MODEL 1
REMARK VINA RESULT:      -6.8      0.000      0.000
REMARK  Name = 
REMARK  14 active torsions:
REMARK  status: ('A' for Active; 'I' for Inactive)
REMARK    1  A    between atoms: CD_2  and  OE2_3
REMARK    2  A    between atoms: CD_2  and  CG_4
REMARK    3  A    between atoms: CG_4  and  CB_5
REMARK    4  A    between atoms: CB_5  and  CA_6
REMARK    5  A    between atoms: CA_6  and  N_7
REMARK    6  A    between atoms: CA_6  and  C_28
REMARK    7  A    between atoms: C_8  and  O_10
REMARK    8  A    between atoms: O_10  and  C_11
REMARK    9  A    between atoms: C_14  and  N_15
REMARK   10  A    between atoms: N_15  and  C_16
REMARK   11  A    between atoms: N_15  and  C_19
REMARK   12  A    between atoms: C_16  and  C_17
REMARK   13  A    between atoms: C_19  and  C_20
REMARK   14  A    between atoms: C_28  and  OXT_30
REMARK                            x       y       z     vdW  Elec       q    Type
REMARK                         _______ _______ _______ _____ _____    ______ ____
ROOT
ATOM      1  C   UNK A   0       2.008   6.668  19.447  0.00  0.00    +0.000 A 
ATOM      2  C   UNK A   0       2.822   7.365  18.572  0.00  0.00    +0.000 A 
ATOM      3  C   UNK A   0       3.860   6.714  17.908  0.00  0.00    +0.000 A 
ATOM      4  C   UNK A   0       4.208   5.363  18.121  0.00  0.00    +0.000 A 
ATOM      5  C   UNK A   0       3.415   4.675  19.096  0.00  0.00    +0.000 A 
ATOM      6  C   UNK A   0       2.297   5.326  19.742  0.00  0.00    +0.000 A 
ATOM      7  C   UNK A   0       1.487   4.640  20.824  0.00  0.00    +0.000 C 
ATOM      8  C   UNK A   0       1.617   3.124  20.825  0.00  0.00    +0.000 C 
ATOM      9  C   UNK A   0       3.086   2.755  20.799  0.00  0.00    +0.000 C 
ATOM     10  C   UNK A   0       3.727   3.249  19.506  0.00  0.00    +0.000 C 
ENDROOT
BRANCH   1  11
ATOM     11  O   UNK A   0       0.959   7.326  20.141  0.00  0.00    +0.000 OA
BRANCH  11  13
ATOM     12  N   GLU A   1       0.444   9.536  20.543  0.00  0.00    +0.000 N 
ATOM     13  C   UNK A   0       1.274   8.490  20.818  0.00  0.00    +0.000 C 
ATOM     14  O   UNK A   0       2.127   8.645  21.687  0.00  0.00    +0.000 OA
ATOM     15  H   GLU A   1       0.374  10.214  21.296  0.00  0.00    +0.000 HD
BRANCH  12  16
ATOM     16  CA  GLU A   1       0.126   9.977  19.186  0.00  0.00    +0.000 C 
BRANCH  16  17
ATOM     17  C   GLU A   1       1.303  10.840  18.692  0.00  0.00    +0.000 C 
ATOM     18  O   GLU A   1       1.702  11.854  19.253  0.00  0.00    +0.000 OA
BRANCH  17  19
ATOM     19  OXT GLU A   1       1.832  10.437  17.508  0.00  0.00    +0.000 OA
ATOM     20  HXT GLU A   1       1.964   9.467  17.448  0.00  0.00    +0.000 HD
ENDBRANCH  17  19
ENDBRANCH  16  17
BRANCH  16  21
ATOM     21  CB  GLU A   1      -1.218  10.714  19.197  0.00  0.00    +0.000 C 
BRANCH  21  22
ATOM     22  CG  GLU A   1      -1.543  11.536  17.945  0.00  0.00    +0.000 C 
BRANCH  22  24
ATOM     23  OE1 GLU A   1      -2.793   9.644  17.106  0.00  0.00    +0.000 OA
ATOM     24  CD  GLU A   1      -2.322  10.755  16.916  0.00  0.00    +0.000 C 
BRANCH  24  25
ATOM     25  OE2 GLU A   1      -2.478  11.417  15.750  0.00  0.00    +0.000 OA
ATOM     26  HE2 GLU A   1      -3.043  12.211  15.808  0.00  0.00    +0.000 HD
ENDBRANCH  24  25
ENDBRANCH  22  24
ENDBRANCH  21  22
ENDBRANCH  16  21
ENDBRANCH  12  16
ENDBRANCH  11  13
ENDBRANCH   1  11
BRANCH   4  27
ATOM     27  N   UNK A   0       5.300   4.839  17.417  0.00  0.00    +0.000 N 
BRANCH  27  28
ATOM     28  C   UNK A   0       6.674   4.698  17.946  0.00  0.00    +0.000 C 
BRANCH  28  29
ATOM     29  C   UNK A   0       7.257   5.940  18.619  0.00  0.00    +0.000 C 
ATOM     30 CL   UNK A   0       7.534   7.272  17.467  0.00  0.00    +0.000 Cl
ENDBRANCH  28  29
ENDBRANCH  27  28
BRANCH  27  31
ATOM     31  C   UNK A   0       5.102   4.211  16.080  0.00  0.00    +0.000 C 
BRANCH  31  32
ATOM     32  C   UNK A   0       5.886   4.890  14.951  0.00  0.00    +0.000 C 
ATOM     33 CL   UNK A   0       6.058   3.832  13.523  0.00  0.00    +0.000 Cl
ENDBRANCH  31  32
ENDBRANCH  27  31
ENDBRANCH   4  27
TORSDOF 14
ENDMDL
MODEL 2
REMARK VINA RESULT:      -6.6      3.747      7.890
REMARK  Name = 
REMARK  14 active torsions:
REMARK  status: ('A' for Active; 'I' for Inactive)
REMARK    1  A    between atoms: CD_2  and  OE2_3
REMARK    2  A    between atoms: CD_2  and  CG_4
REMARK    3  A    between atoms: CG_4  and  CB_5
REMARK    4  A    between atoms: CB_5  and  CA_6
REMARK    5  A    between atoms: CA_6  and  N_7
REMARK    6  A    between atoms: CA_6  and  C_28
REMARK    7  A    between atoms: C_8  and  O_10
REMARK    8  A    between atoms: O_10  and  C_11
REMARK    9  A    between atoms: C_14  and  N_15
REMARK   10  A    between atoms: N_15  and  C_16
REMARK   11  A    between atoms: N_15  and  C_19
REMARK   12  A    between atoms: C_16  and  C_17
REMARK   13  A    between atoms: C_19  and  C_20
REMARK   14  A    between atoms: C_28  and  OXT_30
REMARK                            x       y       z     vdW  Elec       q    Type
REMARK                         _______ _______ _______ _____ _____    ______ ____
ROOT
ATOM      1  C   UNK A   0       1.834   8.310  19.106  0.00  0.00    +0.000 A 
ATOM      2  C   UNK A   0       1.642   8.837  17.841  0.00  0.00    +0.000 A 
ATOM      3  C   UNK A   0       0.933  10.025  17.676  0.00  0.00    +0.000 A 
ATOM      4  C   UNK A   0       0.307  10.724  18.730  0.00  0.00    +0.000 A 
ATOM      5  C   UNK A   0       0.437  10.121  20.024  0.00  0.00    +0.000 A 
ATOM      6  C   UNK A   0       1.224   8.922  20.213  0.00  0.00    +0.000 A 
ATOM      7  C   UNK A   0       1.319   8.230  21.557  0.00  0.00    +0.000 C 
ATOM      8  C   UNK A   0       0.953   9.120  22.736  0.00  0.00    +0.000 C 
ATOM      9  C   UNK A   0      -0.378   9.787  22.456  0.00  0.00    +0.000 C 
ATOM     10  C   UNK A   0      -0.261  10.699  21.239  0.00  0.00    +0.000 C 
ENDROOT
BRANCH   1  11
ATOM     11  O   UNK A   0       2.540   7.090  19.284  0.00  0.00    +0.000 OA
BRANCH  11  13
ATOM     12  N   GLU A   1       2.993   5.424  17.757  0.00  0.00    +0.000 N 
ATOM     13  C   UNK A   0       3.332   6.655  18.238  0.00  0.00    +0.000 C 
ATOM     14  O   UNK A   0       4.209   7.280  17.650  0.00  0.00    +0.000 OA
ATOM     15  H   GLU A   1       3.237   5.282  16.783  0.00  0.00    +0.000 HD
BRANCH  12  16
ATOM     16  CA  GLU A   1       2.827   4.246  18.606  0.00  0.00    +0.000 C 
BRANCH  16  17
ATOM     17  C   GLU A   1       3.390   3.037  17.835  0.00  0.00    +0.000 C 
ATOM     18  O   GLU A   1       2.821   1.957  17.726  0.00  0.00    +0.000 OA
BRANCH  17  19
ATOM     19  OXT GLU A   1       4.640   3.226  17.337  0.00  0.00    +0.000 OA
ATOM     20  HXT GLU A   1       4.656   3.749  16.508  0.00  0.00    +0.000 HD
ENDBRANCH  17  19
ENDBRANCH  16  17
BRANCH  16  21
ATOM     21  CB  GLU A   1       1.350   4.101  18.986  0.00  0.00    +0.000 C 
BRANCH  21  22
ATOM     22  CG  GLU A   1       1.062   3.361  20.298  0.00  0.00    +0.000 C 
BRANCH  22  24
ATOM     23  OE1 GLU A   1       2.510   2.905  22.180  0.00  0.00    +0.000 OA
ATOM     24  CD  GLU A   1       2.038   3.712  21.394  0.00  0.00    +0.000 C 
BRANCH  24  25
ATOM     25  OE2 GLU A   1       2.369   5.021  21.413  0.00  0.00    +0.000 OA
ATOM     26  HE2 GLU A   1       3.286   5.202  21.696  0.00  0.00    +0.000 HD
ENDBRANCH  24  25
ENDBRANCH  22  24
ENDBRANCH  21  22
ENDBRANCH  16  21
ENDBRANCH  12  16
ENDBRANCH  11  13
ENDBRANCH   1  11
BRANCH   4  27
ATOM     27  N   UNK A   0      -0.408  11.888  18.424  0.00  0.00    +0.000 N 
BRANCH  27  28
ATOM     28  C   UNK A   0       0.128  13.266  18.482  0.00  0.00    +0.000 C 
BRANCH  28  29
ATOM     29  C   UNK A   0       1.430  13.438  19.263  0.00  0.00    +0.000 C 
ATOM     30 CL   UNK A   0       2.872  13.260  18.229  0.00  0.00    +0.000 Cl
ENDBRANCH  28  29
ENDBRANCH  27  28
BRANCH  27  31
ATOM     31  C   UNK A   0      -1.775  11.799  17.835  0.00  0.00    +0.000 C 
BRANCH  31  32
ATOM     32  C   UNK A   0      -2.883  11.549  18.864  0.00  0.00    +0.000 C 
ATOM     33 CL   UNK A   0      -2.917  12.804  20.132  0.00  0.00    +0.000 Cl
ENDBRANCH  31  32
ENDBRANCH  27  31
ENDBRANCH   4  27
TORSDOF 14
ENDMDL
MODEL 3
REMARK VINA RESULT:      -6.6      3.990      8.379
REMARK  Name = 
REMARK  14 active torsions:
REMARK  status: ('A' for Active; 'I' for Inactive)
REMARK    1  A    between atoms: CD_2  and  OE2_3
REMARK    2  A    between atoms: CD_2  and  CG_4
REMARK    3  A    between atoms: CG_4  and  CB_5
REMARK    4  A    between atoms: CB_5  and  CA_6
REMARK    5  A    between atoms: CA_6  and  N_7
REMARK    6  A    between atoms: CA_6  and  C_28
REMARK    7  A    between atoms: C_8  and  O_10
REMARK    8  A    between atoms: O_10  and  C_11
REMARK    9  A    between atoms: C_14  and  N_15
REMARK   10  A    between atoms: N_15  and  C_16
REMARK   11  A    between atoms: N_15  and  C_19
REMARK   12  A    between atoms: C_16  and  C_17
REMARK   13  A    between atoms: C_19  and  C_20
REMARK   14  A    between atoms: C_28  and  OXT_30
REMARK                            x       y       z     vdW  Elec       q    Type
REMARK                         _______ _______ _______ _____ _____    ______ ____
ROOT
ATOM      1  C   UNK A   0       1.616   8.562  19.213  0.00  0.00    +0.000 A 
ATOM      2  C   UNK A   0       1.274   9.006  17.948  0.00  0.00    +0.000 A 
ATOM      3  C   UNK A   0       0.408  10.086  17.794  0.00  0.00    +0.000 A 
ATOM      4  C   UNK A   0      -0.234  10.743  18.866  0.00  0.00    +0.000 A 
ATOM      5  C   UNK A   0       0.058  10.217  20.166  0.00  0.00    +0.000 A 
ATOM      6  C   UNK A   0       1.005   9.137  20.339  0.00  0.00    +0.000 A 
ATOM      7  C   UNK A   0       1.278   8.520  21.696  0.00  0.00    +0.000 C 
ATOM      8  C   UNK A   0       0.877   9.404  22.867  0.00  0.00    +0.000 C 
ATOM      9  C   UNK A   0      -0.545   9.884  22.660  0.00  0.00    +0.000 C 
ATOM     10  C   UNK A   0      -0.628  10.751  21.408  0.00  0.00    +0.000 C 
ENDROOT
BRANCH   1  11
ATOM     11  O   UNK A   0       2.485   7.451  19.381  0.00  0.00    +0.000 OA
BRANCH  11  13
ATOM     12  N   GLU A   1       3.050   5.676  18.023  0.00  0.00    +0.000 N 
ATOM     13  C   UNK A   0       3.180   7.012  18.269  0.00  0.00    +0.000 C 
ATOM     14  O   UNK A   0       3.793   7.690  17.452  0.00  0.00    +0.000 OA
ATOM     15  H   GLU A   1       3.164   5.426  17.046  0.00  0.00    +0.000 HD
BRANCH  12  16
ATOM     16  CA  GLU A   1       3.285   4.645  19.032  0.00  0.00    +0.000 C 
BRANCH  16  17
ATOM     17  C   GLU A   1       4.178   3.565  18.391  0.00  0.00    +0.000 C 
ATOM     18  O   GLU A   1       3.980   3.065  17.291  0.00  0.00    +0.000 OA
BRANCH  17  19
ATOM     19  OXT GLU A   1       5.188   3.131  19.190  0.00  0.00    +0.000 OA
ATOM     20  HXT GLU A   1       5.616   2.309  18.867  0.00  0.00    +0.000 HD
ENDBRANCH  17  19
ENDBRANCH  16  17
BRANCH  16  21
ATOM     21  CB  GLU A   1       1.938   4.113  19.532  0.00  0.00    +0.000 C 
BRANCH  21  22
ATOM     22  CG  GLU A   1       1.713   4.173  21.047  0.00  0.00    +0.000 C 
BRANCH  22  24
ATOM     23  OE1 GLU A   1       1.183   2.224  22.377  0.00  0.00    +0.000 OA
ATOM     24  CD  GLU A   1       2.003   2.862  21.736  0.00  0.00    +0.000 C 
BRANCH  24  25
ATOM     25  OE2 GLU A   1       3.272   2.436  21.554  0.00  0.00    +0.000 OA
ATOM     26  HE2 GLU A   1       3.648   1.952  22.314  0.00  0.00    +0.000 HD
ENDBRANCH  24  25
ENDBRANCH  22  24
ENDBRANCH  21  22
ENDBRANCH  16  21
ENDBRANCH  12  16
ENDBRANCH  11  13
ENDBRANCH   1  11
BRANCH   4  27
ATOM     27  N   UNK A   0      -1.113  11.792  18.571  0.00  0.00    +0.000 N 
BRANCH  27  28
ATOM     28  C   UNK A   0      -2.588  11.731  18.677  0.00  0.00    +0.000 C 
BRANCH  28  29
ATOM     29  C   UNK A   0      -3.288  10.822  17.667  0.00  0.00    +0.000 C 
ATOM     30 CL   UNK A   0      -2.589  10.956  16.032  0.00  0.00    +0.000 Cl
ENDBRANCH  28  29
ENDBRANCH  27  28
BRANCH  27  31
ATOM     31  C   UNK A   0      -0.588  13.154  18.273  0.00  0.00    +0.000 C 
BRANCH  31  32
ATOM     32  C   UNK A   0      -0.525  14.080  19.494  0.00  0.00    +0.000 C 
ATOM     33 CL   UNK A   0      -0.579  15.803  19.034  0.00  0.00    +0.000 Cl
ENDBRANCH  31  32
ENDBRANCH  27  31
ENDBRANCH   4  27
TORSDOF 14
ENDMDL
MODEL 4
REMARK VINA RESULT:      -6.6      1.353      2.843
REMARK  Name = 
REMARK  14 active torsions:
REMARK  status: ('A' for Active; 'I' for Inactive)
REMARK    1  A    between atoms: CD_2  and  OE2_3
REMARK    2  A    between atoms: CD_2  and  CG_4
REMARK    3  A    between atoms: CG_4  and  CB_5
REMARK    4  A    between atoms: CB_5  and  CA_6
REMARK    5  A    between atoms: CA_6  and  N_7
REMARK    6  A    between atoms: CA_6  and  C_28
REMARK    7  A    between atoms: C_8  and  O_10
REMARK    8  A    between atoms: O_10  and  C_11
REMARK    9  A    between atoms: C_14  and  N_15
REMARK   10  A    between atoms: N_15  and  C_16
REMARK   11  A    between atoms: N_15  and  C_19
REMARK   12  A    between atoms: C_16  and  C_17
REMARK   13  A    between atoms: C_19  and  C_20
REMARK   14  A    between atoms: C_28  and  OXT_30
REMARK                            x       y       z     vdW  Elec       q    Type
REMARK                         _______ _______ _______ _____ _____    ______ ____
ROOT
ATOM      1  C   UNK A   0       2.464   7.519  18.718  0.00  0.00    +0.000 A 
ATOM      2  C   UNK A   0       3.430   7.880  17.795  0.00  0.00    +0.000 A 
ATOM      3  C   UNK A   0       4.363   6.945  17.354  0.00  0.00    +0.000 A 
ATOM      4  C   UNK A   0       4.453   5.626  17.847  0.00  0.00    +0.000 A 
ATOM      5  C   UNK A   0       3.504   5.290  18.867  0.00  0.00    +0.000 A 
ATOM      6  C   UNK A   0       2.493   6.235  19.285  0.00  0.00    +0.000 A 
ATOM      7  C   UNK A   0       1.524   5.926  20.409  0.00  0.00    +0.000 C 
ATOM      8  C   UNK A   0       1.380   4.441  20.708  0.00  0.00    +0.000 C 
ATOM      9  C   UNK A   0       2.758   3.834  20.871  0.00  0.00    +0.000 C 
ATOM     10  C   UNK A   0       3.536   3.944  19.564  0.00  0.00    +0.000 C 
ENDROOT
BRANCH   1  11
ATOM     11  O   UNK A   0       1.518   8.469  19.188  0.00  0.00    +0.000 OA
BRANCH  11  13
ATOM     12  N   GLU A   1       0.777  10.651  19.216  0.00  0.00    +0.000 N 
ATOM     13  C   UNK A   0       1.462   9.687  18.536  0.00  0.00    +0.000 C 
ATOM     14  O   UNK A   0       2.032  10.011  17.499  0.00  0.00    +0.000 OA
ATOM     15  H   GLU A   1       1.076  11.597  19.001  0.00  0.00    +0.000 HD
BRANCH  12  16
ATOM     16  CA  GLU A   1      -0.571  10.458  19.747  0.00  0.00    +0.000 C 
BRANCH  16  17
ATOM     17  C   GLU A   1      -1.566  10.806  18.623  0.00  0.00    +0.000 C 
ATOM     18  O   GLU A   1      -2.057   9.989  17.854  0.00  0.00    +0.000 OA
BRANCH  17  19
ATOM     19  OXT GLU A   1      -1.805  12.136  18.482  0.00  0.00    +0.000 OA
ATOM     20  HXT GLU A   1      -1.932  12.415  17.550  0.00  0.00    +0.000 HD
ENDBRANCH  17  19
ENDBRANCH  16  17
BRANCH  16  21
ATOM     21  CB  GLU A   1      -0.744  11.309  21.009  0.00  0.00    +0.000 C 
BRANCH  21  22
ATOM     22  CG  GLU A   1      -0.564  10.577  22.344  0.00  0.00    +0.000 C 
BRANCH  22  24
ATOM     23  OE1 GLU A   1      -0.813   8.183  22.106  0.00  0.00    +0.000 OA
ATOM     24  CD  GLU A   1      -0.080   9.158  22.173  0.00  0.00    +0.000 C 
BRANCH  24  25
ATOM     25  OE2 GLU A   1       1.263   9.062  22.073  0.00  0.00    +0.000 OA
ATOM     26  HE2 GLU A   1       1.615   9.232  21.178  0.00  0.00    +0.000 HD
ENDBRANCH  24  25
ENDBRANCH  22  24
ENDBRANCH  21  22
ENDBRANCH  16  21
ENDBRANCH  12  16
ENDBRANCH  11  13
ENDBRANCH   1  11
BRANCH   4  27
ATOM     27  N   UNK A   0       5.464   4.796  17.346  0.00  0.00    +0.000 N 
BRANCH  27  28
ATOM     28  C   UNK A   0       6.826   4.666  17.910  0.00  0.00    +0.000 C 
BRANCH  28  29
ATOM     29  C   UNK A   0       7.169   5.632  19.043  0.00  0.00    +0.000 C 
ATOM     30 CL   UNK A   0       8.078   7.056  18.471  0.00  0.00    +0.000 Cl
ENDBRANCH  28  29
ENDBRANCH  27  28
BRANCH  27  31
ATOM     31  C   UNK A   0       5.169   3.824  16.256  0.00  0.00    +0.000 C 
BRANCH  31  32
ATOM     32  C   UNK A   0       6.237   3.776  15.157  0.00  0.00    +0.000 C 
ATOM     33 CL   UNK A   0       5.536   3.993  13.530  0.00  0.00    +0.000 Cl
ENDBRANCH  31  32
ENDBRANCH  27  31
ENDBRANCH   4  27
TORSDOF 14
ENDMDL
MODEL 5
REMARK VINA RESULT:      -6.5      3.908      7.869
REMARK  Name = 
REMARK  14 active torsions:
REMARK  status: ('A' for Active; 'I' for Inactive)
REMARK    1  A    between atoms: CD_2  and  OE2_3
REMARK    2  A    between atoms: CD_2  and  CG_4
REMARK    3  A    between atoms: CG_4  and  CB_5
REMARK    4  A    between atoms: CB_5  and  CA_6
REMARK    5  A    between atoms: CA_6  and  N_7
REMARK    6  A    between atoms: CA_6  and  C_28
REMARK    7  A    between atoms: C_8  and  O_10
REMARK    8  A    between atoms: O_10  and  C_11
REMARK    9  A    between atoms: C_14  and  N_15
REMARK   10  A    between atoms: N_15  and  C_16
REMARK   11  A    between atoms: N_15  and  C_19
REMARK   12  A    between atoms: C_16  and  C_17
REMARK   13  A    between atoms: C_19  and  C_20
REMARK   14  A    between atoms: C_28  and  OXT_30
REMARK                            x       y       z     vdW  Elec       q    Type
REMARK                         _______ _______ _______ _____ _____    ______ ____
ROOT
ATOM      1  C   UNK A   0       1.562   8.557  19.357  0.00  0.00    +0.000 A 
ATOM      2  C   UNK A   0       1.283   9.052  18.096  0.00  0.00    +0.000 A 
ATOM      3  C   UNK A   0       0.497  10.193  17.947  0.00  0.00    +0.000 A 
ATOM      4  C   UNK A   0      -0.123  10.870  19.019  0.00  0.00    +0.000 A 
ATOM      5  C   UNK A   0       0.101  10.296  20.313  0.00  0.00    +0.000 A 
ATOM      6  C   UNK A   0       0.965   9.149  20.482  0.00  0.00    +0.000 A 
ATOM      7  C   UNK A   0       1.162   8.486  21.830  0.00  0.00    +0.000 C 
ATOM      8  C   UNK A   0       0.795   9.371  23.013  0.00  0.00    +0.000 C 
ATOM      9  C   UNK A   0      -0.584   9.953  22.784  0.00  0.00    +0.000 C 
ATOM     10  C   UNK A   0      -0.576  10.851  21.551  0.00  0.00    +0.000 C 
ENDROOT
BRANCH   1  11
ATOM     11  O   UNK A   0       2.347   7.385  19.519  0.00  0.00    +0.000 OA
BRANCH  11  13
ATOM     12  N   GLU A   1       3.500   5.690  18.465  0.00  0.00    +0.000 N 
ATOM     13  C   UNK A   0       3.159   7.011  18.464  0.00  0.00    +0.000 C 
ATOM     14  O   UNK A   0       3.505   7.694  17.506  0.00  0.00    +0.000 OA
ATOM     15  H   GLU A   1       3.701   5.318  17.543  0.00  0.00    +0.000 HD
BRANCH  12  16
ATOM     16  CA  GLU A   1       4.070   5.007  19.625  0.00  0.00    +0.000 C 
BRANCH  16  17
ATOM     17  C   GLU A   1       5.548   4.710  19.308  0.00  0.00    +0.000 C 
ATOM     18  O   GLU A   1       6.493   5.359  19.738  0.00  0.00    +0.000 OA
BRANCH  17  19
ATOM     19  OXT GLU A   1       5.736   3.698  18.421  0.00  0.00    +0.000 OA
ATOM     20  HXT GLU A   1       6.681   3.490  18.259  0.00  0.00    +0.000 HD
ENDBRANCH  17  19
ENDBRANCH  16  17
BRANCH  16  21
ATOM     21  CB  GLU A   1       3.241   3.755  19.930  0.00  0.00    +0.000 C 
BRANCH  21  22
ATOM     22  CG  GLU A   1       1.729   3.881  19.712  0.00  0.00    +0.000 C 
BRANCH  22  24
ATOM     23  OE1 GLU A   1       1.145   3.797  17.367  0.00  0.00    +0.000 OA
ATOM     24  CD  GLU A   1       1.264   3.221  18.437  0.00  0.00    +0.000 C 
BRANCH  24  25
ATOM     25  OE2 GLU A   1       1.009   1.903  18.582  0.00  0.00    +0.000 OA
ATOM     26  HE2 GLU A   1       0.755   1.637  19.488  0.00  0.00    +0.000 HD
ENDBRANCH  24  25
ENDBRANCH  22  24
ENDBRANCH  21  22
ENDBRANCH  16  21
ENDBRANCH  12  16
ENDBRANCH  11  13
ENDBRANCH   1  11
BRANCH   4  27
ATOM     27  N   UNK A   0      -0.920  11.984  18.730  0.00  0.00    +0.000 N 
BRANCH  27  28
ATOM     28  C   UNK A   0      -0.420  13.305  18.289  0.00  0.00    +0.000 C 
BRANCH  28  29
ATOM     29  C   UNK A   0      -0.361  14.385  19.369  0.00  0.00    +0.000 C 
ATOM     30 CL   UNK A   0       0.804  15.677  18.976  0.00  0.00    +0.000 Cl
ENDBRANCH  28  29
ENDBRANCH  27  28
BRANCH  27  31
ATOM     31  C   UNK A   0      -2.404  11.858  18.689  0.00  0.00    +0.000 C 
BRANCH  31  32
ATOM     32  C   UNK A   0      -2.944  11.262  17.383  0.00  0.00    +0.000 C 
ATOM     33 CL   UNK A   0      -3.226   9.504  17.515  0.00  0.00    +0.000 Cl
ENDBRANCH  31  32
ENDBRANCH  27  31
ENDBRANCH   4  27
TORSDOF 14
ENDMDL
MODEL 6
REMARK VINA RESULT:      -6.5      1.566      3.500
REMARK  Name = 
REMARK  14 active torsions:
REMARK  status: ('A' for Active; 'I' for Inactive)
REMARK    1  A    between atoms: CD_2  and  OE2_3
REMARK    2  A    between atoms: CD_2  and  CG_4
REMARK    3  A    between atoms: CG_4  and  CB_5
REMARK    4  A    between atoms: CB_5  and  CA_6
REMARK    5  A    between atoms: CA_6  and  N_7
REMARK    6  A    between atoms: CA_6  and  C_28
REMARK    7  A    between atoms: C_8  and  O_10
REMARK    8  A    between atoms: O_10  and  C_11
REMARK    9  A    between atoms: C_14  and  N_15
REMARK   10  A    between atoms: N_15  and  C_16
REMARK   11  A    between atoms: N_15  and  C_19
REMARK   12  A    between atoms: C_16  and  C_17
REMARK   13  A    between atoms: C_19  and  C_20
REMARK   14  A    between atoms: C_28  and  OXT_30
REMARK                            x       y       z     vdW  Elec       q    Type
REMARK                         _______ _______ _______ _____ _____    ______ ____
ROOT
ATOM      1  C   UNK A   0       2.423   7.579  18.654  0.00  0.00    +0.000 A 
ATOM      2  C   UNK A   0       3.348   7.919  17.683  0.00  0.00    +0.000 A 
ATOM      3  C   UNK A   0       4.247   6.968  17.206  0.00  0.00    +0.000 A 
ATOM      4  C   UNK A   0       4.344   5.652  17.706  0.00  0.00    +0.000 A 
ATOM      5  C   UNK A   0       3.441   5.338  18.773  0.00  0.00    +0.000 A 
ATOM      6  C   UNK A   0       2.463   6.299  19.231  0.00  0.00    +0.000 A 
ATOM      7  C   UNK A   0       1.545   6.012  20.402  0.00  0.00    +0.000 C 
ATOM      8  C   UNK A   0       1.397   4.532  20.722  0.00  0.00    +0.000 C 
ATOM      9  C   UNK A   0       2.773   3.909  20.824  0.00  0.00    +0.000 C 
ATOM     10  C   UNK A   0       3.490   3.998  19.480  0.00  0.00    +0.000 C 
ENDROOT
BRANCH   1  11
ATOM     11  O   UNK A   0       1.514   8.545  19.160  0.00  0.00    +0.000 OA
BRANCH  11  13
ATOM     12  N   GLU A   1       0.946  10.776  19.277  0.00  0.00    +0.000 N 
ATOM     13  C   UNK A   0       1.457   9.767  18.515  0.00  0.00    +0.000 C 
ATOM     14  O   UNK A   0       1.900  10.050  17.406  0.00  0.00    +0.000 OA
ATOM     15  H   GLU A   1       1.281  11.697  19.016  0.00  0.00    +0.000 HD
BRANCH  12  16
ATOM     16  CA  GLU A   1      -0.326  10.681  19.991  0.00  0.00    +0.000 C 
BRANCH  16  17
ATOM     17  C   GLU A   1      -1.432  11.164  19.033  0.00  0.00    +0.000 C 
ATOM     18  O   GLU A   1      -1.733  12.339  18.858  0.00  0.00    +0.000 OA
BRANCH  17  19
ATOM     19  OXT GLU A   1      -2.132  10.163  18.438  0.00  0.00    +0.000 OA
ATOM     20  HXT GLU A   1      -1.854   9.986  17.514  0.00  0.00    +0.000 HD
ENDBRANCH  17  19
ENDBRANCH  16  17
BRANCH  16  21
ATOM     21  CB  GLU A   1      -0.238  11.489  21.289  0.00  0.00    +0.000 C 
BRANCH  21  22
ATOM     22  CG  GLU A   1      -0.966  10.896  22.501  0.00  0.00    +0.000 C 
BRANCH  22  24
ATOM     23  OE1 GLU A   1      -0.778   8.485  22.444  0.00  0.00    +0.000 OA
ATOM     24  CD  GLU A   1      -0.416   9.553  22.915  0.00  0.00    +0.000 C 
BRANCH  24  25
ATOM     25  OE2 GLU A   1       0.550   9.640  23.854  0.00  0.00    +0.000 OA
ATOM     26  HE2 GLU A   1       0.881  10.545  24.011  0.00  0.00    +0.000 HD
ENDBRANCH  24  25
ENDBRANCH  22  24
ENDBRANCH  21  22
ENDBRANCH  16  21
ENDBRANCH  12  16
ENDBRANCH  11  13
ENDBRANCH   1  11
BRANCH   4  27
ATOM     27  N   UNK A   0       5.319   4.806  17.164  0.00  0.00    +0.000 N 
BRANCH  27  28
ATOM     28  C   UNK A   0       5.281   4.207  15.811  0.00  0.00    +0.000 C 
BRANCH  28  29
ATOM     29  C   UNK A   0       6.584   4.281  15.017  0.00  0.00    +0.000 C 
ATOM     30 CL   UNK A   0       6.355   3.877  13.295  0.00  0.00    +0.000 Cl
ENDBRANCH  28  29
ENDBRANCH  27  28
BRANCH  27  31
ATOM     31  C   UNK A   0       6.599   4.570  17.890  0.00  0.00    +0.000 C 
BRANCH  31  32
ATOM     32  C   UNK A   0       7.136   5.804  18.624  0.00  0.00    +0.000 C 
ATOM     33 CL   UNK A   0       7.669   7.079  17.495  0.00  0.00    +0.000 Cl
ENDBRANCH  31  32
ENDBRANCH  27  31
ENDBRANCH   4  27
TORSDOF 14
ENDMDL
MODEL 7
REMARK VINA RESULT:      -6.5      1.663      3.130
REMARK  Name = 
REMARK  14 active torsions:
REMARK  status: ('A' for Active; 'I' for Inactive)
REMARK    1  A    between atoms: CD_2  and  OE2_3
REMARK    2  A    between atoms: CD_2  and  CG_4
REMARK    3  A    between atoms: CG_4  and  CB_5
REMARK    4  A    between atoms: CB_5  and  CA_6
REMARK    5  A    between atoms: CA_6  and  N_7
REMARK    6  A    between atoms: CA_6  and  C_28
REMARK    7  A    between atoms: C_8  and  O_10
REMARK    8  A    between atoms: O_10  and  C_11
REMARK    9  A    between atoms: C_14  and  N_15
REMARK   10  A    between atoms: N_15  and  C_16
REMARK   11  A    between atoms: N_15  and  C_19
REMARK   12  A    between atoms: C_16  and  C_17
REMARK   13  A    between atoms: C_19  and  C_20
REMARK   14  A    between atoms: C_28  and  OXT_30
REMARK                            x       y       z     vdW  Elec       q    Type
REMARK                         _______ _______ _______ _____ _____    ______ ____
ROOT
ATOM      1  C   UNK A   0       2.831   7.288  18.131  0.00  0.00    +0.000 A 
ATOM      2  C   UNK A   0       3.824   7.800  17.315  0.00  0.00    +0.000 A 
ATOM      3  C   UNK A   0       4.771   6.952  16.745  0.00  0.00    +0.000 A 
ATOM      4  C   UNK A   0       4.846   5.566  17.003  0.00  0.00    +0.000 A 
ATOM      5  C   UNK A   0       3.867   5.062  17.919  0.00  0.00    +0.000 A 
ATOM      6  C   UNK A   0       2.842   5.924  18.466  0.00  0.00    +0.000 A 
ATOM      7  C   UNK A   0       1.840   5.429  19.489  0.00  0.00    +0.000 C 
ATOM      8  C   UNK A   0       1.687   3.915  19.520  0.00  0.00    +0.000 C 
ATOM      9  C   UNK A   0       3.060   3.283  19.615  0.00  0.00    +0.000 C 
ATOM     10  C   UNK A   0       3.878   3.615  18.372  0.00  0.00    +0.000 C 
ENDROOT
BRANCH   1  11
ATOM     11  O   UNK A   0       1.871   8.146  18.731  0.00  0.00    +0.000 OA
BRANCH  11  13
ATOM     12  N   GLU A   1       0.937  10.242  18.949  0.00  0.00    +0.000 N 
ATOM     13  C   UNK A   0       1.757   9.428  18.224  0.00  0.00    +0.000 C 
ATOM     14  O   UNK A   0       2.375   9.921  17.287  0.00  0.00    +0.000 OA
ATOM     15  H   GLU A   1       1.166  11.228  18.873  0.00  0.00    +0.000 HD
BRANCH  12  16
ATOM     16  CA  GLU A   1      -0.426   9.878  19.332  0.00  0.00    +0.000 C 
BRANCH  16  17
ATOM     17  C   GLU A   1      -1.387  10.615  18.380  0.00  0.00    +0.000 C 
ATOM     18  O   GLU A   1      -1.853  11.728  18.591  0.00  0.00    +0.000 OA
BRANCH  17  19
ATOM     19  OXT GLU A   1      -1.763   9.890  17.294  0.00  0.00    +0.000 OA
ATOM     20  HXT GLU A   1      -1.121   9.189  17.051  0.00  0.00    +0.000 HD
ENDBRANCH  17  19
ENDBRANCH  16  17
BRANCH  16  21
ATOM     21  CB  GLU A   1      -0.642  10.215  20.810  0.00  0.00    +0.000 C 
BRANCH  21  22
ATOM     22  CG  GLU A   1      -0.041   9.231  21.820  0.00  0.00    +0.000 C 
BRANCH  22  24
ATOM     23  OE1 GLU A   1       0.595   9.457  24.142  0.00  0.00    +0.000 OA
ATOM     24  CD  GLU A   1      -0.209   9.681  23.250  0.00  0.00    +0.000 C 
BRANCH  24  25
ATOM     25  OE2 GLU A   1      -1.338  10.392  23.454  0.00  0.00    +0.000 OA
ATOM     26  HE2 GLU A   1      -1.221  11.361  23.408  0.00  0.00    +0.000 HD
ENDBRANCH  24  25
ENDBRANCH  22  24
ENDBRANCH  21  22
ENDBRANCH  16  21
ENDBRANCH  12  16
ENDBRANCH  11  13
ENDBRANCH   1  11
BRANCH   4  27
ATOM     27  N   UNK A   0       5.871   4.832  16.395  0.00  0.00    +0.000 N 
BRANCH  27  28
ATOM     28  C   UNK A   0       7.215   4.596  16.969  0.00  0.00    +0.000 C 
BRANCH  28  29
ATOM     29  C   UNK A   0       7.451   5.177  18.363  0.00  0.00    +0.000 C 
ATOM     30 CL   UNK A   0       7.946   6.889  18.311  0.00  0.00    +0.000 Cl
ENDBRANCH  28  29
ENDBRANCH  27  28
BRANCH  27  31
ATOM     31  C   UNK A   0       5.611   4.069  15.142  0.00  0.00    +0.000 C 
BRANCH  31  32
ATOM     32  C   UNK A   0       6.598   4.374  14.009  0.00  0.00    +0.000 C 
ATOM     33 CL   UNK A   0       6.239   3.436  12.534  0.00  0.00    +0.000 Cl
ENDBRANCH  31  32
ENDBRANCH  27  31
ENDBRANCH   4  27
TORSDOF 14
ENDMDL
MODEL 8
REMARK VINA RESULT:      -6.5      4.203      8.288
REMARK  Name = 
REMARK  14 active torsions:
REMARK  status: ('A' for Active; 'I' for Inactive)
REMARK    1  A    between atoms: CD_2  and  OE2_3
REMARK    2  A    between atoms: CD_2  and  CG_4
REMARK    3  A    between atoms: CG_4  and  CB_5
REMARK    4  A    between atoms: CB_5  and  CA_6
REMARK    5  A    between atoms: CA_6  and  N_7
REMARK    6  A    between atoms: CA_6  and  C_28
REMARK    7  A    between atoms: C_8  and  O_10
REMARK    8  A    between atoms: O_10  and  C_11
REMARK    9  A    between atoms: C_14  and  N_15
REMARK   10  A    between atoms: N_15  and  C_16
REMARK   11  A    between atoms: N_15  and  C_19
REMARK   12  A    between atoms: C_16  and  C_17
REMARK   13  A    between atoms: C_19  and  C_20
REMARK   14  A    between atoms: C_28  and  OXT_30
REMARK                            x       y       z     vdW  Elec       q    Type
REMARK                         _______ _______ _______ _____ _____    ______ ____
ROOT
ATOM      1  C   UNK A   0       1.598   8.554  19.229  0.00  0.00    +0.000 A 
ATOM      2  C   UNK A   0       1.222   9.017  17.980  0.00  0.00    +0.000 A 
ATOM      3  C   UNK A   0       0.332  10.083  17.866  0.00  0.00    +0.000 A 
ATOM      4  C   UNK A   0      -0.299  10.706  18.963  0.00  0.00    +0.000 A 
ATOM      5  C   UNK A   0       0.030  10.160  20.246  0.00  0.00    +0.000 A 
ATOM      6  C   UNK A   0       0.999   9.095  20.378  0.00  0.00    +0.000 A 
ATOM      7  C   UNK A   0       1.311   8.457  21.717  0.00  0.00    +0.000 C 
ATOM      8  C   UNK A   0       0.918   9.310  22.914  0.00  0.00    +0.000 C 
ATOM      9  C   UNK A   0      -0.516   9.766  22.745  0.00  0.00    +0.000 C 
ATOM     10  C   UNK A   0      -0.641  10.656  21.512  0.00  0.00    +0.000 C 
ENDROOT
BRANCH   1  11
ATOM     11  O   UNK A   0       2.491   7.456  19.357  0.00  0.00    +0.000 OA
BRANCH  11  13
ATOM     12  N   GLU A   1       3.010   5.685  17.978  0.00  0.00    +0.000 N 
ATOM     13  C   UNK A   0       3.135   7.023  18.213  0.00  0.00    +0.000 C 
ATOM     14  O   UNK A   0       3.697   7.706  17.364  0.00  0.00    +0.000 OA
ATOM     15  H   GLU A   1       3.079   5.432  16.997  0.00  0.00    +0.000 HD
BRANCH  12  16
ATOM     16  CA  GLU A   1       3.309   4.660  18.976  0.00  0.00    +0.000 C 
BRANCH  16  17
ATOM     17  C   GLU A   1       4.497   3.833  18.450  0.00  0.00    +0.000 C 
ATOM     18  O   GLU A   1       4.841   3.783  17.275  0.00  0.00    +0.000 OA
BRANCH  17  19
ATOM     19  OXT GLU A   1       5.108   3.070  19.394  0.00  0.00    +0.000 OA
ATOM     20  HXT GLU A   1       5.664   3.588  20.016  0.00  0.00    +0.000 HD
ENDBRANCH  17  19
ENDBRANCH  16  17
BRANCH  16  21
ATOM     21  CB  GLU A   1       2.048   3.830  19.240  0.00  0.00    +0.000 C 
BRANCH  21  22
ATOM     22  CG  GLU A   1       1.481   3.903  20.662  0.00  0.00    +0.000 C 
BRANCH  22  24
ATOM     23  OE1 GLU A   1       3.209   2.445  21.520  0.00  0.00    +0.000 OA
ATOM     24  CD  GLU A   1       2.059   2.853  21.578  0.00  0.00    +0.000 C 
BRANCH  24  25
ATOM     25  OE2 GLU A   1       1.181   2.413  22.505  0.00  0.00    +0.000 OA
ATOM     26  HE2 GLU A   1       1.106   2.983  23.294  0.00  0.00    +0.000 HD
ENDBRANCH  24  25
ENDBRANCH  22  24
ENDBRANCH  21  22
ENDBRANCH  16  21
ENDBRANCH  12  16
ENDBRANCH  11  13
ENDBRANCH   1  11
BRANCH   4  27
ATOM     27  N   UNK A   0      -1.204  11.744  18.708  0.00  0.00    +0.000 N 
BRANCH  27  28
ATOM     28  C   UNK A   0      -1.117  13.113  19.262  0.00  0.00    +0.000 C 
BRANCH  28  29
ATOM     29  C   UNK A   0      -0.003  13.990  18.692  0.00  0.00    +0.000 C 
ATOM     30 CL   UNK A   0      -0.230  15.716  19.078  0.00  0.00    +0.000 Cl
ENDBRANCH  28  29
ENDBRANCH  27  28
BRANCH  27  31
ATOM     31  C   UNK A   0      -2.275  11.575  17.685  0.00  0.00    +0.000 C 
BRANCH  31  32
ATOM     32  C   UNK A   0      -3.689  11.496  18.271  0.00  0.00    +0.000 C 
ATOM     33 CL   UNK A   0      -4.926  11.250  17.008  0.00  0.00    +0.000 Cl
ENDBRANCH  31  32
ENDBRANCH  27  31
ENDBRANCH   4  27
TORSDOF 14
ENDMDL
MODEL 9
REMARK VINA RESULT:      -6.4      3.948      8.127
REMARK  Name = 
REMARK  14 active torsions:
REMARK  status: ('A' for Active; 'I' for Inactive)
REMARK    1  A    between atoms: CD_2  and  OE2_3
REMARK    2  A    between atoms: CD_2  and  CG_4
REMARK    3  A    between atoms: CG_4  and  CB_5
REMARK    4  A    between atoms: CB_5  and  CA_6
REMARK    5  A    between atoms: CA_6  and  N_7
REMARK    6  A    between atoms: CA_6  and  C_28
REMARK    7  A    between atoms: C_8  and  O_10
REMARK    8  A    between atoms: O_10  and  C_11
REMARK    9  A    between atoms: C_14  and  N_15
REMARK   10  A    between atoms: N_15  and  C_16
REMARK   11  A    between atoms: N_15  and  C_19
REMARK   12  A    between atoms: C_16  and  C_17
REMARK   13  A    between atoms: C_19  and  C_20
REMARK   14  A    between atoms: C_28  and  OXT_30
REMARK                            x       y       z     vdW  Elec       q    Type
REMARK                         _______ _______ _______ _____ _____    ______ ____
ROOT
ATOM      1  C   UNK A   0       1.752   8.319  19.481  0.00  0.00    +0.000 A 
ATOM      2  C   UNK A   0       1.438   8.604  18.164  0.00  0.00    +0.000 A 
ATOM      3  C   UNK A   0       0.528   9.615  17.863  0.00  0.00    +0.000 A 
ATOM      4  C   UNK A   0      -0.184  10.351  18.834  0.00  0.00    +0.000 A 
ATOM      5  C   UNK A   0       0.083   9.986  20.193  0.00  0.00    +0.000 A 
ATOM      6  C   UNK A   0       1.073   8.981  20.515  0.00  0.00    +0.000 A 
ATOM      7  C   UNK A   0       1.323   8.531  21.941  0.00  0.00    +0.000 C 
ATOM      8  C   UNK A   0       0.836   9.517  22.993  0.00  0.00    +0.000 C 
ATOM      9  C   UNK A   0      -0.598   9.897  22.687  0.00  0.00    +0.000 C 
ATOM     10  C   UNK A   0      -0.674  10.617  21.345  0.00  0.00    +0.000 C 
ENDROOT
BRANCH   1  11
ATOM     11  O   UNK A   0       2.666   7.278  19.799  0.00  0.00    +0.000 OA
BRANCH  11  13
ATOM     12  N   GLU A   1       2.887   5.032  19.337  0.00  0.00    +0.000 N 
ATOM     13  C   UNK A   0       2.153   6.004  19.950  0.00  0.00    +0.000 C 
ATOM     14  O   UNK A   0       1.199   5.656  20.639  0.00  0.00    +0.000 OA
ATOM     15  H   GLU A   1       2.800   4.117  19.768  0.00  0.00    +0.000 HD
BRANCH  12  16
ATOM     16  CA  GLU A   1       3.300   5.097  17.935  0.00  0.00    +0.000 C 
BRANCH  16  17
ATOM     17  C   GLU A   1       3.198   3.673  17.356  0.00  0.00    +0.000 C 
ATOM     18  O   GLU A   1       2.207   3.221  16.798  0.00  0.00    +0.000 OA
BRANCH  17  19
ATOM     19  OXT GLU A   1       4.289   2.897  17.590  0.00  0.00    +0.000 OA
ATOM     20  HXT GLU A   1       4.231   2.007  17.181  0.00  0.00    +0.000 HD
ENDBRANCH  17  19
ENDBRANCH  16  17
BRANCH  16  21
ATOM     21  CB  GLU A   1       4.706   5.698  17.851  0.00  0.00    +0.000 C 
BRANCH  21  22
ATOM     22  CG  GLU A   1       5.243   5.956  16.438  0.00  0.00    +0.000 C 
BRANCH  22  24
ATOM     23  OE1 GLU A   1       7.588   6.027  15.852  0.00  0.00    +0.000 OA
ATOM     24  CD  GLU A   1       6.621   5.380  16.221  0.00  0.00    +0.000 C 
BRANCH  24  25
ATOM     25  OE2 GLU A   1       6.697   4.061  16.503  0.00  0.00    +0.000 OA
ATOM     26  HE2 GLU A   1       6.935   3.498  15.741  0.00  0.00    +0.000 HD
ENDBRANCH  24  25
ENDBRANCH  22  24
ENDBRANCH  21  22
ENDBRANCH  16  21
ENDBRANCH  12  16
ENDBRANCH  11  13
ENDBRANCH   1  11
BRANCH   4  27
ATOM     27  N   UNK A   0      -1.100  11.315  18.396  0.00  0.00    +0.000 N 
BRANCH  27  28
ATOM     28  C   UNK A   0      -2.554  11.102  18.223  0.00  0.00    +0.000 C 
BRANCH  28  29
ATOM     29  C   UNK A   0      -3.069  11.174  16.786  0.00  0.00    +0.000 C 
ATOM     30 CL   UNK A   0      -2.591   9.753  15.820  0.00  0.00    +0.000 Cl
ENDBRANCH  28  29
ENDBRANCH  27  28
BRANCH  27  31
ATOM     31  C   UNK A   0      -0.676  12.733  18.222  0.00  0.00    +0.000 C 
BRANCH  31  32
ATOM     32  C   UNK A   0       0.721  13.039  18.774  0.00  0.00    +0.000 C 
ATOM     33 CL   UNK A   0       1.076  14.788  18.772  0.00  0.00    +0.000 Cl
ENDBRANCH  31  32
ENDBRANCH  27  31
ENDBRANCH   4  27
TORSDOF 14
ENDMDL
