MODEL 1
REMARK VINA RESULT:      -8.6      0.000      0.000
REMARK  Name = 
REMARK  14 active torsions:
REMARK  status: ('A' for Active; 'I' for Inactive)
REMARK    1  A    between atoms: C_1  and  C_2
REMARK    2  A    between atoms: C_2  and  C_3
REMARK    3  A    between atoms: C_3  and  C_4
REMARK    4  A    between atoms: C_3  and  C_5
REMARK    5  A    between atoms: C_5  and  S_6
REMARK    6  A    between atoms: C_5  and  C_7
REMARK    7  A    between atoms: N_9  and  C_10
REMARK    8  A    between atoms: C_10  and  C_11
REMARK    9  A    between atoms: N_13  and  CA_14
REMARK   10  A    between atoms: CA_14  and  C_15
REMARK   11  A    between atoms: CA_14  and  C_28
REMARK   12  A    between atoms: C_15  and  C_16
REMARK   13  A    between atoms: C_19  and  C_20
REMARK   14  A    between atoms: C_28  and  OXT_30
REMARK                            x       y       z     vdW  Elec       q    Type
REMARK                         _______ _______ _______ _____ _____    ______ ____
ROOT
ATOM      1  C   UNL     1       5.408   5.926  16.872  0.00  0.00    +0.000 C 
ATOM      2  O   UNL     1       4.717   6.773  16.306  0.00  0.00    +0.000 OA
ATOM      3  N   UNL     1       4.877   5.083  17.817  0.00  0.00    +0.000 N 
ATOM      4  H   UNL     1       5.520   4.787  18.557  0.00  0.00    +0.000 HD
ENDROOT
BRANCH   1   5
ATOM      5  C   UNL     1       6.962   5.851  16.677  0.00  0.00    +0.000 C 
ATOM      6  C   UNL     1       7.538   4.867  17.716  0.00  0.00    +0.000 C 
ATOM      7  C   UNL     1       7.738   5.701  18.977  0.00  0.00    +0.000 C 
ATOM      8  C   UNL     1       7.980   7.129  18.507  0.00  0.00    +0.000 C 
ATOM      9  C   UNL     1       7.741   7.137  17.001  0.00  0.00    +0.000 C 
BRANCH   5  12
ATOM     10  C   UNL     1       6.631   4.209  14.840  0.00  0.00    +0.000 C 
ATOM     11  O   UNL     1       5.860   3.537  15.523  0.00  0.00    +0.000 OA
ATOM     12  N   UNL     1       7.216   5.362  15.313  0.00  0.00    +0.000 N 
ATOM     13  H   UNL     1       7.589   6.019  14.633  0.00  0.00    +0.000 HD
BRANCH  10  14
ATOM     14  C   UNL     1       7.017   3.823  13.401  0.00  0.00    +0.000 C 
BRANCH  14  15
ATOM     15  C   UNL     1       5.845   3.072  12.701  0.00  0.00    +0.000 C 
ATOM     16  C   UNL     1       6.414   2.110  11.639  0.00  0.00    +0.000 C 
BRANCH  15  18
ATOM     17  C   UNL     1       3.860   3.304  11.090  0.00  0.00    +0.000 C 
ATOM     18  C   UNL     1       4.810   4.018  12.048  0.00  0.00    +0.000 C 
ENDBRANCH  15  18
ENDBRANCH  14  15
BRANCH  14  19
ATOM     19  S   UNL     1       7.474   5.393  12.560  0.00  0.00    +0.000 S 
ATOM     20  H   UNL     1       8.447   4.866  11.798  0.00  0.00    +0.000 HD
ENDBRANCH  14  19
ENDBRANCH  10  14
ENDBRANCH   5  12
ENDBRANCH   1   5
BRANCH   3  21
ATOM     21  CA  UNL     1       3.468   5.111  18.214  0.00  0.00    +0.000 C 
BRANCH  21  22
ATOM     22  C   UNL     1       2.840   3.743  17.890  0.00  0.00    +0.000 C 
ATOM     23  O   UNL     1       1.903   3.586  17.119  0.00  0.00    +0.000 OA
BRANCH  22  24
ATOM     24  OXT UNL     1       3.451   2.683  18.475  0.00  0.00    +0.000 OA
ATOM     25  HXT UNL     1       3.153   2.468  19.377  0.00  0.00    +0.000 HD
ENDBRANCH  22  24
ENDBRANCH  21  22
BRANCH  21  26
ATOM     26  C   UNL     1       2.667   6.280  17.614  0.00  0.00    +0.000 C 
BRANCH  26  27
ATOM     27  C   UNL     1       2.191   7.348  18.568  0.00  0.00    +0.000 A 
ATOM     28  C   UNL     1       1.739   8.583  18.096  0.00  0.00    +0.000 A 
ATOM     29  C   UNL     1       1.156   9.504  18.972  0.00  0.00    +0.000 A 
ATOM     30  C   UNL     1       0.998   9.227  20.341  0.00  0.00    +0.000 A 
ATOM     31  C   UNL     1       1.517   8.011  20.811  0.00  0.00    +0.000 A 
ATOM     32  C   UNL     1       2.108   7.088  19.939  0.00  0.00    +0.000 A 
BRANCH  30  33
ATOM     33  C   UNL     1       0.298  10.186  21.231  0.00  0.00    +0.000 A 
ATOM     34  C   UNL     1      -0.393   9.741  22.375  0.00  0.00    +0.000 A 
ATOM     35  C   UNL     1      -1.115  10.621  23.185  0.00  0.00    +0.000 A 
ATOM     36  C   UNL     1      -1.141  11.978  22.884  0.00  0.00    +0.000 A 
ATOM     37  C   UNL     1      -0.432  12.452  21.785  0.00  0.00    +0.000 A 
ATOM     38  C   UNL     1       0.279  11.565  20.967  0.00  0.00    +0.000 A 
ENDBRANCH  30  33
ENDBRANCH  26  27
ENDBRANCH  21  26
ENDBRANCH   3  21
TORSDOF 12
ENDMDL
MODEL 2
REMARK VINA RESULT:      -8.3      2.420      4.913
REMARK  Name = 
REMARK  14 active torsions:
REMARK  status: ('A' for Active; 'I' for Inactive)
REMARK    1  A    between atoms: C_1  and  C_2
REMARK    2  A    between atoms: C_2  and  C_3
REMARK    3  A    between atoms: C_3  and  C_4
REMARK    4  A    between atoms: C_3  and  C_5
REMARK    5  A    between atoms: C_5  and  S_6
REMARK    6  A    between atoms: C_5  and  C_7
REMARK    7  A    between atoms: N_9  and  C_10
REMARK    8  A    between atoms: C_10  and  C_11
REMARK    9  A    between atoms: N_13  and  CA_14
REMARK   10  A    between atoms: CA_14  and  C_15
REMARK   11  A    between atoms: CA_14  and  C_28
REMARK   12  A    between atoms: C_15  and  C_16
REMARK   13  A    between atoms: C_19  and  C_20
REMARK   14  A    between atoms: C_28  and  OXT_30
REMARK                            x       y       z     vdW  Elec       q    Type
REMARK                         _______ _______ _______ _____ _____    ______ ____
ROOT
ATOM      1  C   UNL     1       2.095   5.688  19.986  0.00  0.00    +0.000 C 
ATOM      2  O   UNL     1       1.374   5.764  20.982  0.00  0.00    +0.000 OA
ATOM      3  N   UNL     1       2.219   6.739  19.110  0.00  0.00    +0.000 N 
ATOM      4  H   UNL     1       2.389   6.483  18.134  0.00  0.00    +0.000 HD
ENDROOT
BRANCH   1   5
ATOM      5  C   UNL     1       2.793   4.350  19.560  0.00  0.00    +0.000 C 
ATOM      6  C   UNL     1       1.950   3.691  18.450  0.00  0.00    +0.000 C 
ATOM      7  C   UNL     1       0.880   2.895  19.190  0.00  0.00    +0.000 C 
ATOM      8  C   UNL     1       1.489   2.515  20.533  0.00  0.00    +0.000 C 
ATOM      9  C   UNL     1       2.826   3.243  20.626  0.00  0.00    +0.000 C 
BRANCH   5  12
ATOM     10  C   UNL     1       4.758   3.920  18.098  0.00  0.00    +0.000 C 
ATOM     11  O   UNL     1       4.231   2.920  17.613  0.00  0.00    +0.000 OA
ATOM     12  N   UNL     1       4.131   4.690  19.053  0.00  0.00    +0.000 N 
ATOM     13  H   UNL     1       4.468   5.639  19.193  0.00  0.00    +0.000 HD
BRANCH  10  14
ATOM     14  C   UNL     1       6.163   4.398  17.692  0.00  0.00    +0.000 C 
BRANCH  14  15
ATOM     15  C   UNL     1       6.137   5.028  16.268  0.00  0.00    +0.000 C 
ATOM     16  C   UNL     1       5.028   6.098  16.200  0.00  0.00    +0.000 C 
BRANCH  15  18
ATOM     17  C   UNL     1       6.617   4.378  13.830  0.00  0.00    +0.000 C 
ATOM     18  C   UNL     1       5.931   3.991  15.138  0.00  0.00    +0.000 C 
ENDBRANCH  15  18
ENDBRANCH  14  15
BRANCH  14  19
ATOM     19  S   UNL     1       6.694   5.580  18.996  0.00  0.00    +0.000 S 
ATOM     20  H   UNL     1       7.884   5.004  19.232  0.00  0.00    +0.000 HD
ENDBRANCH  14  19
ENDBRANCH  10  14
ENDBRANCH   5  12
ENDBRANCH   1   5
BRANCH   3  21
ATOM     21  CA  UNL     1       1.528   8.018  19.291  0.00  0.00    +0.000 C 
BRANCH  21  22
ATOM     22  C   UNL     1       1.775   8.888  18.046  0.00  0.00    +0.000 C 
ATOM     23  O   UNL     1       2.814   8.880  17.400  0.00  0.00    +0.000 OA
BRANCH  22  24
ATOM     24  OXT UNL     1       0.714   9.638  17.655  0.00  0.00    +0.000 OA
ATOM     25  HXT UNL     1      -0.095   9.142  17.434  0.00  0.00    +0.000 HD
ENDBRANCH  22  24
ENDBRANCH  21  22
BRANCH  21  26
ATOM     26  C   UNL     1       1.885   8.748  20.597  0.00  0.00    +0.000 C 
BRANCH  26  27
ATOM     27  C   UNL     1       0.833   9.654  21.189  0.00  0.00    +0.000 A 
ATOM     28  C   UNL     1       0.064   9.246  22.280  0.00  0.00    +0.000 A 
ATOM     29  C   UNL     1      -0.795  10.147  22.916  0.00  0.00    +0.000 A 
ATOM     30  C   UNL     1      -0.914  11.483  22.493  0.00  0.00    +0.000 A 
ATOM     31  C   UNL     1      -0.185  11.858  21.354  0.00  0.00    +0.000 A 
ATOM     32  C   UNL     1       0.672  10.958  20.709  0.00  0.00    +0.000 A 
BRANCH  30  33
ATOM     33  C   UNL     1      -1.767  12.440  23.239  0.00  0.00    +0.000 A 
ATOM     34  C   UNL     1      -3.066  12.085  23.651  0.00  0.00    +0.000 A 
ATOM     35  C   UNL     1      -3.908  12.996  24.293  0.00  0.00    +0.000 A 
ATOM     36  C   UNL     1      -3.459  14.284  24.564  0.00  0.00    +0.000 A 
ATOM     37  C   UNL     1      -2.164  14.650  24.206  0.00  0.00    +0.000 A 
ATOM     38  C   UNL     1      -1.328  13.738  23.551  0.00  0.00    +0.000 A 
ENDBRANCH  30  33
ENDBRANCH  26  27
ENDBRANCH  21  26
ENDBRANCH   3  21
TORSDOF 12
ENDMDL
MODEL 3
REMARK VINA RESULT:      -8.1      2.866      5.421
REMARK  Name = 
REMARK  14 active torsions:
REMARK  status: ('A' for Active; 'I' for Inactive)
REMARK    1  A    between atoms: C_1  and  C_2
REMARK    2  A    between atoms: C_2  and  C_3
REMARK    3  A    between atoms: C_3  and  C_4
REMARK    4  A    between atoms: C_3  and  C_5
REMARK    5  A    between atoms: C_5  and  S_6
REMARK    6  A    between atoms: C_5  and  C_7
REMARK    7  A    between atoms: N_9  and  C_10
REMARK    8  A    between atoms: C_10  and  C_11
REMARK    9  A    between atoms: N_13  and  CA_14
REMARK   10  A    between atoms: CA_14  and  C_15
REMARK   11  A    between atoms: CA_14  and  C_28
REMARK   12  A    between atoms: C_15  and  C_16
REMARK   13  A    between atoms: C_19  and  C_20
REMARK   14  A    between atoms: C_28  and  OXT_30
REMARK                            x       y       z     vdW  Elec       q    Type
REMARK                         _______ _______ _______ _____ _____    ______ ____
ROOT
ATOM      1  C   UNL     1       2.122   5.986  19.956  0.00  0.00    +0.000 C 
ATOM      2  O   UNL     1       1.311   5.871  20.875  0.00  0.00    +0.000 OA
ATOM      3  N   UNL     1       2.219   7.146  19.227  0.00  0.00    +0.000 N 
ATOM      4  H   UNL     1       2.500   7.033  18.250  0.00  0.00    +0.000 HD
ENDROOT
BRANCH   1   5
ATOM      5  C   UNL     1       2.984   4.779  19.447  0.00  0.00    +0.000 C 
ATOM      6  C   UNL     1       2.294   4.174  18.208  0.00  0.00    +0.000 C 
ATOM      7  C   UNL     1       1.264   3.199  18.769  0.00  0.00    +0.000 C 
ATOM      8  C   UNL     1       1.814   2.728  20.108  0.00  0.00    +0.000 C 
ATOM      9  C   UNL     1       3.058   3.565  20.387  0.00  0.00    +0.000 C 
BRANCH   5  12
ATOM     10  C   UNL     1       5.131   4.642  18.200  0.00  0.00    +0.000 C 
ATOM     11  O   UNL     1       4.795   3.593  17.653  0.00  0.00    +0.000 OA
ATOM     12  N   UNL     1       4.312   5.302  19.089  0.00  0.00    +0.000 N 
ATOM     13  H   UNL     1       4.503   6.283  19.272  0.00  0.00    +0.000 HD
BRANCH  10  14
ATOM     14  C   UNL     1       6.496   5.308  17.951  0.00  0.00    +0.000 C 
BRANCH  14  15
ATOM     15  C   UNL     1       6.310   6.716  17.312  0.00  0.00    +0.000 C 
ATOM     16  C   UNL     1       5.426   6.596  16.054  0.00  0.00    +0.000 C 
BRANCH  15  18
ATOM     17  C   UNL     1       7.949   8.628  17.815  0.00  0.00    +0.000 C 
ATOM     18  C   UNL     1       7.645   7.409  16.948  0.00  0.00    +0.000 C 
ENDBRANCH  15  18
ENDBRANCH  14  15
BRANCH  14  19
ATOM     19  S   UNL     1       7.340   5.360  19.583  0.00  0.00    +0.000 S 
ATOM     20  H   UNL     1       8.548   4.985  19.129  0.00  0.00    +0.000 HD
ENDBRANCH  14  19
ENDBRANCH  10  14
ENDBRANCH   5  12
ENDBRANCH   1   5
BRANCH   3  21
ATOM     21  CA  UNL     1       1.392   8.327  19.487  0.00  0.00    +0.000 C 
BRANCH  21  22
ATOM     22  C   UNL     1       1.450   9.247  18.255  0.00  0.00    +0.000 C 
ATOM     23  O   UNL     1       2.476   9.505  17.640  0.00  0.00    +0.000 OA
BRANCH  22  24
ATOM     24  OXT UNL     1       0.248   9.715  17.836  0.00  0.00    +0.000 OA
ATOM     25  HXT UNL     1      -0.411   9.037  17.600  0.00  0.00    +0.000 HD
ENDBRANCH  22  24
ENDBRANCH  21  22
BRANCH  21  26
ATOM     26  C   UNL     1       1.742   9.067  20.789  0.00  0.00    +0.000 C 
BRANCH  26  27
ATOM     27  C   UNL     1       0.696   9.996  21.356  0.00  0.00    +0.000 A 
ATOM     28  C   UNL     1      -0.117   9.598  22.420  0.00  0.00    +0.000 A 
ATOM     29  C   UNL     1      -0.972  10.516  23.037  0.00  0.00    +0.000 A 
ATOM     30  C   UNL     1      -1.044  11.857  22.623  0.00  0.00    +0.000 A 
ATOM     31  C   UNL     1      -0.271  12.223  21.510  0.00  0.00    +0.000 A 
ATOM     32  C   UNL     1       0.583  11.307  20.884  0.00  0.00    +0.000 A 
BRANCH  30  33
ATOM     33  C   UNL     1      -1.895  12.830  23.351  0.00  0.00    +0.000 A 
ATOM     34  C   UNL     1      -1.376  14.067  23.781  0.00  0.00    +0.000 A 
ATOM     35  C   UNL     1      -2.143  14.965  24.527  0.00  0.00    +0.000 A 
ATOM     36  C   UNL     1      -3.462  14.657  24.841  0.00  0.00    +0.000 A 
ATOM     37  C   UNL     1      -4.015  13.461  24.393  0.00  0.00    +0.000 A 
ATOM     38  C   UNL     1      -3.238  12.557  23.656  0.00  0.00    +0.000 A 
ENDBRANCH  30  33
ENDBRANCH  26  27
ENDBRANCH  21  26
ENDBRANCH   3  21
TORSDOF 12
ENDMDL
MODEL 4
REMARK VINA RESULT:      -8.1      2.538      5.264
REMARK  Name = 
REMARK  14 active torsions:
REMARK  status: ('A' for Active; 'I' for Inactive)
REMARK    1  A    between atoms: C_1  and  C_2
REMARK    2  A    between atoms: C_2  and  C_3
REMARK    3  A    between atoms: C_3  and  C_4
REMARK    4  A    between atoms: C_3  and  C_5
REMARK    5  A    between atoms: C_5  and  S_6
REMARK    6  A    between atoms: C_5  and  C_7
REMARK    7  A    between atoms: N_9  and  C_10
REMARK    8  A    between atoms: C_10  and  C_11
REMARK    9  A    between atoms: N_13  and  CA_14
REMARK   10  A    between atoms: CA_14  and  C_15
REMARK   11  A    between atoms: CA_14  and  C_28
REMARK   12  A    between atoms: C_15  and  C_16
REMARK   13  A    between atoms: C_19  and  C_20
REMARK   14  A    between atoms: C_28  and  OXT_30
REMARK                            x       y       z     vdW  Elec       q    Type
REMARK                         _______ _______ _______ _____ _____    ______ ____
ROOT
ATOM      1  C   UNL     1       2.206   6.123  19.481  0.00  0.00    +0.000 C 
ATOM      2  O   UNL     1       1.490   5.905  20.458  0.00  0.00    +0.000 OA
ATOM      3  N   UNL     1       2.171   7.328  18.822  0.00  0.00    +0.000 N 
ATOM      4  H   UNL     1       2.368   7.289  17.819  0.00  0.00    +0.000 HD
ENDROOT
BRANCH   1   5
ATOM      5  C   UNL     1       3.085   5.005  18.823  0.00  0.00    +0.000 C 
ATOM      6  C   UNL     1       2.240   4.283  17.755  0.00  0.00    +0.000 C 
ATOM      7  C   UNL     1       1.463   3.219  18.522  0.00  0.00    +0.000 C 
ATOM      8  C   UNL     1       2.318   2.859  19.729  0.00  0.00    +0.000 C 
ATOM      9  C   UNL     1       3.486   3.840  19.743  0.00  0.00    +0.000 C 
BRANCH   5  12
ATOM     10  C   UNL     1       4.839   5.152  17.067  0.00  0.00    +0.000 C 
ATOM     11  O   UNL     1       4.427   4.135  16.510  0.00  0.00    +0.000 OA
ATOM     12  N   UNL     1       4.246   5.660  18.200  0.00  0.00    +0.000 N 
ATOM     13  H   UNL     1       4.427   6.633  18.435  0.00  0.00    +0.000 HD
BRANCH  10  14
ATOM     14  C   UNL     1       6.056   5.943  16.554  0.00  0.00    +0.000 C 
BRANCH  14  15
ATOM     15  C   UNL     1       6.863   6.539  17.746  0.00  0.00    +0.000 C 
ATOM     16  C   UNL     1       7.650   7.775  17.265  0.00  0.00    +0.000 C 
BRANCH  15  18
ATOM     17  C   UNL     1       7.792   5.554  19.928  0.00  0.00    +0.000 C 
ATOM     18  C   UNL     1       7.832   5.526  18.402  0.00  0.00    +0.000 C 
ENDBRANCH  15  18
ENDBRANCH  14  15
BRANCH  14  19
ATOM     19  S   UNL     1       7.034   4.766  15.535  0.00  0.00    +0.000 S 
ATOM     20  H   UNL     1       8.188   5.450  15.598  0.00  0.00    +0.000 HD
ENDBRANCH  14  19
ENDBRANCH  10  14
ENDBRANCH   5  12
ENDBRANCH   1   5
BRANCH   3  21
ATOM     21  CA  UNL     1       1.305   8.438  19.227  0.00  0.00    +0.000 C 
BRANCH  21  22
ATOM     22  C   UNL     1       1.291   9.487  18.101  0.00  0.00    +0.000 C 
ATOM     23  O   UNL     1       2.300   9.934  17.571  0.00  0.00    +0.000 OA
BRANCH  22  24
ATOM     24  OXT UNL     1       0.057   9.845  17.671  0.00  0.00    +0.000 OA
ATOM     25  HXT UNL     1      -0.060  10.788  17.458  0.00  0.00    +0.000 HD
ENDBRANCH  22  24
ENDBRANCH  21  22
BRANCH  21  26
ATOM     26  C   UNL     1       1.662   9.048  20.594  0.00  0.00    +0.000 C 
BRANCH  26  27
ATOM     27  C   UNL     1       0.646   9.972  21.222  0.00  0.00    +0.000 A 
ATOM     28  C   UNL     1      -0.096   9.574  22.335  0.00  0.00    +0.000 A 
ATOM     29  C   UNL     1      -0.917  10.488  23.001  0.00  0.00    +0.000 A 
ATOM     30  C   UNL     1      -1.024  11.828  22.587  0.00  0.00    +0.000 A 
ATOM     31  C   UNL     1      -0.325  12.194  21.427  0.00  0.00    +0.000 A 
ATOM     32  C   UNL     1       0.495  11.280  20.752  0.00  0.00    +0.000 A 
BRANCH  30  33
ATOM     33  C   UNL     1      -1.835  12.797  23.363  0.00  0.00    +0.000 A 
ATOM     34  C   UNL     1      -3.186  12.537  23.662  0.00  0.00    +0.000 A 
ATOM     35  C   UNL     1      -3.983  13.469  24.332  0.00  0.00    +0.000 A 
ATOM     36  C   UNL     1      -3.437  14.679  24.744  0.00  0.00    +0.000 A 
ATOM     37  C   UNL     1      -2.093  14.946  24.500  0.00  0.00    +0.000 A 
ATOM     38  C   UNL     1      -1.301  14.015  23.817  0.00  0.00    +0.000 A 
ENDBRANCH  30  33
ENDBRANCH  26  27
ENDBRANCH  21  26
ENDBRANCH   3  21
TORSDOF 12
ENDMDL
MODEL 5
REMARK VINA RESULT:      -8.1      3.290      7.833
REMARK  Name = 
REMARK  14 active torsions:
REMARK  status: ('A' for Active; 'I' for Inactive)
REMARK    1  A    between atoms: C_1  and  C_2
REMARK    2  A    between atoms: C_2  and  C_3
REMARK    3  A    between atoms: C_3  and  C_4
REMARK    4  A    between atoms: C_3  and  C_5
REMARK    5  A    between atoms: C_5  and  S_6
REMARK    6  A    between atoms: C_5  and  C_7
REMARK    7  A    between atoms: N_9  and  C_10
REMARK    8  A    between atoms: C_10  and  C_11
REMARK    9  A    between atoms: N_13  and  CA_14
REMARK   10  A    between atoms: CA_14  and  C_15
REMARK   11  A    between atoms: CA_14  and  C_28
REMARK   12  A    between atoms: C_15  and  C_16
REMARK   13  A    between atoms: C_19  and  C_20
REMARK   14  A    between atoms: C_28  and  OXT_30
REMARK                            x       y       z     vdW  Elec       q    Type
REMARK                         _______ _______ _______ _____ _____    ______ ____
ROOT
ATOM      1  C   UNL     1       3.974   4.516  17.828  0.00  0.00    +0.000 C 
ATOM      2  O   UNL     1       4.687   3.545  18.079  0.00  0.00    +0.000 OA
ATOM      3  N   UNL     1       4.369   5.483  16.936  0.00  0.00    +0.000 N 
ATOM      4  H   UNL     1       4.027   6.428  17.128  0.00  0.00    +0.000 HD
ENDROOT
BRANCH   1   5
ATOM      5  C   UNL     1       2.648   4.805  18.614  0.00  0.00    +0.000 C 
ATOM      6  C   UNL     1       2.707   4.061  19.963  0.00  0.00    +0.000 C 
ATOM      7  C   UNL     1       2.215   2.651  19.655  0.00  0.00    +0.000 C 
ATOM      8  C   UNL     1       1.269   2.783  18.469  0.00  0.00    +0.000 C 
ATOM      9  C   UNL     1       1.364   4.229  17.995  0.00  0.00    +0.000 C 
BRANCH   5  12
ATOM     10  C   UNL     1       1.924   6.788  19.928  0.00  0.00    +0.000 C 
ATOM     11  O   UNL     1       1.390   6.079  20.782  0.00  0.00    +0.000 OA
ATOM     12  N   UNL     1       2.570   6.258  18.834  0.00  0.00    +0.000 N 
ATOM     13  H   UNL     1       3.232   6.851  18.340  0.00  0.00    +0.000 HD
BRANCH  10  14
ATOM     14  C   UNL     1       1.912   8.325  20.000  0.00  0.00    +0.000 C 
BRANCH  14  15
ATOM     15  C   UNL     1       1.160   8.925  18.775  0.00  0.00    +0.000 C 
ATOM     16  C   UNL     1       2.142   9.760  17.929  0.00  0.00    +0.000 C 
BRANCH  15  18
ATOM     17  C   UNL     1       0.080  11.255  18.750  0.00  0.00    +0.000 C 
ATOM     18  C   UNL     1      -0.061   9.792  19.166  0.00  0.00    +0.000 C 
ENDBRANCH  15  18
ENDBRANCH  14  15
BRANCH  14  19
ATOM     19  S   UNL     1       1.131   8.751  21.609  0.00  0.00    +0.000 S 
ATOM     20  H   UNL     1      -0.047   8.156  21.355  0.00  0.00    +0.000 HD
ENDBRANCH  14  19
ENDBRANCH  10  14
ENDBRANCH   5  12
ENDBRANCH   1   5
BRANCH   3  21
ATOM     21  CA  UNL     1       5.641   5.434  16.213  0.00  0.00    +0.000 C 
BRANCH  21  22
ATOM     22  C   UNL     1       5.603   4.247  15.232  0.00  0.00    +0.000 C 
ATOM     23  O   UNL     1       5.122   4.304  14.109  0.00  0.00    +0.000 OA
BRANCH  22  24
ATOM     24  OXT UNL     1       6.215   3.121  15.676  0.00  0.00    +0.000 OA
ATOM     25  HXT UNL     1       5.922   2.290  15.261  0.00  0.00    +0.000 HD
ENDBRANCH  22  24
ENDBRANCH  21  22
BRANCH  21  26
ATOM     26  C   UNL     1       6.882   5.403  17.122  0.00  0.00    +0.000 C 
BRANCH  26  27
ATOM     27  C   UNL     1       7.363   6.723  17.675  0.00  0.00    +0.000 A 
ATOM     28  C   UNL     1       8.196   6.772  18.794  0.00  0.00    +0.000 A 
ATOM     29  C   UNL     1       8.760   7.984  19.203  0.00  0.00    +0.000 A 
ATOM     30  C   UNL     1       8.519   9.185  18.511  0.00  0.00    +0.000 A 
ATOM     31  C   UNL     1       7.626   9.130  17.430  0.00  0.00    +0.000 A 
ATOM     32  C   UNL     1       7.054   7.919  17.020  0.00  0.00    +0.000 A 
BRANCH  30  33
ATOM     33  C   UNL     1       9.199  10.440  18.915  0.00  0.00    +0.000 A 
ATOM     34  C   UNL     1       9.803  10.563  20.181  0.00  0.00    +0.000 A 
ATOM     35  C   UNL     1      10.387  11.759  20.604  0.00  0.00    +0.000 A 
ATOM     36  C   UNL     1      10.404  12.860  19.755  0.00  0.00    +0.000 A 
ATOM     37  C   UNL     1       9.853  12.756  18.481  0.00  0.00    +0.000 A 
ATOM     38  C   UNL     1       9.256  11.558  18.067  0.00  0.00    +0.000 A 
ENDBRANCH  30  33
ENDBRANCH  26  27
ENDBRANCH  21  26
ENDBRANCH   3  21
TORSDOF 12
ENDMDL
MODEL 6
REMARK VINA RESULT:      -8.0      2.273      4.955
REMARK  Name = 
REMARK  14 active torsions:
REMARK  status: ('A' for Active; 'I' for Inactive)
REMARK    1  A    between atoms: C_1  and  C_2
REMARK    2  A    between atoms: C_2  and  C_3
REMARK    3  A    between atoms: C_3  and  C_4
REMARK    4  A    between atoms: C_3  and  C_5
REMARK    5  A    between atoms: C_5  and  S_6
REMARK    6  A    between atoms: C_5  and  C_7
REMARK    7  A    between atoms: N_9  and  C_10
REMARK    8  A    between atoms: C_10  and  C_11
REMARK    9  A    between atoms: N_13  and  CA_14
REMARK   10  A    between atoms: CA_14  and  C_15
REMARK   11  A    between atoms: CA_14  and  C_28
REMARK   12  A    between atoms: C_15  and  C_16
REMARK   13  A    between atoms: C_19  and  C_20
REMARK   14  A    between atoms: C_28  and  OXT_30
REMARK                            x       y       z     vdW  Elec       q    Type
REMARK                         _______ _______ _______ _____ _____    ______ ____
ROOT
ATOM      1  C   UNL     1       2.417   5.987  19.332  0.00  0.00    +0.000 C 
ATOM      2  O   UNL     1       1.936   5.891  20.461  0.00  0.00    +0.000 OA
ATOM      3  N   UNL     1       2.179   7.088  18.545  0.00  0.00    +0.000 N 
ATOM      4  H   UNL     1       2.162   6.914  17.536  0.00  0.00    +0.000 HD
ENDROOT
BRANCH   1   5
ATOM      5  C   UNL     1       3.195   4.809  18.652  0.00  0.00    +0.000 C 
ATOM      6  C   UNL     1       2.177   3.902  17.932  0.00  0.00    +0.000 C 
ATOM      7  C   UNL     1       1.673   2.946  19.008  0.00  0.00    +0.000 C 
ATOM      8  C   UNL     1       2.807   2.807  20.016  0.00  0.00    +0.000 C 
ATOM      9  C   UNL     1       3.876   3.816  19.608  0.00  0.00    +0.000 C 
BRANCH   5  12
ATOM     10  C   UNL     1       4.861   4.611  16.817  0.00  0.00    +0.000 C 
ATOM     11  O   UNL     1       4.761   3.385  16.801  0.00  0.00    +0.000 OA
ATOM     12  N   UNL     1       4.132   5.396  17.683  0.00  0.00    +0.000 N 
ATOM     13  H   UNL     1       4.028   6.382  17.456  0.00  0.00    +0.000 HD
BRANCH  10  14
ATOM     14  C   UNL     1       5.813   5.379  15.882  0.00  0.00    +0.000 C 
BRANCH  14  15
ATOM     15  C   UNL     1       7.123   5.766  16.631  0.00  0.00    +0.000 C 
ATOM     16  C   UNL     1       7.531   4.619  17.578  0.00  0.00    +0.000 C 
BRANCH  15  18
ATOM     17  C   UNL     1       8.115   7.262  18.467  0.00  0.00    +0.000 C 
ATOM     18  C   UNL     1       7.009   7.087  17.429  0.00  0.00    +0.000 C 
ENDBRANCH  15  18
ENDBRANCH  14  15
BRANCH  14  19
ATOM     19  S   UNL     1       6.103   4.277  14.439  0.00  0.00    +0.000 S 
ATOM     20  H   UNL     1       6.099   5.252  13.515  0.00  0.00    +0.000 HD
ENDBRANCH  14  19
ENDBRANCH  10  14
ENDBRANCH   5  12
ENDBRANCH   1   5
BRANCH   3  21
ATOM     21  CA  UNL     1       1.362   8.222  18.979  0.00  0.00    +0.000 C 
BRANCH  21  22
ATOM     22  C   UNL     1       1.485   9.345  17.933  0.00  0.00    +0.000 C 
ATOM     23  O   UNL     1       2.549   9.826  17.568  0.00  0.00    +0.000 OA
BRANCH  22  24
ATOM     24  OXT UNL     1       0.312   9.733  17.373  0.00  0.00    +0.000 OA
ATOM     25  HXT UNL     1      -0.245   9.016  17.019  0.00  0.00    +0.000 HD
ENDBRANCH  22  24
ENDBRANCH  21  22
BRANCH  21  26
ATOM     26  C   UNL     1       1.670   8.712  20.404  0.00  0.00    +0.000 C 
BRANCH  26  27
ATOM     27  C   UNL     1       0.649   9.611  21.060  0.00  0.00    +0.000 A 
ATOM     28  C   UNL     1       0.090   9.280  22.296  0.00  0.00    +0.000 A 
ATOM     29  C   UNL     1      -0.733  10.190  22.965  0.00  0.00    +0.000 A 
ATOM     30  C   UNL     1      -1.024  11.459  22.432  0.00  0.00    +0.000 A 
ATOM     31  C   UNL     1      -0.509  11.748  21.159  0.00  0.00    +0.000 A 
ATOM     32  C   UNL     1       0.311  10.838  20.482  0.00  0.00    +0.000 A 
BRANCH  30  33
ATOM     33  C   UNL     1      -1.829  12.437  23.202  0.00  0.00    +0.000 A 
ATOM     34  C   UNL     1      -1.313  13.707  23.525  0.00  0.00    +0.000 A 
ATOM     35  C   UNL     1      -2.030  14.615  24.308  0.00  0.00    +0.000 A 
ATOM     36  C   UNL     1      -3.299  14.283  24.767  0.00  0.00    +0.000 A 
ATOM     37  C   UNL     1      -3.853  13.051  24.428  0.00  0.00    +0.000 A 
ATOM     38  C   UNL     1      -3.125  12.139  23.655  0.00  0.00    +0.000 A 
ENDBRANCH  30  33
ENDBRANCH  26  27
ENDBRANCH  21  26
ENDBRANCH   3  21
TORSDOF 12
ENDMDL
MODEL 7
REMARK VINA RESULT:      -8.0      3.946      8.196
REMARK  Name = 
REMARK  14 active torsions:
REMARK  status: ('A' for Active; 'I' for Inactive)
REMARK    1  A    between atoms: C_1  and  C_2
REMARK    2  A    between atoms: C_2  and  C_3
REMARK    3  A    between atoms: C_3  and  C_4
REMARK    4  A    between atoms: C_3  and  C_5
REMARK    5  A    between atoms: C_5  and  S_6
REMARK    6  A    between atoms: C_5  and  C_7
REMARK    7  A    between atoms: N_9  and  C_10
REMARK    8  A    between atoms: C_10  and  C_11
REMARK    9  A    between atoms: N_13  and  CA_14
REMARK   10  A    between atoms: CA_14  and  C_15
REMARK   11  A    between atoms: CA_14  and  C_28
REMARK   12  A    between atoms: C_15  and  C_16
REMARK   13  A    between atoms: C_19  and  C_20
REMARK   14  A    between atoms: C_28  and  OXT_30
REMARK                            x       y       z     vdW  Elec       q    Type
REMARK                         _______ _______ _______ _____ _____    ______ ____
ROOT
ATOM      1  C   UNL     1       4.454   6.291  17.863  0.00  0.00    +0.000 C 
ATOM      2  O   UNL     1       4.409   6.792  16.739  0.00  0.00    +0.000 OA
ATOM      3  N   UNL     1       5.644   5.901  18.426  0.00  0.00    +0.000 N 
ATOM      4  H   UNL     1       5.591   5.102  19.063  0.00  0.00    +0.000 HD
ENDROOT
BRANCH   1   5
ATOM      5  C   UNL     1       3.158   5.919  18.663  0.00  0.00    +0.000 C 
ATOM      6  C   UNL     1       3.502   4.785  19.650  0.00  0.00    +0.000 C 
ATOM      7  C   UNL     1       3.367   3.502  18.837  0.00  0.00    +0.000 C 
ATOM      8  C   UNL     1       2.336   3.795  17.754  0.00  0.00    +0.000 C 
ATOM      9  C   UNL     1       2.023   5.285  17.842  0.00  0.00    +0.000 C 
BRANCH   5  12
ATOM     10  C   UNL     1       2.032   8.133  18.771  0.00  0.00    +0.000 C 
ATOM     11  O   UNL     1       1.727   8.083  17.580  0.00  0.00    +0.000 OA
ATOM     12  N   UNL     1       2.727   7.120  19.394  0.00  0.00    +0.000 N 
ATOM     13  H   UNL     1       2.688   7.073  20.409  0.00  0.00    +0.000 HD
BRANCH  10  14
ATOM     14  C   UNL     1       1.675   9.330  19.670  0.00  0.00    +0.000 C 
BRANCH  14  15
ATOM     15  C   UNL     1       0.865  10.394  18.871  0.00  0.00    +0.000 C 
ATOM     16  C   UNL     1       1.326  11.806  19.284  0.00  0.00    +0.000 C 
BRANCH  15  18
ATOM     17  C   UNL     1      -1.417  10.064  17.741  0.00  0.00    +0.000 C 
ATOM     18  C   UNL     1      -0.666  10.269  19.054  0.00  0.00    +0.000 C 
ENDBRANCH  15  18
ENDBRANCH  14  15
BRANCH  14  19
ATOM     19  S   UNL     1       0.744   8.634  21.095  0.00  0.00    +0.000 S 
ATOM     20  H   UNL     1       0.758   7.361  20.663  0.00  0.00    +0.000 HD
ENDBRANCH  14  19
ENDBRANCH  10  14
ENDBRANCH   5  12
ENDBRANCH   1   5
BRANCH   3  21
ATOM     21  CA  UNL     1       6.937   6.057  17.756  0.00  0.00    +0.000 C 
BRANCH  21  22
ATOM     22  C   UNL     1       7.338   4.703  17.143  0.00  0.00    +0.000 C 
ATOM     23  O   UNL     1       6.865   4.253  16.108  0.00  0.00    +0.000 OA
BRANCH  22  24
ATOM     24  OXT UNL     1       8.328   4.050  17.802  0.00  0.00    +0.000 OA
ATOM     25  HXT UNL     1       8.196   3.940  18.761  0.00  0.00    +0.000 HD
ENDBRANCH  22  24
ENDBRANCH  21  22
BRANCH  21  26
ATOM     26  C   UNL     1       8.042   6.647  18.648  0.00  0.00    +0.000 C 
BRANCH  26  27
ATOM     27  C   UNL     1       8.264   8.139  18.574  0.00  0.00    +0.000 A 
ATOM     28  C   UNL     1       9.033   8.799  19.533  0.00  0.00    +0.000 A 
ATOM     29  C   UNL     1       9.360  10.149  19.371  0.00  0.00    +0.000 A 
ATOM     30  C   UNL     1       8.939  10.884  18.248  0.00  0.00    +0.000 A 
ATOM     31  C   UNL     1       8.111  10.223  17.328  0.00  0.00    +0.000 A 
ATOM     32  C   UNL     1       7.775   8.873  17.489  0.00  0.00    +0.000 A 
BRANCH  30  33
ATOM     33  C   UNL     1       9.372  12.289  18.057  0.00  0.00    +0.000 A 
ATOM     34  C   UNL     1      10.488  12.601  17.255  0.00  0.00    +0.000 A 
ATOM     35  C   UNL     1      10.952  13.912  17.120  0.00  0.00    +0.000 A 
ATOM     36  C   UNL     1      10.292  14.951  17.766  0.00  0.00    +0.000 A 
ATOM     37  C   UNL     1       9.161  14.678  18.531  0.00  0.00    +0.000 A 
ATOM     38  C   UNL     1       8.707  13.361  18.675  0.00  0.00    +0.000 A 
ENDBRANCH  30  33
ENDBRANCH  26  27
ENDBRANCH  21  26
ENDBRANCH   3  21
TORSDOF 12
ENDMDL
MODEL 8
REMARK VINA RESULT:      -8.0      2.564      5.265
REMARK  Name = 
REMARK  14 active torsions:
REMARK  status: ('A' for Active; 'I' for Inactive)
REMARK    1  A    between atoms: C_1  and  C_2
REMARK    2  A    between atoms: C_2  and  C_3
REMARK    3  A    between atoms: C_3  and  C_4
REMARK    4  A    between atoms: C_3  and  C_5
REMARK    5  A    between atoms: C_5  and  S_6
REMARK    6  A    between atoms: C_5  and  C_7
REMARK    7  A    between atoms: N_9  and  C_10
REMARK    8  A    between atoms: C_10  and  C_11
REMARK    9  A    between atoms: N_13  and  CA_14
REMARK   10  A    between atoms: CA_14  and  C_15
REMARK   11  A    between atoms: CA_14  and  C_28
REMARK   12  A    between atoms: C_15  and  C_16
REMARK   13  A    between atoms: C_19  and  C_20
REMARK   14  A    between atoms: C_28  and  OXT_30
REMARK                            x       y       z     vdW  Elec       q    Type
REMARK                         _______ _______ _______ _____ _____    ______ ____
ROOT
ATOM      1  C   UNL     1       2.102   6.150  19.554  0.00  0.00    +0.000 C 
ATOM      2  O   UNL     1       1.448   5.899  20.566  0.00  0.00    +0.000 OA
ATOM      3  N   UNL     1       2.037   7.380  18.946  0.00  0.00    +0.000 N 
ATOM      4  H   UNL     1       2.169   7.380  17.931  0.00  0.00    +0.000 HD
ENDROOT
BRANCH   1   5
ATOM      5  C   UNL     1       2.925   5.051  18.797  0.00  0.00    +0.000 C 
ATOM      6  C   UNL     1       2.031   4.438  17.702  0.00  0.00    +0.000 C 
ATOM      7  C   UNL     1       1.233   3.349  18.410  0.00  0.00    +0.000 C 
ATOM      8  C   UNL     1       2.100   2.874  19.568  0.00  0.00    +0.000 C 
ATOM      9  C   UNL     1       3.303   3.810  19.623  0.00  0.00    +0.000 C 
BRANCH   5  12
ATOM     10  C   UNL     1       4.732   5.181  17.093  0.00  0.00    +0.000 C 
ATOM     11  O   UNL     1       4.352   4.144  16.551  0.00  0.00    +0.000 OA
ATOM     12  N   UNL     1       4.095   5.709  18.194  0.00  0.00    +0.000 N 
ATOM     13  H   UNL     1       4.254   6.690  18.410  0.00  0.00    +0.000 HD
BRANCH  10  14
ATOM     14  C   UNL     1       5.952   5.978  16.599  0.00  0.00    +0.000 C 
BRANCH  14  15
ATOM     15  C   UNL     1       6.810   6.469  17.802  0.00  0.00    +0.000 C 
ATOM     16  C   UNL     1       7.638   7.698  17.375  0.00  0.00    +0.000 C 
BRANCH  15  18
ATOM     17  C   UNL     1       8.086   5.587  19.850  0.00  0.00    +0.000 C 
ATOM     18  C   UNL     1       7.750   5.380  18.375  0.00  0.00    +0.000 C 
ENDBRANCH  15  18
ENDBRANCH  14  15
BRANCH  14  19
ATOM     19  S   UNL     1       6.868   4.853  15.469  0.00  0.00    +0.000 S 
ATOM     20  H   UNL     1       6.646   3.733  16.176  0.00  0.00    +0.000 HD
ENDBRANCH  14  19
ENDBRANCH  10  14
ENDBRANCH   5  12
ENDBRANCH   1   5
BRANCH   3  21
ATOM     21  CA  UNL     1       1.211   8.480  19.450  0.00  0.00    +0.000 C 
BRANCH  21  22
ATOM     22  C   UNL     1       0.890   9.428  18.281  0.00  0.00    +0.000 C 
ATOM     23  O   UNL     1      -0.196   9.967  18.115  0.00  0.00    +0.000 OA
BRANCH  22  24
ATOM     24  OXT UNL     1       1.936   9.694  17.459  0.00  0.00    +0.000 OA
ATOM     25  HXT UNL     1       1.862  10.510  16.933  0.00  0.00    +0.000 HD
ENDBRANCH  22  24
ENDBRANCH  21  22
BRANCH  21  26
ATOM     26  C   UNL     1       1.814   9.219  20.657  0.00  0.00    +0.000 C 
BRANCH  26  27
ATOM     27  C   UNL     1       0.909  10.164  21.409  0.00  0.00    +0.000 A 
ATOM     28  C   UNL     1       0.799  11.505  21.035  0.00  0.00    +0.000 A 
ATOM     29  C   UNL     1      -0.155  12.331  21.636  0.00  0.00    +0.000 A 
ATOM     30  C   UNL     1      -1.034  11.852  22.623  0.00  0.00    +0.000 A 
ATOM     31  C   UNL     1      -0.866  10.521  23.035  0.00  0.00    +0.000 A 
ATOM     32  C   UNL     1       0.093   9.691  22.440  0.00  0.00    +0.000 A 
BRANCH  30  33
ATOM     33  C   UNL     1      -2.094  12.726  23.182  0.00  0.00    +0.000 A 
ATOM     34  C   UNL     1      -3.456  12.400  23.034  0.00  0.00    +0.000 A 
ATOM     35  C   UNL     1      -4.468  13.246  23.493  0.00  0.00    +0.000 A 
ATOM     36  C   UNL     1      -4.140  14.433  24.138  0.00  0.00    +0.000 A 
ATOM     37  C   UNL     1      -2.802  14.761  24.337  0.00  0.00    +0.000 A 
ATOM     38  C   UNL     1      -1.791  13.917  23.863  0.00  0.00    +0.000 A 
ENDBRANCH  30  33
ENDBRANCH  26  27
ENDBRANCH  21  26
ENDBRANCH   3  21
TORSDOF 12
ENDMDL
MODEL 9
REMARK VINA RESULT:      -8.0      5.809     10.734
REMARK  Name = 
REMARK  14 active torsions:
REMARK  status: ('A' for Active; 'I' for Inactive)
REMARK    1  A    between atoms: C_1  and  C_2
REMARK    2  A    between atoms: C_2  and  C_3
REMARK    3  A    between atoms: C_3  and  C_4
REMARK    4  A    between atoms: C_3  and  C_5
REMARK    5  A    between atoms: C_5  and  S_6
REMARK    6  A    between atoms: C_5  and  C_7
REMARK    7  A    between atoms: N_9  and  C_10
REMARK    8  A    between atoms: C_10  and  C_11
REMARK    9  A    between atoms: N_13  and  CA_14
REMARK   10  A    between atoms: CA_14  and  C_15
REMARK   11  A    between atoms: CA_14  and  C_28
REMARK   12  A    between atoms: C_15  and  C_16
REMARK   13  A    between atoms: C_19  and  C_20
REMARK   14  A    between atoms: C_28  and  OXT_30
REMARK                            x       y       z     vdW  Elec       q    Type
REMARK                         _______ _______ _______ _____ _____    ______ ____
ROOT
ATOM      1  C   UNL     1      -0.761  11.579  19.806  0.00  0.00    +0.000 C 
ATOM      2  O   UNL     1      -0.858  10.675  18.976  0.00  0.00    +0.000 OA
ATOM      3  N   UNL     1      -0.384  11.323  21.102  0.00  0.00    +0.000 N 
ATOM      4  H   UNL     1      -0.780  11.947  21.809  0.00  0.00    +0.000 HD
ENDROOT
BRANCH   1   5
ATOM      5  C   UNL     1      -1.207  13.050  19.497  0.00  0.00    +0.000 C 
ATOM      6  C   UNL     1      -0.476  13.525  18.225  0.00  0.00    +0.000 C 
ATOM      7  C   UNL     1       0.872  14.040  18.717  0.00  0.00    +0.000 C 
ATOM      8  C   UNL     1       0.648  14.517  20.146  0.00  0.00    +0.000 C 
ATOM      9  C   UNL     1      -0.774  14.111  20.522  0.00  0.00    +0.000 C 
BRANCH   5  12
ATOM     10  C   UNL     1      -3.540  12.698  20.281  0.00  0.00    +0.000 C 
ATOM     11  O   UNL     1      -3.160  12.403  21.413  0.00  0.00    +0.000 OA
ATOM     12  N   UNL     1      -2.661  13.035  19.276  0.00  0.00    +0.000 N 
ATOM     13  H   UNL     1      -3.027  13.547  18.478  0.00  0.00    +0.000 HD
BRANCH  10  14
ATOM     14  C   UNL     1      -5.026  12.709  19.881  0.00  0.00    +0.000 C 
BRANCH  14  15
ATOM     15  C   UNL     1      -5.419  11.369  19.192  0.00  0.00    +0.000 C 
ATOM     16  C   UNL     1      -5.345  11.537  17.661  0.00  0.00    +0.000 C 
BRANCH  15  18
ATOM     17  C   UNL     1      -6.977   9.345  19.458  0.00  0.00    +0.000 C 
ATOM     18  C   UNL     1      -6.824  10.858  19.593  0.00  0.00    +0.000 C 
ENDBRANCH  15  18
ENDBRANCH  14  15
BRANCH  14  19
ATOM     19  S   UNL     1      -5.965  13.029  21.429  0.00  0.00    +0.000 S 
ATOM     20  H   UNL     1      -4.996  13.733  22.038  0.00  0.00    +0.000 HD
ENDBRANCH  14  19
ENDBRANCH  10  14
ENDBRANCH   5  12
ENDBRANCH   1   5
BRANCH   3  21
ATOM     21  CA  UNL     1      -0.060   9.981  21.591  0.00  0.00    +0.000 C 
BRANCH  21  22
ATOM     22  C   UNL     1      -0.396   9.911  23.092  0.00  0.00    +0.000 C 
ATOM     23  O   UNL     1       0.383   9.520  23.950  0.00  0.00    +0.000 OA
BRANCH  22  24
ATOM     24  OXT UNL     1      -1.621  10.390  23.424  0.00  0.00    +0.000 OA
ATOM     25  HXT UNL     1      -2.077   9.919  24.144  0.00  0.00    +0.000 HD
ENDBRANCH  22  24
ENDBRANCH  21  22
BRANCH  21  26
ATOM     26  C   UNL     1       1.381   9.532  21.292  0.00  0.00    +0.000 C 
BRANCH  26  27
ATOM     27  C   UNL     1       1.559   8.197  20.611  0.00  0.00    +0.000 A 
ATOM     28  C   UNL     1       2.075   8.114  19.316  0.00  0.00    +0.000 A 
ATOM     29  C   UNL     1       2.381   6.870  18.756  0.00  0.00    +0.000 A 
ATOM     30  C   UNL     1       2.190   5.670  19.464  0.00  0.00    +0.000 A 
ATOM     31  C   UNL     1       1.608   5.767  20.738  0.00  0.00    +0.000 A 
ATOM     32  C   UNL     1       1.294   7.010  21.301  0.00  0.00    +0.000 A 
BRANCH  30  33
ATOM     33  C   UNL     1       2.603   4.372  18.879  0.00  0.00    +0.000 A 
ATOM     34  C   UNL     1       3.568   4.313  17.854  0.00  0.00    +0.000 A 
ATOM     35  C   UNL     1       3.919   3.106  17.244  0.00  0.00    +0.000 A 
ATOM     36  C   UNL     1       3.330   1.919  17.665  0.00  0.00    +0.000 A 
ATOM     37  C   UNL     1       2.405   1.941  18.705  0.00  0.00    +0.000 A 
ATOM     38  C   UNL     1       2.046   3.155  19.305  0.00  0.00    +0.000 A 
ENDBRANCH  30  33
ENDBRANCH  26  27
ENDBRANCH  21  26
ENDBRANCH   3  21
TORSDOF 12
ENDMDL
