MODEL 1
REMARK VINA RESULT:      -8.4      0.000      0.000
REMARK  Name = 
REMARK  4 active torsions:
REMARK  status: ('A' for Active; 'I' for Inactive)
REMARK    1  A    between atoms: C_1  and  C_2
REMARK    2  A    between atoms: C_2  and  N_3
REMARK    3  A    between atoms: N_6  and  C_7
REMARK    4  A    between atoms: C_9  and  C_10
REMARK                            x       y       z     vdW  Elec       q    Type
REMARK                         _______ _______ _______ _____ _____    ______ ____
ROOT
ATOM      1  C   UNL     1       4.458   4.780  18.413  0.00  0.00    +0.000 C 
ATOM      2  C   UNL     1       4.400   6.108  19.242  0.00  0.00    +0.000 C 
ATOM      3  C   UNL     1       3.028   6.241  19.946  0.00  0.00    +0.000 C 
ATOM      4  C   UNL     1       2.368   4.930  19.642  0.00  0.00    +0.000 A 
ATOM      5  C   UNL     1       1.122   4.496  20.086  0.00  0.00    +0.000 A 
ATOM      6  C   UNL     1       0.758   3.168  19.867  0.00  0.00    +0.000 A 
ATOM      7  C   UNL     1       1.663   2.292  19.266  0.00  0.00    +0.000 A 
ATOM      8  F   UNL     1       1.324   1.005  19.107  0.00  0.00    +0.000 F 
ATOM      9  C   UNL     1       2.907   2.726  18.819  0.00  0.00    +0.000 A 
ATOM     10  C   UNL     1       3.229   4.073  18.944  0.00  0.00    +0.000 A 
ENDROOT
BRANCH   3  11
ATOM     11  C   UNL     1       2.260   7.503  19.615  0.00  0.00    +0.000 A 
ATOM     12  C   UNL     1       1.504   8.188  20.573  0.00  0.00    +0.000 A 
ATOM     13  C   UNL     1       0.761   9.317  20.217  0.00  0.00    +0.000 A 
ATOM     14  C   UNL     1       0.768   9.766  18.901  0.00  0.00    +0.000 A 
ATOM     15  F   UNL     1       0.042  10.838  18.558  0.00  0.00    +0.000 F 
ATOM     16  C   UNL     1       1.521   9.112  17.938  0.00  0.00    +0.000 A 
ATOM     17  C   UNL     1       2.267   7.989  18.293  0.00  0.00    +0.000 A 
ENDBRANCH   3  11
BRANCH   1  21
ATOM     18  N   UNL     1       7.091   4.604  15.514  0.00  0.00    +0.000 NA
ATOM     19  C   UNL     1       6.840   5.744  16.422  0.00  0.00    +0.000 C 
ATOM     20  C   UNL     1       5.350   6.150  16.556  0.00  0.00    +0.000 C 
ATOM     21  N   UNL     1       4.421   5.060  16.954  0.00  0.00    +0.000 NA
ATOM     22  C   UNL     1       4.696   3.906  16.062  0.00  0.00    +0.000 C 
ATOM     23  C   UNL     1       6.184   3.504  15.902  0.00  0.00    +0.000 C 
BRANCH  18  25
ATOM     24  C   UNL     1       6.563   3.938  13.130  0.00  0.00    +0.000 C 
ATOM     25  C   UNL     1       6.968   5.034  14.110  0.00  0.00    +0.000 C 
ENDBRANCH  18  25
ENDBRANCH   1  21
TORSDOF 3
ENDMDL
MODEL 2
REMARK VINA RESULT:      -7.1      5.218     10.029
REMARK  Name = 
REMARK  4 active torsions:
REMARK  status: ('A' for Active; 'I' for Inactive)
REMARK    1  A    between atoms: C_1  and  C_2
REMARK    2  A    between atoms: C_2  and  N_3
REMARK    3  A    between atoms: N_6  and  C_7
REMARK    4  A    between atoms: C_9  and  C_10
REMARK                            x       y       z     vdW  Elec       q    Type
REMARK                         _______ _______ _______ _____ _____    ______ ____
ROOT
ATOM      1  C   UNL     1      -1.255  12.579  19.683  0.00  0.00    +0.000 C 
ATOM      2  C   UNL     1       0.174  12.139  19.215  0.00  0.00    +0.000 C 
ATOM      3  C   UNL     1       0.080  10.887  18.310  0.00  0.00    +0.000 C 
ATOM      4  C   UNL     1      -1.399  10.705  18.144  0.00  0.00    +0.000 A 
ATOM      5  C   UNL     1      -2.043   9.743  17.371  0.00  0.00    +0.000 A 
ATOM      6  C   UNL     1      -3.420   9.851  17.177  0.00  0.00    +0.000 A 
ATOM      7  C   UNL     1      -4.110  10.943  17.707  0.00  0.00    +0.000 A 
ATOM      8  F   UNL     1      -5.423  11.066  17.472  0.00  0.00    +0.000 F 
ATOM      9  C   UNL     1      -3.467  11.902  18.483  0.00  0.00    +0.000 A 
ATOM     10  C   UNL     1      -2.114  11.739  18.763  0.00  0.00    +0.000 A 
ENDROOT
BRANCH   3  11
ATOM     11  C   UNL     1       0.881   9.693  18.787  0.00  0.00    +0.000 A 
ATOM     12  C   UNL     1       1.679   8.938  17.921  0.00  0.00    +0.000 A 
ATOM     13  C   UNL     1       2.358   7.808  18.384  0.00  0.00    +0.000 A 
ATOM     14  C   UNL     1       2.242   7.427  19.717  0.00  0.00    +0.000 A 
ATOM     15  F   UNL     1       2.880   6.334  20.156  0.00  0.00    +0.000 F 
ATOM     16  C   UNL     1       1.469   8.168  20.596  0.00  0.00    +0.000 A 
ATOM     17  C   UNL     1       0.795   9.299  20.137  0.00  0.00    +0.000 A 
ENDBRANCH   3  11
BRANCH   1  21
ATOM     18  N   UNL     1      -1.556  14.806  22.895  0.00  0.00    +0.000 NA
ATOM     19  C   UNL     1      -0.312  14.296  22.277  0.00  0.00    +0.000 C 
ATOM     20  C   UNL     1      -0.320  12.778  21.964  0.00  0.00    +0.000 C 
ATOM     21  N   UNL     1      -1.452  12.300  21.129  0.00  0.00    +0.000 NA
ATOM     22  C   UNL     1      -2.697  12.838  21.733  0.00  0.00    +0.000 C 
ATOM     23  C   UNL     1      -2.694  14.351  22.071  0.00  0.00    +0.000 C 
BRANCH  18  25
ATOM     24  C   UNL     1      -2.892  14.824  25.044  0.00  0.00    +0.000 C 
ATOM     25  C   UNL     1      -1.623  14.403  24.311  0.00  0.00    +0.000 C 
ENDBRANCH  18  25
ENDBRANCH   1  21
TORSDOF 3
ENDMDL
MODEL 3
REMARK VINA RESULT:      -7.0      3.304      6.536
REMARK  Name = 
REMARK  4 active torsions:
REMARK  status: ('A' for Active; 'I' for Inactive)
REMARK    1  A    between atoms: C_1  and  C_2
REMARK    2  A    between atoms: C_2  and  N_3
REMARK    3  A    between atoms: N_6  and  C_7
REMARK    4  A    between atoms: C_9  and  C_10
REMARK                            x       y       z     vdW  Elec       q    Type
REMARK                         _______ _______ _______ _____ _____    ______ ____
ROOT
ATOM      1  C   UNL     1       1.569   6.522  19.380  0.00  0.00    +0.000 C 
ATOM      2  C   UNL     1       2.551   6.601  18.162  0.00  0.00    +0.000 C 
ATOM      3  C   UNL     1       3.572   5.441  18.220  0.00  0.00    +0.000 C 
ATOM      4  C   UNL     1       3.084   4.623  19.377  0.00  0.00    +0.000 A 
ATOM      5  C   UNL     1       3.615   3.421  19.838  0.00  0.00    +0.000 A 
ATOM      6  C   UNL     1       2.908   2.701  20.801  0.00  0.00    +0.000 A 
ATOM      7  C   UNL     1       1.665   3.163  21.236  0.00  0.00    +0.000 A 
ATOM      8  F   UNL     1       0.970   2.438  22.123  0.00  0.00    +0.000 F 
ATOM      9  C   UNL     1       1.137   4.366  20.779  0.00  0.00    +0.000 A 
ATOM     10  C   UNL     1       1.888   5.135  19.897  0.00  0.00    +0.000 A 
ENDROOT
BRANCH   3  11
ATOM     11  C   UNL     1       5.025   5.869  18.231  0.00  0.00    +0.000 A 
ATOM     12  C   UNL     1       5.948   5.345  19.144  0.00  0.00    +0.000 A 
ATOM     13  C   UNL     1       7.267   5.806  19.163  0.00  0.00    +0.000 A 
ATOM     14  C   UNL     1       7.669   6.795  18.271  0.00  0.00    +0.000 A 
ATOM     15  F   UNL     1       8.930   7.248  18.302  0.00  0.00    +0.000 F 
ATOM     16  C   UNL     1       6.776   7.317  17.349  0.00  0.00    +0.000 A 
ATOM     17  C   UNL     1       5.461   6.854  17.325  0.00  0.00    +0.000 A 
ENDBRANCH   3  11
BRANCH   1  21
ATOM     18  N   UNL     1      -0.441   9.653  20.614  0.00  0.00    +0.000 NA
ATOM     19  C   UNL     1       0.449   9.573  19.435  0.00  0.00    +0.000 C 
ATOM     20  C   UNL     1       1.843   8.957  19.717  0.00  0.00    +0.000 C 
ATOM     21  N   UNL     1       1.836   7.614  20.352  0.00  0.00    +0.000 NA
ATOM     22  C   UNL     1       0.917   7.688  21.517  0.00  0.00    +0.000 C 
ATOM     23  C   UNL     1      -0.472   8.322  21.253  0.00  0.00    +0.000 C 
BRANCH  18  25
ATOM     24  C   UNL     1      -0.751  10.829  22.834  0.00  0.00    +0.000 C 
ATOM     25  C   UNL     1      -0.014  10.750  21.501  0.00  0.00    +0.000 C 
ENDBRANCH  18  25
ENDBRANCH   1  21
TORSDOF 3
ENDMDL
MODEL 4
REMARK VINA RESULT:      -6.9      2.808      6.185
REMARK  Name = 
REMARK  4 active torsions:
REMARK  status: ('A' for Active; 'I' for Inactive)
REMARK    1  A    between atoms: C_1  and  C_2
REMARK    2  A    between atoms: C_2  and  N_3
REMARK    3  A    between atoms: N_6  and  C_7
REMARK    4  A    between atoms: C_9  and  C_10
REMARK                            x       y       z     vdW  Elec       q    Type
REMARK                         _______ _______ _______ _____ _____    ______ ____
ROOT
ATOM      1  C   UNL     1       1.586   6.205  19.010  0.00  0.00    +0.000 C 
ATOM      2  C   UNL     1       2.022   5.875  17.542  0.00  0.00    +0.000 C 
ATOM      3  C   UNL     1       2.912   4.609  17.519  0.00  0.00    +0.000 C 
ATOM      4  C   UNL     1       2.861   4.138  18.941  0.00  0.00    +0.000 A 
ATOM      5  C   UNL     1       3.454   2.994  19.467  0.00  0.00    +0.000 A 
ATOM      6  C   UNL     1       3.132   2.610  20.768  0.00  0.00    +0.000 A 
ATOM      7  C   UNL     1       2.186   3.338  21.491  0.00  0.00    +0.000 A 
ATOM      8  F   UNL     1       1.845   2.932  22.721  0.00  0.00    +0.000 F 
ATOM      9  C   UNL     1       1.597   4.484  20.967  0.00  0.00    +0.000 A 
ATOM     10  C   UNL     1       1.994   4.926  19.710  0.00  0.00    +0.000 A 
ENDROOT
BRANCH   3  11
ATOM     11  C   UNL     1       4.279   4.802  16.896  0.00  0.00    +0.000 A 
ATOM     12  C   UNL     1       4.980   6.009  17.000  0.00  0.00    +0.000 A 
ATOM     13  C   UNL     1       6.214   6.170  16.363  0.00  0.00    +0.000 A 
ATOM     14  C   UNL     1       6.752   5.126  15.618  0.00  0.00    +0.000 A 
ATOM     15  F   UNL     1       7.927   5.287  14.994  0.00  0.00    +0.000 F 
ATOM     16  C   UNL     1       6.082   3.917  15.514  0.00  0.00    +0.000 A 
ATOM     17  C   UNL     1       4.854   3.753  16.153  0.00  0.00    +0.000 A 
ENDBRANCH   3  11
BRANCH   1  21
ATOM     18  N   UNL     1       0.617   9.994  19.280  0.00  0.00    +0.000 NA
ATOM     19  C   UNL     1       1.224   9.309  18.117  0.00  0.00    +0.000 C 
ATOM     20  C   UNL     1       2.468   8.447  18.451  0.00  0.00    +0.000 C 
ATOM     21  N   UNL     1       2.275   7.423  19.510  0.00  0.00    +0.000 NA
ATOM     22  C   UNL     1       1.637   8.105  20.664  0.00  0.00    +0.000 C 
ATOM     23  C   UNL     1       0.405   8.988  20.341  0.00  0.00    +0.000 C 
BRANCH  18  25
ATOM     24  C   UNL     1       1.721  12.161  18.578  0.00  0.00    +0.000 C 
ATOM     25  C   UNL     1       1.444  11.145  19.682  0.00  0.00    +0.000 C 
ENDBRANCH  18  25
ENDBRANCH   1  21
TORSDOF 3
ENDMDL
MODEL 5
REMARK VINA RESULT:      -6.8      0.946      1.428
REMARK  Name = 
REMARK  4 active torsions:
REMARK  status: ('A' for Active; 'I' for Inactive)
REMARK    1  A    between atoms: C_1  and  C_2
REMARK    2  A    between atoms: C_2  and  N_3
REMARK    3  A    between atoms: N_6  and  C_7
REMARK    4  A    between atoms: C_9  and  C_10
REMARK                            x       y       z     vdW  Elec       q    Type
REMARK                         _______ _______ _______ _____ _____    ______ ____
ROOT
ATOM      1  C   UNL     1       5.041   5.293  18.424  0.00  0.00    +0.000 C 
ATOM      2  C   UNL     1       4.554   6.352  19.471  0.00  0.00    +0.000 C 
ATOM      3  C   UNL     1       3.030   6.217  19.702  0.00  0.00    +0.000 C 
ATOM      4  C   UNL     1       2.679   4.995  18.907  0.00  0.00    +0.000 A 
ATOM      5  C   UNL     1       1.429   4.390  18.811  0.00  0.00    +0.000 A 
ATOM      6  C   UNL     1       1.334   3.146  18.187  0.00  0.00    +0.000 A 
ATOM      7  C   UNL     1       2.489   2.511  17.729  0.00  0.00    +0.000 A 
ATOM      8  F   UNL     1       2.394   1.294  17.177  0.00  0.00    +0.000 F 
ATOM      9  C   UNL     1       3.737   3.119  17.822  0.00  0.00    +0.000 A 
ATOM     10  C   UNL     1       3.819   4.402  18.350  0.00  0.00    +0.000 A 
ENDROOT
BRANCH   3  11
ATOM     11  C   UNL     1       2.230   7.476  19.438  0.00  0.00    +0.000 A 
ATOM     12  C   UNL     1       2.150   8.053  18.166  0.00  0.00    +0.000 A 
ATOM     13  C   UNL     1       1.450   9.248  17.971  0.00  0.00    +0.000 A 
ATOM     14  C   UNL     1       0.829   9.871  19.048  0.00  0.00    +0.000 A 
ATOM     15  F   UNL     1       0.173  11.024  18.863  0.00  0.00    +0.000 F 
ATOM     16  C   UNL     1       0.883   9.309  20.314  0.00  0.00    +0.000 A 
ATOM     17  C   UNL     1       1.576   8.115  20.509  0.00  0.00    +0.000 A 
ENDBRANCH   3  11
BRANCH   1  21
ATOM     18  N   UNL     1       6.815   4.086  15.144  0.00  0.00    +0.000 NA
ATOM     19  C   UNL     1       7.462   4.612  16.366  0.00  0.00    +0.000 C 
ATOM     20  C   UNL     1       6.869   5.944  16.891  0.00  0.00    +0.000 C 
ATOM     21  N   UNL     1       5.404   5.942  17.138  0.00  0.00    +0.000 NA
ATOM     22  C   UNL     1       4.758   5.385  15.922  0.00  0.00    +0.000 C 
ATOM     23  C   UNL     1       5.356   4.064  15.374  0.00  0.00    +0.000 C 
BRANCH  18  25
ATOM     24  C   UNL     1       6.977   4.200  12.621  0.00  0.00    +0.000 C 
ATOM     25  C   UNL     1       7.239   4.866  13.967  0.00  0.00    +0.000 C 
ENDBRANCH  18  25
ENDBRANCH   1  21
TORSDOF 3
ENDMDL
MODEL 6
REMARK VINA RESULT:      -6.7      2.886      6.303
REMARK  Name = 
REMARK  4 active torsions:
REMARK  status: ('A' for Active; 'I' for Inactive)
REMARK    1  A    between atoms: C_1  and  C_2
REMARK    2  A    between atoms: C_2  and  N_3
REMARK    3  A    between atoms: N_6  and  C_7
REMARK    4  A    between atoms: C_9  and  C_10
REMARK                            x       y       z     vdW  Elec       q    Type
REMARK                         _______ _______ _______ _____ _____    ______ ____
ROOT
ATOM      1  C   UNL     1       1.431   6.186  19.235  0.00  0.00    +0.000 C 
ATOM      2  C   UNL     1       1.886   5.996  17.748  0.00  0.00    +0.000 C 
ATOM      3  C   UNL     1       2.781   4.740  17.617  0.00  0.00    +0.000 C 
ATOM      4  C   UNL     1       2.713   4.137  18.988  0.00  0.00    +0.000 A 
ATOM      5  C   UNL     1       3.303   2.949  19.411  0.00  0.00    +0.000 A 
ATOM      6  C   UNL     1       2.965   2.444  20.667  0.00  0.00    +0.000 A 
ATOM      7  C   UNL     1       2.008   3.099  21.443  0.00  0.00    +0.000 A 
ATOM      8  F   UNL     1       1.653   2.578  22.624  0.00  0.00    +0.000 F 
ATOM      9  C   UNL     1       1.422   4.289  21.021  0.00  0.00    +0.000 A 
ATOM     10  C   UNL     1       1.834   4.847  19.816  0.00  0.00    +0.000 A 
ENDROOT
BRANCH   3  11
ATOM     11  C   UNL     1       4.155   4.993  17.033  0.00  0.00    +0.000 A 
ATOM     12  C   UNL     1       4.833   4.028  16.280  0.00  0.00    +0.000 A 
ATOM     13  C   UNL     1       6.124   4.275  15.805  0.00  0.00    +0.000 A 
ATOM     14  C   UNL     1       6.745   5.488  16.084  0.00  0.00    +0.000 A 
ATOM     15  F   UNL     1       7.989   5.717  15.643  0.00  0.00    +0.000 F 
ATOM     16  C   UNL     1       6.087   6.464  16.816  0.00  0.00    +0.000 A 
ATOM     17  C   UNL     1       4.797   6.221  17.285  0.00  0.00    +0.000 A 
ENDBRANCH   3  11
BRANCH   1  21
ATOM     18  N   UNL     1       0.349   9.852  20.102  0.00  0.00    +0.000 NA
ATOM     19  C   UNL     1       0.895   9.364  18.817  0.00  0.00    +0.000 C 
ATOM     20  C   UNL     1       2.190   8.521  18.942  0.00  0.00    +0.000 C 
ATOM     21  N   UNL     1       2.110   7.352  19.856  0.00  0.00    +0.000 NA
ATOM     22  C   UNL     1       1.532   7.838  21.134  0.00  0.00    +0.000 C 
ATOM     23  C   UNL     1       0.250   8.700  21.022  0.00  0.00    +0.000 C 
BRANCH  18  25
ATOM     24  C   UNL     1       1.170  12.217  19.725  0.00  0.00    +0.000 C 
ATOM     25  C   UNL     1       1.161  10.973  20.608  0.00  0.00    +0.000 C 
ENDBRANCH  18  25
ENDBRANCH   1  21
TORSDOF 3
ENDMDL
MODEL 7
REMARK VINA RESULT:      -6.5      7.707     11.471
REMARK  Name = 
REMARK  4 active torsions:
REMARK  status: ('A' for Active; 'I' for Inactive)
REMARK    1  A    between atoms: C_1  and  C_2
REMARK    2  A    between atoms: C_2  and  N_3
REMARK    3  A    between atoms: N_6  and  C_7
REMARK    4  A    between atoms: C_9  and  C_10
REMARK                            x       y       z     vdW  Elec       q    Type
REMARK                         _______ _______ _______ _____ _____    ______ ____
ROOT
ATOM      1  C   UNL     1      -4.110  12.757  19.414  0.00  0.00    +0.000 C 
ATOM      2  C   UNL     1      -2.783  13.051  20.193  0.00  0.00    +0.000 C 
ATOM      3  C   UNL     1      -1.665  12.086  19.732  0.00  0.00    +0.000 C 
ATOM      4  C   UNL     1      -2.307  11.349  18.596  0.00  0.00    +0.000 A 
ATOM      5  C   UNL     1      -1.716  10.388  17.780  0.00  0.00    +0.000 A 
ATOM      6  C   UNL     1      -2.405   9.956  16.646  0.00  0.00    +0.000 A 
ATOM      7  C   UNL     1      -3.634  10.532  16.322  0.00  0.00    +0.000 A 
ATOM      8  F   UNL     1      -4.264  10.148  15.204  0.00  0.00    +0.000 F 
ATOM      9  C   UNL     1      -4.226  11.489  17.140  0.00  0.00    +0.000 A 
ATOM     10  C   UNL     1      -3.588  11.845  18.323  0.00  0.00    +0.000 A 
ENDROOT
BRANCH   3  11
ATOM     11  C   UNL     1      -1.040  11.259  20.836  0.00  0.00    +0.000 A 
ATOM     12  C   UNL     1      -1.517  11.291  22.151  0.00  0.00    +0.000 A 
ATOM     13  C   UNL     1      -0.879  10.558  23.157  0.00  0.00    +0.000 A 
ATOM     14  C   UNL     1       0.241   9.792  22.852  0.00  0.00    +0.000 A 
ATOM     15  F   UNL     1       0.861   9.104  23.820  0.00  0.00    +0.000 F 
ATOM     16  C   UNL     1       0.722   9.734  21.554  0.00  0.00    +0.000 A 
ATOM     17  C   UNL     1       0.084  10.459  20.549  0.00  0.00    +0.000 A 
ENDBRANCH   3  11
BRANCH   1  21
ATOM     18  N   UNL     1      -7.045  14.124  21.624  0.00  0.00    +0.000 NA
ATOM     19  C   UNL     1      -5.626  13.978  22.017  0.00  0.00    +0.000 C 
ATOM     20  C   UNL     1      -5.009  12.588  21.712  0.00  0.00    +0.000 C 
ATOM     21  N   UNL     1      -5.123  12.131  20.302  0.00  0.00    +0.000 NA
ATOM     22  C   UNL     1      -6.541  12.308  19.900  0.00  0.00    +0.000 C 
ATOM     23  C   UNL     1      -7.176  13.685  20.220  0.00  0.00    +0.000 C 
BRANCH  18  25
ATOM     24  C   UNL     1      -7.718  13.783  24.040  0.00  0.00    +0.000 C 
ATOM     25  C   UNL     1      -7.913  13.407  22.575  0.00  0.00    +0.000 C 
ENDBRANCH  18  25
ENDBRANCH   1  21
TORSDOF 3
ENDMDL
MODEL 8
REMARK VINA RESULT:      -6.5      4.997      9.795
REMARK  Name = 
REMARK  4 active torsions:
REMARK  status: ('A' for Active; 'I' for Inactive)
REMARK    1  A    between atoms: C_1  and  C_2
REMARK    2  A    between atoms: C_2  and  N_3
REMARK    3  A    between atoms: N_6  and  C_7
REMARK    4  A    between atoms: C_9  and  C_10
REMARK                            x       y       z     vdW  Elec       q    Type
REMARK                         _______ _______ _______ _____ _____    ______ ____
ROOT
ATOM      1  C   UNL     1      -0.449  12.534  19.559  0.00  0.00    +0.000 C 
ATOM      2  C   UNL     1       0.870  11.879  19.022  0.00  0.00    +0.000 C 
ATOM      3  C   UNL     1       0.543  10.617  18.189  0.00  0.00    +0.000 C 
ATOM      4  C   UNL     1      -0.955  10.637  18.126  0.00  0.00    +0.000 A 
ATOM      5  C   UNL     1      -1.777   9.745  17.444  0.00  0.00    +0.000 A 
ATOM      6  C   UNL     1      -3.137  10.037  17.334  0.00  0.00    +0.000 A 
ATOM      7  C   UNL     1      -3.632  11.234  17.851  0.00  0.00    +0.000 A 
ATOM      8  F   UNL     1      -4.929  11.530  17.695  0.00  0.00    +0.000 F 
ATOM      9  C   UNL     1      -2.811  12.124  18.537  0.00  0.00    +0.000 A 
ATOM     10  C   UNL     1      -1.477  11.785  18.737  0.00  0.00    +0.000 A 
ENDROOT
BRANCH   3  11
ATOM     11  C   UNL     1       1.204   9.344  18.672  0.00  0.00    +0.000 A 
ATOM     12  C   UNL     1       1.122   8.922  20.004  0.00  0.00    +0.000 A 
ATOM     13  C   UNL     1       1.794   7.771  20.427  0.00  0.00    +0.000 A 
ATOM     14  C   UNL     1       2.553   7.038  19.521  0.00  0.00    +0.000 A 
ATOM     15  F   UNL     1       3.210   5.945  19.932  0.00  0.00    +0.000 F 
ATOM     16  C   UNL     1       2.636   7.429  18.194  0.00  0.00    +0.000 A 
ATOM     17  C   UNL     1       1.962   8.574  17.769  0.00  0.00    +0.000 A 
ENDBRANCH   3  11
BRANCH   1  21
ATOM     18  N   UNL     1      -1.634  14.801  22.528  0.00  0.00    +0.000 NA
ATOM     19  C   UNL     1      -0.271  14.716  21.961  0.00  0.00    +0.000 C 
ATOM     20  C   UNL     1       0.277  13.274  21.804  0.00  0.00    +0.000 C 
ATOM     21  N   UNL     1      -0.581  12.342  21.026  0.00  0.00    +0.000 NA
ATOM     22  C   UNL     1      -1.955  12.453  21.577  0.00  0.00    +0.000 C 
ATOM     23  C   UNL     1      -2.506  13.890  21.759  0.00  0.00    +0.000 C 
BRANCH  18  25
ATOM     24  C   UNL     1      -2.946  14.645  24.687  0.00  0.00    +0.000 C 
ATOM     25  C   UNL     1      -1.600  14.539  23.978  0.00  0.00    +0.000 C 
ENDBRANCH  18  25
ENDBRANCH   1  21
TORSDOF 3
ENDMDL
MODEL 9
REMARK VINA RESULT:      -6.4      3.143      5.804
REMARK  Name = 
REMARK  4 active torsions:
REMARK  status: ('A' for Active; 'I' for Inactive)
REMARK    1  A    between atoms: C_1  and  C_2
REMARK    2  A    between atoms: C_2  and  N_3
REMARK    3  A    between atoms: N_6  and  C_7
REMARK    4  A    between atoms: C_9  and  C_10
REMARK                            x       y       z     vdW  Elec       q    Type
REMARK                         _______ _______ _______ _____ _____    ______ ____
ROOT
ATOM      1  C   UNL     1       1.771   8.950  19.643  0.00  0.00    +0.000 C 
ATOM      2  C   UNL     1       1.288  10.008  18.593  0.00  0.00    +0.000 C 
ATOM      3  C   UNL     1       0.068  10.787  19.139  0.00  0.00    +0.000 C 
ATOM      4  C   UNL     1      -0.050  10.280  20.546  0.00  0.00    +0.000 A 
ATOM      5  C   UNL     1      -0.962  10.695  21.512  0.00  0.00    +0.000 A 
ATOM      6  C   UNL     1      -0.793  10.256  22.825  0.00  0.00    +0.000 A 
ATOM      7  C   UNL     1       0.309   9.466  23.154  0.00  0.00    +0.000 A 
ATOM      8  F   UNL     1       0.491   9.092  24.428  0.00  0.00    +0.000 F 
ATOM      9  C   UNL     1       1.218   9.048  22.187  0.00  0.00    +0.000 A 
ATOM     10  C   UNL     1       0.993   9.400  20.861  0.00  0.00    +0.000 A 
ENDROOT
BRANCH   3  11
ATOM     11  C   UNL     1      -1.170  10.725  18.269  0.00  0.00    +0.000 A 
ATOM     12  C   UNL     1      -1.322   9.771  17.257  0.00  0.00    +0.000 A 
ATOM     13  C   UNL     1      -2.453   9.781  16.436  0.00  0.00    +0.000 A 
ATOM     14  C   UNL     1      -3.436  10.746  16.621  0.00  0.00    +0.000 A 
ATOM     15  F   UNL     1      -4.512  10.764  15.821  0.00  0.00    +0.000 F 
ATOM     16  C   UNL     1      -3.314  11.692  17.626  0.00  0.00    +0.000 A 
ATOM     17  C   UNL     1      -2.190  11.680  18.450  0.00  0.00    +0.000 A 
ENDBRANCH   3  11
BRANCH   1  21
ATOM     18  N   UNL     1       3.925   5.830  18.649  0.00  0.00    +0.000 NA
ATOM     19  C   UNL     1       3.499   6.937  17.765  0.00  0.00    +0.000 C 
ATOM     20  C   UNL     1       1.988   7.276  17.835  0.00  0.00    +0.000 C 
ATOM     21  N   UNL     1       1.458   7.570  19.192  0.00  0.00    +0.000 NA
ATOM     22  C   UNL     1       1.913   6.473  20.084  0.00  0.00    +0.000 C 
ATOM     23  C   UNL     1       3.418   6.109  20.007  0.00  0.00    +0.000 C 
BRANCH  18  25
ATOM     24  C   UNL     1       4.173   4.142  16.779  0.00  0.00    +0.000 C 
ATOM     25  C   UNL     1       3.496   4.536  18.088  0.00  0.00    +0.000 C 
ENDBRANCH  18  25
ENDBRANCH   1  21
TORSDOF 3
ENDMDL
