MODEL 1
REMARK VINA RESULT:      -7.3      0.000      0.000
REMARK  Name = 
REMARK  5 active torsions:
REMARK  status: ('A' for Active; 'I' for Inactive)
REMARK    1  A    between atoms: C_1  and  O_2
REMARK    2  A    between atoms: O_2  and  C_3
REMARK    3  A    between atoms: C_8  and  C_9
REMARK    4  A    between atoms: C_9  and  N_10
REMARK    5  A    between atoms: C_11  and  C_13
REMARK                            x       y       z     vdW  Elec       q    Type
REMARK                         _______ _______ _______ _____ _____    ______ ____
ROOT
ATOM      1  N   UNL     1       4.810   4.374  17.337  0.00  0.00    +0.000 N 
ATOM      2  C   UNL     1       5.939   4.297  16.556  0.00  0.00    +0.000 C 
ATOM      3  O   UNL     1       5.984   3.630  15.520  0.00  0.00    +0.000 OA
ATOM      4  H   UNL     1       4.791   4.934  18.176  0.00  0.00    +0.000 HD
ENDROOT
BRANCH   2   5
ATOM      5  C   UNL     1       7.205   4.977  17.112  0.00  0.00    +0.000 C 
ATOM      6  C   UNL     1       7.236   5.236  18.612  0.00  0.00    +0.000 C 
ATOM      7  C   UNL     1       8.003   6.554  18.746  0.00  0.00    +0.000 C 
ATOM      8  C   UNL     1       7.644   7.262  17.471  0.00  0.00    +0.000 C 
ATOM      9  O   UNL     1       7.681   8.464  17.272  0.00  0.00    +0.000 OA
ATOM     10  N   UNL     1       7.302   6.303  16.550  0.00  0.00    +0.000 N 
ATOM     11  H   UNL     1       6.889   6.553  15.656  0.00  0.00    +0.000 HD
ENDBRANCH   2   5
BRANCH   1  12
ATOM     12  C   UNL     1       3.595   3.669  16.976  0.00  0.00    +0.000 C 
BRANCH  12  18
ATOM     13  C   UNL     1       2.185   4.634  18.874  0.00  0.00    +0.000 A 
ATOM     14  C   UNL     1       1.356   4.427  19.987  0.00  0.00    +0.000 A 
ATOM     15  C   UNL     1       0.903   3.148  20.312  0.00  0.00    +0.000 A 
ATOM     16  C   UNL     1       1.285   2.062  19.537  0.00  0.00    +0.000 A 
ATOM     17  C   UNL     1       2.144   2.251  18.452  0.00  0.00    +0.000 A 
ATOM     18  C   UNL     1       2.625   3.532  18.119  0.00  0.00    +0.000 A 
BRANCH  13  20
ATOM     19  C   UNL     1       2.476   6.891  19.489  0.00  0.00    +0.000 C 
ATOM     20  O   UNL     1       2.641   5.874  18.503  0.00  0.00    +0.000 OA
ENDBRANCH  13  20
ENDBRANCH  12  18
ENDBRANCH   1  12
TORSDOF 4
ENDMDL
MODEL 2
REMARK VINA RESULT:      -7.2      1.764      2.209
REMARK  Name = 
REMARK  5 active torsions:
REMARK  status: ('A' for Active; 'I' for Inactive)
REMARK    1  A    between atoms: C_1  and  O_2
REMARK    2  A    between atoms: O_2  and  C_3
REMARK    3  A    between atoms: C_8  and  C_9
REMARK    4  A    between atoms: C_9  and  N_10
REMARK    5  A    between atoms: C_11  and  C_13
REMARK                            x       y       z     vdW  Elec       q    Type
REMARK                         _______ _______ _______ _____ _____    ______ ____
ROOT
ATOM      1  N   UNL     1       5.244   3.704  17.998  0.00  0.00    +0.000 N 
ATOM      2  C   UNL     1       5.747   4.506  16.999  0.00  0.00    +0.000 C 
ATOM      3  O   UNL     1       5.219   4.590  15.889  0.00  0.00    +0.000 OA
ATOM      4  H   UNL     1       5.686   3.659  18.904  0.00  0.00    +0.000 HD
ENDROOT
BRANCH   2   5
ATOM      5  C   UNL     1       7.094   5.195  17.287  0.00  0.00    +0.000 C 
ATOM      6  C   UNL     1       7.412   5.487  18.747  0.00  0.00    +0.000 C 
ATOM      7  C   UNL     1       8.187   6.806  18.703  0.00  0.00    +0.000 C 
ATOM      8  C   UNL     1       7.589   7.486  17.506  0.00  0.00    +0.000 C 
ATOM      9  O   UNL     1       7.583   8.684  17.278  0.00  0.00    +0.000 OA
ATOM     10  N   UNL     1       7.078   6.509  16.688  0.00  0.00    +0.000 N 
ATOM     11  H   UNL     1       6.501   6.740  15.885  0.00  0.00    +0.000 HD
ENDBRANCH   2   5
BRANCH   1  12
ATOM     12  C   UNL     1       4.048   2.910  17.795  0.00  0.00    +0.000 C 
BRANCH  12  18
ATOM     13  C   UNL     1       3.541   2.665  20.285  0.00  0.00    +0.000 A 
ATOM     14  C   UNL     1       2.601   2.608  21.326  0.00  0.00    +0.000 A 
ATOM     15  C   UNL     1       1.255   2.884  21.087  0.00  0.00    +0.000 A 
ATOM     16  C   UNL     1       0.831   3.207  19.806  0.00  0.00    +0.000 A 
ATOM     17  C   UNL     1       1.752   3.225  18.755  0.00  0.00    +0.000 A 
ATOM     18  C   UNL     1       3.112   2.933  18.973  0.00  0.00    +0.000 A 
BRANCH  13  20
ATOM     19  C   UNL     1       5.182   1.126  20.992  0.00  0.00    +0.000 C 
ATOM     20  O   UNL     1       4.878   2.420  20.474  0.00  0.00    +0.000 OA
ENDBRANCH  13  20
ENDBRANCH  12  18
ENDBRANCH   1  12
TORSDOF 4
ENDMDL
MODEL 3
REMARK VINA RESULT:      -7.0      3.511      5.482
REMARK  Name = 
REMARK  5 active torsions:
REMARK  status: ('A' for Active; 'I' for Inactive)
REMARK    1  A    between atoms: C_1  and  O_2
REMARK    2  A    between atoms: O_2  and  C_3
REMARK    3  A    between atoms: C_8  and  C_9
REMARK    4  A    between atoms: C_9  and  N_10
REMARK    5  A    between atoms: C_11  and  C_13
REMARK                            x       y       z     vdW  Elec       q    Type
REMARK                         _______ _______ _______ _____ _____    ______ ____
ROOT
ATOM      1  N   UNL     1       6.062   3.605  14.732  0.00  0.00    +0.000 N 
ATOM      2  C   UNL     1       6.651   4.261  13.677  0.00  0.00    +0.000 C 
ATOM      3  O   UNL     1       7.406   5.222  13.833  0.00  0.00    +0.000 OA
ATOM      4  H   UNL     1       5.456   2.812  14.582  0.00  0.00    +0.000 HD
ENDROOT
BRANCH   2   5
ATOM      5  C   UNL     1       6.212   3.824  12.266  0.00  0.00    +0.000 C 
ATOM      6  C   UNL     1       4.717   3.631  12.048  0.00  0.00    +0.000 C 
ATOM      7  C   UNL     1       4.634   2.467  11.058  0.00  0.00    +0.000 C 
ATOM      8  C   UNL     1       5.851   1.661  11.411  0.00  0.00    +0.000 C 
ATOM      9  O   UNL     1       6.027   0.475  11.189  0.00  0.00    +0.000 OA
ATOM     10  N   UNL     1       6.753   2.513  11.999  0.00  0.00    +0.000 N 
ATOM     11  H   UNL     1       7.595   2.164  12.447  0.00  0.00    +0.000 HD
ENDBRANCH   2   5
BRANCH   1  12
ATOM     12  C   UNL     1       6.305   4.012  16.103  0.00  0.00    +0.000 C 
BRANCH  12  18
ATOM     13  C   UNL     1       5.209   6.187  16.869  0.00  0.00    +0.000 A 
ATOM     14  C   UNL     1       4.154   6.842  17.523  0.00  0.00    +0.000 A 
ATOM     15  C   UNL     1       3.028   6.135  17.946  0.00  0.00    +0.000 A 
ATOM     16  C   UNL     1       2.950   4.766  17.732  0.00  0.00    +0.000 A 
ATOM     17  C   UNL     1       4.014   4.098  17.121  0.00  0.00    +0.000 A 
ATOM     18  C   UNL     1       5.166   4.791  16.702  0.00  0.00    +0.000 A 
BRANCH  13  20
ATOM     19  C   UNL     1       7.242   7.236  17.440  0.00  0.00    +0.000 C 
ATOM     20  O   UNL     1       6.328   6.841  16.419  0.00  0.00    +0.000 OA
ENDBRANCH  13  20
ENDBRANCH  12  18
ENDBRANCH   1  12
TORSDOF 4
ENDMDL
MODEL 4
REMARK VINA RESULT:      -7.0      1.213      2.128
REMARK  Name = 
REMARK  5 active torsions:
REMARK  status: ('A' for Active; 'I' for Inactive)
REMARK    1  A    between atoms: C_1  and  O_2
REMARK    2  A    between atoms: O_2  and  C_3
REMARK    3  A    between atoms: C_8  and  C_9
REMARK    4  A    between atoms: C_9  and  N_10
REMARK    5  A    between atoms: C_11  and  C_13
REMARK                            x       y       z     vdW  Elec       q    Type
REMARK                         _______ _______ _______ _____ _____    ______ ____
ROOT
ATOM      1  N   UNL     1       4.552   5.178  17.438  0.00  0.00    +0.000 N 
ATOM      2  C   UNL     1       5.651   4.651  16.801  0.00  0.00    +0.000 C 
ATOM      3  O   UNL     1       5.576   3.680  16.046  0.00  0.00    +0.000 OA
ATOM      4  H   UNL     1       4.634   5.981  18.043  0.00  0.00    +0.000 HD
ENDROOT
BRANCH   2   5
ATOM      5  C   UNL     1       7.018   5.248  17.185  0.00  0.00    +0.000 C 
ATOM      6  C   UNL     1       7.281   5.447  18.672  0.00  0.00    +0.000 C 
ATOM      7  C   UNL     1       8.128   6.720  18.733  0.00  0.00    +0.000 C 
ATOM      8  C   UNL     1       7.626   7.493  17.547  0.00  0.00    +0.000 C 
ATOM      9  O   UNL     1       7.696   8.699  17.383  0.00  0.00    +0.000 OA
ATOM     10  N   UNL     1       7.102   6.589  16.657  0.00  0.00    +0.000 N 
ATOM     11  H   UNL     1       6.577   6.892  15.842  0.00  0.00    +0.000 HD
ENDBRANCH   2   5
BRANCH   1  12
ATOM     12  C   UNL     1       3.229   4.614  17.248  0.00  0.00    +0.000 C 
BRANCH  12  18
ATOM     13  C   UNL     1       2.245   2.904  18.869  0.00  0.00    +0.000 A 
ATOM     14  C   UNL     1       1.529   2.626  20.043  0.00  0.00    +0.000 A 
ATOM     15  C   UNL     1       1.181   3.650  20.925  0.00  0.00    +0.000 A 
ATOM     16  C   UNL     1       1.533   4.961  20.637  0.00  0.00    +0.000 A 
ATOM     17  C   UNL     1       2.209   5.253  19.449  0.00  0.00    +0.000 A 
ATOM     18  C   UNL     1       2.554   4.236  18.539  0.00  0.00    +0.000 A 
BRANCH  13  20
ATOM     19  C   UNL     1       3.797   1.206  18.352  0.00  0.00    +0.000 C 
ATOM     20  O   UNL     1       2.626   1.930  17.980  0.00  0.00    +0.000 OA
ENDBRANCH  13  20
ENDBRANCH  12  18
ENDBRANCH   1  12
TORSDOF 4
ENDMDL
MODEL 5
REMARK VINA RESULT:      -7.0      2.202      3.266
REMARK  Name = 
REMARK  5 active torsions:
REMARK  status: ('A' for Active; 'I' for Inactive)
REMARK    1  A    between atoms: C_1  and  O_2
REMARK    2  A    between atoms: O_2  and  C_3
REMARK    3  A    between atoms: C_8  and  C_9
REMARK    4  A    between atoms: C_9  and  N_10
REMARK    5  A    between atoms: C_11  and  C_13
REMARK                            x       y       z     vdW  Elec       q    Type
REMARK                         _______ _______ _______ _____ _____    ______ ____
ROOT
ATOM      1  N   UNL     1       5.365   3.147  18.989  0.00  0.00    +0.000 N 
ATOM      2  C   UNL     1       5.423   4.522  18.993  0.00  0.00    +0.000 C 
ATOM      3  O   UNL     1       4.946   5.202  19.903  0.00  0.00    +0.000 OA
ATOM      4  H   UNL     1       5.772   2.609  18.239  0.00  0.00    +0.000 HD
ENDROOT
BRANCH   2   5
ATOM      5  C   UNL     1       5.994   5.188  17.727  0.00  0.00    +0.000 C 
ATOM      6  C   UNL     1       5.018   5.997  16.883  0.00  0.00    +0.000 C 
ATOM      7  C   UNL     1       5.493   5.772  15.446  0.00  0.00    +0.000 C 
ATOM      8  C   UNL     1       6.068   4.387  15.514  0.00  0.00    +0.000 C 
ATOM      9  O   UNL     1       6.219   3.615  14.582  0.00  0.00    +0.000 OA
ATOM     10  N   UNL     1       6.431   4.155  16.818  0.00  0.00    +0.000 N 
ATOM     11  H   UNL     1       6.716   3.231  17.131  0.00  0.00    +0.000 HD
ENDBRANCH   2   5
BRANCH   1  12
ATOM     12  C   UNL     1       4.736   2.417  20.072  0.00  0.00    +0.000 C 
BRANCH  12  18
ATOM     13  C   UNL     1       2.429   2.478  18.980  0.00  0.00    +0.000 A 
ATOM     14  C   UNL     1       1.056   2.751  19.073  0.00  0.00    +0.000 A 
ATOM     15  C   UNL     1       0.474   3.068  20.301  0.00  0.00    +0.000 A 
ATOM     16  C   UNL     1       1.259   3.129  21.443  0.00  0.00    +0.000 A 
ATOM     17  C   UNL     1       2.634   2.900  21.353  0.00  0.00    +0.000 A 
ATOM     18  C   UNL     1       3.242   2.595  20.121  0.00  0.00    +0.000 A 
BRANCH  13  20
ATOM     19  C   UNL     1       2.801   3.045  16.721  0.00  0.00    +0.000 C 
ATOM     20  O   UNL     1       3.044   2.143  17.799  0.00  0.00    +0.000 OA
ENDBRANCH  13  20
ENDBRANCH  12  18
ENDBRANCH   1  12
TORSDOF 4
ENDMDL
MODEL 6
REMARK VINA RESULT:      -7.0      2.043      2.738
REMARK  Name = 
REMARK  5 active torsions:
REMARK  status: ('A' for Active; 'I' for Inactive)
REMARK    1  A    between atoms: C_1  and  O_2
REMARK    2  A    between atoms: O_2  and  C_3
REMARK    3  A    between atoms: C_8  and  C_9
REMARK    4  A    between atoms: C_9  and  N_10
REMARK    5  A    between atoms: C_11  and  C_13
REMARK                            x       y       z     vdW  Elec       q    Type
REMARK                         _______ _______ _______ _____ _____    ______ ____
ROOT
ATOM      1  N   UNL     1       4.985   4.173  17.587  0.00  0.00    +0.000 N 
ATOM      2  C   UNL     1       6.142   4.457  16.901  0.00  0.00    +0.000 C 
ATOM      3  O   UNL     1       7.245   4.500  17.451  0.00  0.00    +0.000 OA
ATOM      4  H   UNL     1       4.094   4.132  17.115  0.00  0.00    +0.000 HD
ENDROOT
BRANCH   2   5
ATOM      5  C   UNL     1       5.983   4.862  15.424  0.00  0.00    +0.000 C 
ATOM      6  C   UNL     1       5.959   3.729  14.406  0.00  0.00    +0.000 C 
ATOM      7  C   UNL     1       6.657   4.317  13.178  0.00  0.00    +0.000 C 
ATOM      8  C   UNL     1       7.632   5.278  13.796  0.00  0.00    +0.000 C 
ATOM      9  O   UNL     1       8.658   5.699  13.291  0.00  0.00    +0.000 OA
ATOM     10  N   UNL     1       7.138   5.632  15.027  0.00  0.00    +0.000 N 
ATOM     11  H   UNL     1       7.696   6.165  15.688  0.00  0.00    +0.000 HD
ENDBRANCH   2   5
BRANCH   1  12
ATOM     12  C   UNL     1       5.001   3.900  19.012  0.00  0.00    +0.000 C 
BRANCH  12  18
ATOM     13  C   UNL     1       2.856   4.999  19.855  0.00  0.00    +0.000 A 
ATOM     14  C   UNL     1       1.623   4.890  20.516  0.00  0.00    +0.000 A 
ATOM     15  C   UNL     1       1.117   3.641  20.880  0.00  0.00    +0.000 A 
ATOM     16  C   UNL     1       1.843   2.492  20.601  0.00  0.00    +0.000 A 
ATOM     17  C   UNL     1       3.092   2.594  19.982  0.00  0.00    +0.000 A 
ATOM     18  C   UNL     1       3.626   3.845  19.622  0.00  0.00    +0.000 A 
BRANCH  13  20
ATOM     19  C   UNL     1       2.712   6.824  18.369  0.00  0.00    +0.000 C 
ATOM     20  O   UNL     1       3.387   6.201  19.461  0.00  0.00    +0.000 OA
ENDBRANCH  13  20
ENDBRANCH  12  18
ENDBRANCH   1  12
TORSDOF 4
ENDMDL
MODEL 7
REMARK VINA RESULT:      -6.9      1.852      3.000
REMARK  Name = 
REMARK  5 active torsions:
REMARK  status: ('A' for Active; 'I' for Inactive)
REMARK    1  A    between atoms: C_1  and  O_2
REMARK    2  A    between atoms: O_2  and  C_3
REMARK    3  A    between atoms: C_8  and  C_9
REMARK    4  A    between atoms: C_9  and  N_10
REMARK    5  A    between atoms: C_11  and  C_13
REMARK                            x       y       z     vdW  Elec       q    Type
REMARK                         _______ _______ _______ _____ _____    ______ ____
ROOT
ATOM      1  N   UNL     1       4.186   5.924  18.601  0.00  0.00    +0.000 N 
ATOM      2  C   UNL     1       4.442   6.742  17.525  0.00  0.00    +0.000 C 
ATOM      3  O   UNL     1       3.676   7.646  17.184  0.00  0.00    +0.000 OA
ATOM      4  H   UNL     1       4.832   5.197  18.870  0.00  0.00    +0.000 HD
ENDROOT
BRANCH   2   5
ATOM      5  C   UNL     1       5.673   6.386  16.670  0.00  0.00    +0.000 C 
ATOM      6  C   UNL     1       5.507   5.241  15.680  0.00  0.00    +0.000 C 
ATOM      7  C   UNL     1       6.877   4.560  15.666  0.00  0.00    +0.000 C 
ATOM      8  C   UNL     1       7.364   4.798  17.066  0.00  0.00    +0.000 C 
ATOM      9  O   UNL     1       8.203   4.145  17.664  0.00  0.00    +0.000 OA
ATOM     10  N   UNL     1       6.721   5.912  17.543  0.00  0.00    +0.000 N 
ATOM     11  H   UNL     1       6.787   6.183  18.520  0.00  0.00    +0.000 HD
ENDBRANCH   2   5
BRANCH   1  12
ATOM     12  C   UNL     1       2.989   6.087  19.404  0.00  0.00    +0.000 C 
BRANCH  12  18
ATOM     13  C   UNL     1       1.852   3.832  19.030  0.00  0.00    +0.000 A 
ATOM     14  C   UNL     1       1.252   2.679  19.560  0.00  0.00    +0.000 A 
ATOM     15  C   UNL     1       1.277   2.430  20.933  0.00  0.00    +0.000 A 
ATOM     16  C   UNL     1       1.888   3.335  21.789  0.00  0.00    +0.000 A 
ATOM     17  C   UNL     1       2.450   4.506  21.275  0.00  0.00    +0.000 A 
ATOM     18  C   UNL     1       2.420   4.783  19.895  0.00  0.00    +0.000 A 
BRANCH  13  20
ATOM     19  C   UNL     1       2.685   3.240  16.904  0.00  0.00    +0.000 C 
ATOM     20  O   UNL     1       1.870   4.111  17.686  0.00  0.00    +0.000 OA
ENDBRANCH  13  20
ENDBRANCH  12  18
ENDBRANCH   1  12
TORSDOF 4
ENDMDL
MODEL 8
REMARK VINA RESULT:      -6.9      3.497      5.512
REMARK  Name = 
REMARK  5 active torsions:
REMARK  status: ('A' for Active; 'I' for Inactive)
REMARK    1  A    between atoms: C_1  and  O_2
REMARK    2  A    between atoms: O_2  and  C_3
REMARK    3  A    between atoms: C_8  and  C_9
REMARK    4  A    between atoms: C_9  and  N_10
REMARK    5  A    between atoms: C_11  and  C_13
REMARK                            x       y       z     vdW  Elec       q    Type
REMARK                         _______ _______ _______ _____ _____    ______ ____
ROOT
ATOM      1  N   UNL     1       6.072   3.648  14.801  0.00  0.00    +0.000 N 
ATOM      2  C   UNL     1       6.662   4.298  13.743  0.00  0.00    +0.000 C 
ATOM      3  O   UNL     1       7.437   5.244  13.896  0.00  0.00    +0.000 OA
ATOM      4  H   UNL     1       5.449   2.868  14.653  0.00  0.00    +0.000 HD
ENDROOT
BRANCH   2   5
ATOM      5  C   UNL     1       6.200   3.877  12.335  0.00  0.00    +0.000 C 
ATOM      6  C   UNL     1       4.703   3.671  12.143  0.00  0.00    +0.000 C 
ATOM      7  C   UNL     1       4.612   2.521  11.138  0.00  0.00    +0.000 C 
ATOM      8  C   UNL     1       5.844   1.723  11.454  0.00  0.00    +0.000 C 
ATOM      9  O   UNL     1       6.029   0.543  11.212  0.00  0.00    +0.000 OA
ATOM     10  N   UNL     1       6.749   2.576  12.037  0.00  0.00    +0.000 N 
ATOM     11  H   UNL     1       7.603   2.229  12.463  0.00  0.00    +0.000 HD
ENDBRANCH   2   5
BRANCH   1  12
ATOM     12  C   UNL     1       6.337   4.043  16.171  0.00  0.00    +0.000 C 
BRANCH  12  18
ATOM     13  C   UNL     1       4.059   4.108  17.322  0.00  0.00    +0.000 A 
ATOM     14  C   UNL     1       2.979   4.853  17.819  0.00  0.00    +0.000 A 
ATOM     15  C   UNL     1       3.041   6.246  17.882  0.00  0.00    +0.000 A 
ATOM     16  C   UNL     1       4.176   6.908  17.435  0.00  0.00    +0.000 A 
ATOM     17  C   UNL     1       5.239   6.178  16.898  0.00  0.00    +0.000 A 
ATOM     18  C   UNL     1       5.188   4.773  16.812  0.00  0.00    +0.000 A 
BRANCH  13  20
ATOM     19  C   UNL     1       3.028   2.107  18.025  0.00  0.00    +0.000 C 
ATOM     20  O   UNL     1       4.052   2.737  17.258  0.00  0.00    +0.000 OA
ENDBRANCH  13  20
ENDBRANCH  12  18
ENDBRANCH   1  12
TORSDOF 4
ENDMDL
MODEL 9
REMARK VINA RESULT:      -6.9      2.266      3.388
REMARK  Name = 
REMARK  5 active torsions:
REMARK  status: ('A' for Active; 'I' for Inactive)
REMARK    1  A    between atoms: C_1  and  O_2
REMARK    2  A    between atoms: O_2  and  C_3
REMARK    3  A    between atoms: C_8  and  C_9
REMARK    4  A    between atoms: C_9  and  N_10
REMARK    5  A    between atoms: C_11  and  C_13
REMARK                            x       y       z     vdW  Elec       q    Type
REMARK                         _______ _______ _______ _____ _____    ______ ____
ROOT
ATOM      1  N   UNL     1       5.158   4.918  17.993  0.00  0.00    +0.000 N 
ATOM      2  C   UNL     1       4.728   5.765  16.998  0.00  0.00    +0.000 C 
ATOM      3  O   UNL     1       4.051   6.769  17.230  0.00  0.00    +0.000 OA
ATOM      4  H   UNL     1       5.721   4.108  17.781  0.00  0.00    +0.000 HD
ENDROOT
BRANCH   2   5
ATOM      5  C   UNL     1       5.016   5.325  15.550  0.00  0.00    +0.000 C 
ATOM      6  C   UNL     1       5.347   3.854  15.338  0.00  0.00    +0.000 C 
ATOM      7  C   UNL     1       6.367   3.862  14.198  0.00  0.00    +0.000 C 
ATOM      8  C   UNL     1       7.070   5.172  14.410  0.00  0.00    +0.000 C 
ATOM      9  O   UNL     1       8.187   5.469  14.022  0.00  0.00    +0.000 OA
ATOM     10  N   UNL     1       6.209   5.996  15.091  0.00  0.00    +0.000 N 
ATOM     11  H   UNL     1       6.518   6.887  15.468  0.00  0.00    +0.000 HD
ENDBRANCH   2   5
BRANCH   1  12
ATOM     12  C   UNL     1       4.837   5.167  19.385  0.00  0.00    +0.000 C 
BRANCH  12  18
ATOM     13  C   UNL     1       3.184   3.247  19.702  0.00  0.00    +0.000 A 
ATOM     14  C   UNL     1       1.886   2.809  20.008  0.00  0.00    +0.000 A 
ATOM     15  C   UNL     1       0.922   3.705  20.472  0.00  0.00    +0.000 A 
ATOM     16  C   UNL     1       1.241   5.047  20.622  0.00  0.00    +0.000 A 
ATOM     17  C   UNL     1       2.517   5.500  20.279  0.00  0.00    +0.000 A 
ATOM     18  C   UNL     1       3.498   4.614  19.794  0.00  0.00    +0.000 A 
BRANCH  13  20
ATOM     19  C   UNL     1       3.713   1.315  18.458  0.00  0.00    +0.000 C 
ATOM     20  O   UNL     1       4.171   2.401  19.260  0.00  0.00    +0.000 OA
ENDBRANCH  13  20
ENDBRANCH  12  18
ENDBRANCH   1  12
TORSDOF 4
ENDMDL
