MODEL 1
REMARK VINA RESULT:      -8.1      0.000      0.000
REMARK  Name = 
REMARK  8 active torsions:
REMARK  status: ('A' for Active; 'I' for Inactive)
REMARK    1  A    between atoms: C_2  and  N_3
REMARK    2  A    between atoms: C_2  and  N_23
REMARK    3  A    between atoms: N_3  and  C_4
REMARK    4  A    between atoms: C_4  and  C_5
REMARK    5  A    between atoms: C_5  and  C_6
REMARK    6  A    between atoms: N_9  and  C_10
REMARK    7  A    between atoms: C_10  and  C_11
REMARK    8  A    between atoms: N_23  and  C_24
REMARK                            x       y       z     vdW  Elec       q    Type
REMARK                         _______ _______ _______ _____ _____    ______ ____
ROOT
ATOM      1  C   UNL     1       0.700  10.535  19.168  0.00  0.00    +0.000 C 
ATOM      2  C   UNL     1       1.764  10.252  18.086  0.00  0.00    +0.000 C 
ATOM      3  C   UNL     1       2.061   8.761  17.828  0.00  0.00    +0.000 C 
ATOM      4  N   UNL     1       2.374   7.968  19.025  0.00  0.00    +0.000 NA
ATOM      5  C   UNL     1       1.477   8.261  20.151  0.00  0.00    +0.000 C 
ATOM      6  C   UNL     1       1.072   9.711  20.406  0.00  0.00    +0.000 C 
ENDROOT
BRANCH   1   7
ATOM      7  C   UNL     1      -0.757  10.437  18.606  0.00  0.00    +0.000 C 
BRANCH   7   8
ATOM      8  C   UNL     1      -1.495  11.770  18.323  0.00  0.00    +0.000 C 
BRANCH   8   9
ATOM      9  N   UNL     1      -2.066  11.908  16.959  0.00  0.00    +0.000 N 
ATOM     10  H   UNL     1      -1.830  12.786  16.510  0.00  0.00    +0.000 HD
BRANCH   9  12
ATOM     11  S   UNL     1      -3.473  10.108  15.504  0.00  0.00    +0.000 S 
ATOM     12  C   UNL     1      -3.260  11.425  16.492  0.00  0.00    +0.000 C 
BRANCH  12  13
ATOM     13  N   UNL     1      -4.406  12.022  16.936  0.00  0.00    +0.000 N 
ATOM     14  H   UNL     1      -4.633  12.867  16.419  0.00  0.00    +0.000 HD
BRANCH  13  15
ATOM     15  C   UNL     1      -5.228  11.765  18.046  0.00  0.00    +0.000 A 
ATOM     16  C   UNL     1      -6.119  10.691  18.083  0.00  0.00    +0.000 A 
ATOM     17  C   UNL     1      -6.876  10.434  19.222  0.00  0.00    +0.000 A 
ATOM     18  C   UNL     1      -6.756  11.273  20.339  0.00  0.00    +0.000 A 
ATOM     19  C   UNL     1      -5.836  12.321  20.326  0.00  0.00    +0.000 A 
ATOM     20  C   UNL     1      -5.062  12.560  19.188  0.00  0.00    +0.000 A 
ENDBRANCH  13  15
ENDBRANCH  12  13
ENDBRANCH   9  12
ENDBRANCH   8   9
ENDBRANCH   7   8
ENDBRANCH   1   7
BRANCH   4  21
ATOM     21  C   UNL     1       2.513   6.493  18.687  0.00  0.00    +0.000 C 
BRANCH  21  22
ATOM     22  C   UNL     1       3.966   5.914  18.425  0.00  0.00    +0.000 C 
ATOM     23  C   UNL     1       4.264   5.189  17.089  0.00  0.00    +0.000 C 
ATOM     24  O   UNL     1       3.708   3.871  16.926  0.00  0.00    +0.000 OA
ATOM     25  C   UNL     1       3.247   3.326  18.090  0.00  0.00    +0.000 A 
ATOM     26  C   UNL     1       2.356   2.262  17.987  0.00  0.00    +0.000 A 
ATOM     27  C   UNL     1       1.587   1.899  19.097  0.00  0.00    +0.000 A 
ATOM     28  C   UNL     1       1.763   2.559  20.310  0.00  0.00    +0.000 A 
ATOM     29  C   UNL     1       2.768   3.516  20.442  0.00  0.00    +0.000 A 
ATOM     30  C   UNL     1       3.504   3.895  19.332  0.00  0.00    +0.000 A 
ATOM     31  O   UNL     1       4.331   4.981  19.460  0.00  0.00    +0.000 OA
ENDBRANCH  21  22
ENDBRANCH   4  21
TORSDOF 8
ENDMDL
MODEL 2
REMARK VINA RESULT:      -7.8      4.202      6.250
REMARK  Name = 
REMARK  8 active torsions:
REMARK  status: ('A' for Active; 'I' for Inactive)
REMARK    1  A    between atoms: C_2  and  N_3
REMARK    2  A    between atoms: C_2  and  N_23
REMARK    3  A    between atoms: N_3  and  C_4
REMARK    4  A    between atoms: C_4  and  C_5
REMARK    5  A    between atoms: C_5  and  C_6
REMARK    6  A    between atoms: N_9  and  C_10
REMARK    7  A    between atoms: C_10  and  C_11
REMARK    8  A    between atoms: N_23  and  C_24
REMARK                            x       y       z     vdW  Elec       q    Type
REMARK                         _______ _______ _______ _____ _____    ______ ____
ROOT
ATOM      1  C   UNL     1       2.518   3.069  20.079  0.00  0.00    +0.000 C 
ATOM      2  C   UNL     1       4.032   3.206  19.812  0.00  0.00    +0.000 C 
ATOM      3  C   UNL     1       4.443   4.423  18.958  0.00  0.00    +0.000 C 
ATOM      4  N   UNL     1       3.718   4.571  17.688  0.00  0.00    +0.000 NA
ATOM      5  C   UNL     1       2.274   4.340  17.829  0.00  0.00    +0.000 C 
ATOM      6  C   UNL     1       1.798   3.205  18.732  0.00  0.00    +0.000 C 
ENDROOT
BRANCH   1   7
ATOM      7  C   UNL     1       2.046   3.956  21.280  0.00  0.00    +0.000 C 
BRANCH   7   8
ATOM      8  C   UNL     1       1.349   5.297  20.935  0.00  0.00    +0.000 C 
BRANCH   8   9
ATOM      9  N   UNL     1       2.230   6.343  20.356  0.00  0.00    +0.000 N 
ATOM     10  H   UNL     1       3.217   6.175  20.517  0.00  0.00    +0.000 HD
BRANCH   9  12
ATOM     11  S   UNL     1       1.760   8.523  18.817  0.00  0.00    +0.000 S 
ATOM     12  C   UNL     1       1.977   7.685  20.234  0.00  0.00    +0.000 C 
BRANCH  12  13
ATOM     13  N   UNL     1       1.801   8.407  21.381  0.00  0.00    +0.000 N 
ATOM     14  H   UNL     1       2.405   8.094  22.137  0.00  0.00    +0.000 HD
BRANCH  13  15
ATOM     15  C   UNL     1       0.857   9.383  21.739  0.00  0.00    +0.000 A 
ATOM     16  C   UNL     1      -0.040   9.204  22.794  0.00  0.00    +0.000 A 
ATOM     17  C   UNL     1      -0.923  10.216  23.155  0.00  0.00    +0.000 A 
ATOM     18  C   UNL     1      -0.924  11.424  22.443  0.00  0.00    +0.000 A 
ATOM     19  C   UNL     1      -0.002  11.627  21.417  0.00  0.00    +0.000 A 
ATOM     20  C   UNL     1       0.898  10.616  21.073  0.00  0.00    +0.000 A 
ENDBRANCH  13  15
ENDBRANCH  12  13
ENDBRANCH   9  12
ENDBRANCH   8   9
ENDBRANCH   7   8
ENDBRANCH   1   7
BRANCH   4  21
ATOM     21  C   UNL     1       4.092   5.867  16.989  0.00  0.00    +0.000 C 
BRANCH  21  22
ATOM     22  C   UNL     1       4.979   5.786  15.677  0.00  0.00    +0.000 C 
ATOM     23  C   UNL     1       5.559   4.419  15.238  0.00  0.00    +0.000 C 
ATOM     24  O   UNL     1       6.656   3.899  16.011  0.00  0.00    +0.000 OA
ATOM     25  C   UNL     1       7.225   4.822  16.841  0.00  0.00    +0.000 A 
ATOM     26  C   UNL     1       8.001   4.344  17.891  0.00  0.00    +0.000 A 
ATOM     27  C   UNL     1       8.310   5.192  18.960  0.00  0.00    +0.000 A 
ATOM     28  C   UNL     1       7.894   6.520  18.935  0.00  0.00    +0.000 A 
ATOM     29  C   UNL     1       7.253   7.028  17.806  0.00  0.00    +0.000 A 
ATOM     30  C   UNL     1       6.921   6.177  16.766  0.00  0.00    +0.000 A 
ATOM     31  O   UNL     1       6.110   6.671  15.776  0.00  0.00    +0.000 OA
ENDBRANCH  21  22
ENDBRANCH   4  21
TORSDOF 8
ENDMDL
MODEL 3
REMARK VINA RESULT:      -7.8      3.969     10.028
REMARK  Name = 
REMARK  8 active torsions:
REMARK  status: ('A' for Active; 'I' for Inactive)
REMARK    1  A    between atoms: C_2  and  N_3
REMARK    2  A    between atoms: C_2  and  N_23
REMARK    3  A    between atoms: N_3  and  C_4
REMARK    4  A    between atoms: C_4  and  C_5
REMARK    5  A    between atoms: C_5  and  C_6
REMARK    6  A    between atoms: N_9  and  C_10
REMARK    7  A    between atoms: C_10  and  C_11
REMARK    8  A    between atoms: N_23  and  C_24
REMARK                            x       y       z     vdW  Elec       q    Type
REMARK                         _______ _______ _______ _____ _____    ______ ____
ROOT
ATOM      1  C   UNL     1       2.603   7.102  18.608  0.00  0.00    +0.000 C 
ATOM      2  C   UNL     1       2.271   7.434  20.078  0.00  0.00    +0.000 C 
ATOM      3  C   UNL     1       1.010   8.295  20.290  0.00  0.00    +0.000 C 
ATOM      4  N   UNL     1       0.956   9.532  19.497  0.00  0.00    +0.000 NA
ATOM      5  C   UNL     1       1.371   9.330  18.103  0.00  0.00    +0.000 C 
ATOM      6  C   UNL     1       2.560   8.415  17.818  0.00  0.00    +0.000 C 
ENDROOT
BRANCH   1   7
ATOM      7  C   UNL     1       1.787   5.875  18.078  0.00  0.00    +0.000 C 
BRANCH   7   8
ATOM      8  C   UNL     1       2.097   4.495  18.711  0.00  0.00    +0.000 C 
BRANCH   8   9
ATOM      9  N   UNL     1       3.447   4.359  19.316  0.00  0.00    +0.000 N 
ATOM     10  H   UNL     1       3.909   5.247  19.477  0.00  0.00    +0.000 HD
BRANCH   9  12
ATOM     11  S   UNL     1       4.070   1.727  19.149  0.00  0.00    +0.000 S 
ATOM     12  C   UNL     1       4.364   3.361  19.113  0.00  0.00    +0.000 C 
BRANCH  12  13
ATOM     13  N   UNL     1       5.635   3.725  18.764  0.00  0.00    +0.000 N 
ATOM     14  H   UNL     1       6.314   2.987  18.935  0.00  0.00    +0.000 HD
BRANCH  13  15
ATOM     15  C   UNL     1       6.181   4.953  18.358  0.00  0.00    +0.000 A 
ATOM     16  C   UNL     1       7.302   5.513  18.974  0.00  0.00    +0.000 A 
ATOM     17  C   UNL     1       7.848   6.704  18.507  0.00  0.00    +0.000 A 
ATOM     18  C   UNL     1       7.258   7.359  17.417  0.00  0.00    +0.000 A 
ATOM     19  C   UNL     1       6.165   6.784  16.769  0.00  0.00    +0.000 A 
ATOM     20  C   UNL     1       5.634   5.576  17.227  0.00  0.00    +0.000 A 
ENDBRANCH  13  15
ENDBRANCH  12  13
ENDBRANCH   9  12
ENDBRANCH   8   9
ENDBRANCH   7   8
ENDBRANCH   1   7
BRANCH   4  21
ATOM     21  C   UNL     1      -0.379  10.237  19.669  0.00  0.00    +0.000 C 
BRANCH  21  22
ATOM     22  C   UNL     1      -0.421  11.816  19.526  0.00  0.00    +0.000 C 
ATOM     23  C   UNL     1      -1.380  12.634  20.426  0.00  0.00    +0.000 C 
ATOM     24  O   UNL     1      -2.783  12.568  20.111  0.00  0.00    +0.000 OA
ATOM     25  C   UNL     1      -3.042  12.031  18.882  0.00  0.00    +0.000 A 
ATOM     26  C   UNL     1      -4.331  11.564  18.648  0.00  0.00    +0.000 A 
ATOM     27  C   UNL     1      -4.565  10.701  17.573  0.00  0.00    +0.000 A 
ATOM     28  C   UNL     1      -3.524  10.369  16.710  0.00  0.00    +0.000 A 
ATOM     29  C   UNL     1      -2.275  10.967  16.862  0.00  0.00    +0.000 A 
ATOM     30  C   UNL     1      -2.040  11.795  17.947  0.00  0.00    +0.000 A 
ATOM     31  O   UNL     1      -0.747  12.191  18.174  0.00  0.00    +0.000 OA
ENDBRANCH  21  22
ENDBRANCH   4  21
TORSDOF 8
ENDMDL
MODEL 4
REMARK VINA RESULT:      -7.8      4.222     10.074
REMARK  Name = 
REMARK  8 active torsions:
REMARK  status: ('A' for Active; 'I' for Inactive)
REMARK    1  A    between atoms: C_2  and  N_3
REMARK    2  A    between atoms: C_2  and  N_23
REMARK    3  A    between atoms: N_3  and  C_4
REMARK    4  A    between atoms: C_4  and  C_5
REMARK    5  A    between atoms: C_5  and  C_6
REMARK    6  A    between atoms: N_9  and  C_10
REMARK    7  A    between atoms: C_10  and  C_11
REMARK    8  A    between atoms: N_23  and  C_24
REMARK                            x       y       z     vdW  Elec       q    Type
REMARK                         _______ _______ _______ _____ _____    ______ ____
ROOT
ATOM      1  C   UNL     1       2.870   6.757  18.726  0.00  0.00    +0.000 C 
ATOM      2  C   UNL     1       2.358   7.361  20.051  0.00  0.00    +0.000 C 
ATOM      3  C   UNL     1       1.211   8.381  19.909  0.00  0.00    +0.000 C 
ATOM      4  N   UNL     1       1.454   9.469  18.950  0.00  0.00    +0.000 NA
ATOM      5  C   UNL     1       2.053   8.996  17.696  0.00  0.00    +0.000 C 
ATOM      6  C   UNL     1       3.134   7.919  17.761  0.00  0.00    +0.000 C 
ENDROOT
BRANCH   1   7
ATOM      7  C   UNL     1       1.987   5.559  18.240  0.00  0.00    +0.000 C 
BRANCH   7   8
ATOM      8  C   UNL     1       1.771   4.393  19.237  0.00  0.00    +0.000 C 
BRANCH   8   9
ATOM      9  N   UNL     1       3.009   3.796  19.800  0.00  0.00    +0.000 N 
ATOM     10  H   UNL     1       3.475   4.394  20.475  0.00  0.00    +0.000 HD
BRANCH   9  12
ATOM     11  S   UNL     1       3.570   1.531  18.424  0.00  0.00    +0.000 S 
ATOM     12  C   UNL     1       3.909   2.973  19.175  0.00  0.00    +0.000 C 
BRANCH  12  13
ATOM     13  N   UNL     1       5.203   3.401  19.076  0.00  0.00    +0.000 N 
ATOM     14  H   UNL     1       5.823   2.923  19.726  0.00  0.00    +0.000 HD
BRANCH  13  15
ATOM     15  C   UNL     1       5.790   4.456  18.360  0.00  0.00    +0.000 A 
ATOM     16  C   UNL     1       5.448   4.744  17.037  0.00  0.00    +0.000 A 
ATOM     17  C   UNL     1       6.009   5.833  16.379  0.00  0.00    +0.000 A 
ATOM     18  C   UNL     1       6.941   6.642  17.044  0.00  0.00    +0.000 A 
ATOM     19  C   UNL     1       7.256   6.388  18.379  0.00  0.00    +0.000 A 
ATOM     20  C   UNL     1       6.671   5.307  19.042  0.00  0.00    +0.000 A 
ENDBRANCH  13  15
ENDBRANCH  12  13
ENDBRANCH   9  12
ENDBRANCH   8   9
ENDBRANCH   7   8
ENDBRANCH   1   7
BRANCH   4  21
ATOM     21  C   UNL     1       0.218  10.337  18.780  0.00  0.00    +0.000 C 
BRANCH  21  22
ATOM     22  C   UNL     1      -0.544  10.827  20.081  0.00  0.00    +0.000 C 
ATOM     23  C   UNL     1      -1.799  11.722  19.933  0.00  0.00    +0.000 C 
ATOM     24  O   UNL     1      -1.579  13.091  19.546  0.00  0.00    +0.000 OA
ATOM     25  C   UNL     1      -0.277  13.487  19.654  0.00  0.00    +0.000 A 
ATOM     26  C   UNL     1       0.105  14.624  18.950  0.00  0.00    +0.000 A 
ATOM     27  C   UNL     1       1.464  14.873  18.731  0.00  0.00    +0.000 A 
ATOM     28  C   UNL     1       2.422  14.021  19.272  0.00  0.00    +0.000 A 
ATOM     29  C   UNL     1       2.032  12.975  20.107  0.00  0.00    +0.000 A 
ATOM     30  C   UNL     1       0.686  12.713  20.293  0.00  0.00    +0.000 A 
ATOM     31  O   UNL     1       0.349  11.554  20.945  0.00  0.00    +0.000 OA
ENDBRANCH  21  22
ENDBRANCH   4  21
TORSDOF 8
ENDMDL
MODEL 5
REMARK VINA RESULT:      -7.8      6.894      9.507
REMARK  Name = 
REMARK  8 active torsions:
REMARK  status: ('A' for Active; 'I' for Inactive)
REMARK    1  A    between atoms: C_2  and  N_3
REMARK    2  A    between atoms: C_2  and  N_23
REMARK    3  A    between atoms: N_3  and  C_4
REMARK    4  A    between atoms: C_4  and  C_5
REMARK    5  A    between atoms: C_5  and  C_6
REMARK    6  A    between atoms: N_9  and  C_10
REMARK    7  A    between atoms: C_10  and  C_11
REMARK    8  A    between atoms: N_23  and  C_24
REMARK                            x       y       z     vdW  Elec       q    Type
REMARK                         _______ _______ _______ _____ _____    ______ ____
ROOT
ATOM      1  C   UNL     1       7.707   6.491  17.670  0.00  0.00    +0.000 C 
ATOM      2  C   UNL     1       7.226   5.816  16.369  0.00  0.00    +0.000 C 
ATOM      3  C   UNL     1       5.790   5.257  16.409  0.00  0.00    +0.000 C 
ATOM      4  N   UNL     1       5.493   4.372  17.544  0.00  0.00    +0.000 NA
ATOM      5  C   UNL     1       6.021   4.883  18.815  0.00  0.00    +0.000 C 
ATOM      6  C   UNL     1       7.404   5.531  18.827  0.00  0.00    +0.000 C 
ENDROOT
BRANCH   1   7
ATOM      7  C   UNL     1       7.230   7.978  17.779  0.00  0.00    +0.000 C 
BRANCH   7   8
ATOM      8  C   UNL     1       8.311   9.078  17.629  0.00  0.00    +0.000 C 
BRANCH   8   9
ATOM      9  N   UNL     1       8.817   9.654  18.901  0.00  0.00    +0.000 N 
ATOM     10  H   UNL     1       8.315   9.329  19.719  0.00  0.00    +0.000 HD
BRANCH   9  12
ATOM     11  S   UNL     1       9.386  12.151  18.016  0.00  0.00    +0.000 S 
ATOM     12  C   UNL     1       9.339  10.904  19.111  0.00  0.00    +0.000 C 
BRANCH  12  13
ATOM     13  N   UNL     1       9.797  11.200  20.364  0.00  0.00    +0.000 N 
ATOM     14  H   UNL     1      10.558  10.593  20.657  0.00  0.00    +0.000 HD
BRANCH  13  15
ATOM     15  C   UNL     1       9.321  12.076  21.354  0.00  0.00    +0.000 A 
ATOM     16  C   UNL     1       8.427  11.668  22.346  0.00  0.00    +0.000 A 
ATOM     17  C   UNL     1       8.022  12.549  23.343  0.00  0.00    +0.000 A 
ATOM     18  C   UNL     1       8.503  13.866  23.344  0.00  0.00    +0.000 A 
ATOM     19  C   UNL     1       9.430  14.268  22.383  0.00  0.00    +0.000 A 
ATOM     20  C   UNL     1       9.851  13.373  21.397  0.00  0.00    +0.000 A 
ENDBRANCH  13  15
ENDBRANCH  12  13
ENDBRANCH   9  12
ENDBRANCH   8   9
ENDBRANCH   7   8
ENDBRANCH   1   7
BRANCH   4  21
ATOM     21  C   UNL     1       4.023   3.987  17.572  0.00  0.00    +0.000 C 
BRANCH  21  22
ATOM     22  C   UNL     1       2.941   5.145  17.532  0.00  0.00    +0.000 C 
ATOM     23  C   UNL     1       3.067   6.335  18.516  0.00  0.00    +0.000 C 
ATOM     24  O   UNL     1       2.742   6.077  19.894  0.00  0.00    +0.000 OA
ATOM     25  C   UNL     1       2.082   4.897  20.088  0.00  0.00    +0.000 A 
ATOM     26  C   UNL     1       2.076   4.373  21.376  0.00  0.00    +0.000 A 
ATOM     27  C   UNL     1       1.738   3.030  21.570  0.00  0.00    +0.000 A 
ATOM     28  C   UNL     1       1.350   2.247  20.486  0.00  0.00    +0.000 A 
ATOM     29  C   UNL     1       1.209   2.825  19.226  0.00  0.00    +0.000 A 
ATOM     30  C   UNL     1       1.576   4.146  19.033  0.00  0.00    +0.000 A 
ATOM     31  O   UNL     1       1.621   4.610  17.743  0.00  0.00    +0.000 OA
ENDBRANCH  21  22
ENDBRANCH   4  21
TORSDOF 8
ENDMDL
MODEL 6
REMARK VINA RESULT:      -7.7      4.554      9.370
REMARK  Name = 
REMARK  8 active torsions:
REMARK  status: ('A' for Active; 'I' for Inactive)
REMARK    1  A    between atoms: C_2  and  N_3
REMARK    2  A    between atoms: C_2  and  N_23
REMARK    3  A    between atoms: N_3  and  C_4
REMARK    4  A    between atoms: C_4  and  C_5
REMARK    5  A    between atoms: C_5  and  C_6
REMARK    6  A    between atoms: N_9  and  C_10
REMARK    7  A    between atoms: C_10  and  C_11
REMARK    8  A    between atoms: N_23  and  C_24
REMARK                            x       y       z     vdW  Elec       q    Type
REMARK                         _______ _______ _______ _____ _____    ______ ____
ROOT
ATOM      1  C   UNL     1       2.517   7.024  18.197  0.00  0.00    +0.000 C 
ATOM      2  C   UNL     1       1.769   8.298  17.752  0.00  0.00    +0.000 C 
ATOM      3  C   UNL     1       1.687   9.417  18.809  0.00  0.00    +0.000 C 
ATOM      4  N   UNL     1       1.181   9.002  20.124  0.00  0.00    +0.000 NA
ATOM      5  C   UNL     1       1.757   7.729  20.577  0.00  0.00    +0.000 C 
ATOM      6  C   UNL     1       1.947   6.607  19.559  0.00  0.00    +0.000 C 
ENDROOT
BRANCH   1   7
ATOM      7  C   UNL     1       4.068   7.161  18.039  0.00  0.00    +0.000 C 
BRANCH   7   8
ATOM      8  C   UNL     1       4.660   6.884  16.633  0.00  0.00    +0.000 C 
BRANCH   8   9
ATOM      9  N   UNL     1       4.931   5.457  16.324  0.00  0.00    +0.000 N 
ATOM     10  H   UNL     1       4.190   5.010  15.795  0.00  0.00    +0.000 HD
BRANCH   9  12
ATOM     11  S   UNL     1       7.144   4.698  17.690  0.00  0.00    +0.000 S 
ATOM     12  C   UNL     1       5.604   4.541  17.091  0.00  0.00    +0.000 C 
BRANCH  12  13
ATOM     13  N   UNL     1       4.930   3.418  17.480  0.00  0.00    +0.000 N 
ATOM     14  H   UNL     1       5.275   2.577  17.025  0.00  0.00    +0.000 HD
BRANCH  13  15
ATOM     15  C   UNL     1       3.780   3.240  18.266  0.00  0.00    +0.000 A 
ATOM     16  C   UNL     1       3.832   3.140  19.657  0.00  0.00    +0.000 A 
ATOM     17  C   UNL     1       2.666   3.020  20.406  0.00  0.00    +0.000 A 
ATOM     18  C   UNL     1       1.425   2.982  19.756  0.00  0.00    +0.000 A 
ATOM     19  C   UNL     1       1.360   3.125  18.370  0.00  0.00    +0.000 A 
ATOM     20  C   UNL     1       2.533   3.268  17.626  0.00  0.00    +0.000 A 
ENDBRANCH  13  15
ENDBRANCH  12  13
ENDBRANCH   9  12
ENDBRANCH   8   9
ENDBRANCH   7   8
ENDBRANCH   1   7
BRANCH   4  21
ATOM     21  C   UNL     1       1.269  10.137  21.131  0.00  0.00    +0.000 C 
BRANCH  21  22
ATOM     22  C   UNL     1      -0.024  11.016  21.390  0.00  0.00    +0.000 C 
ATOM     23  C   UNL     1      -1.065  11.186  20.255  0.00  0.00    +0.000 C 
ATOM     24  O   UNL     1      -0.699  12.045  19.160  0.00  0.00    +0.000 OA
ATOM     25  C   UNL     1       0.392  12.824  19.418  0.00  0.00    +0.000 A 
ATOM     26  C   UNL     1       1.054  13.378  18.328  0.00  0.00    +0.000 A 
ATOM     27  C   UNL     1       2.351  13.876  18.490  0.00  0.00    +0.000 A 
ATOM     28  C   UNL     1       2.943  13.873  19.750  0.00  0.00    +0.000 A 
ATOM     29  C   UNL     1       2.212  13.461  20.862  0.00  0.00    +0.000 A 
ATOM     30  C   UNL     1       0.941  12.938  20.691  0.00  0.00    +0.000 A 
ATOM     31  O   UNL     1       0.344  12.353  21.778  0.00  0.00    +0.000 OA
ENDBRANCH  21  22
ENDBRANCH   4  21
TORSDOF 8
ENDMDL
MODEL 7
REMARK VINA RESULT:      -7.6      2.368      2.870
REMARK  Name = 
REMARK  8 active torsions:
REMARK  status: ('A' for Active; 'I' for Inactive)
REMARK    1  A    between atoms: C_2  and  N_3
REMARK    2  A    between atoms: C_2  and  N_23
REMARK    3  A    between atoms: N_3  and  C_4
REMARK    4  A    between atoms: C_4  and  C_5
REMARK    5  A    between atoms: C_5  and  C_6
REMARK    6  A    between atoms: N_9  and  C_10
REMARK    7  A    between atoms: C_10  and  C_11
REMARK    8  A    between atoms: N_23  and  C_24
REMARK                            x       y       z     vdW  Elec       q    Type
REMARK                         _______ _______ _______ _____ _____    ______ ____
ROOT
ATOM      1  C   UNL     1       0.682  10.474  18.786  0.00  0.00    +0.000 C 
ATOM      2  C   UNL     1       1.894  10.039  17.935  0.00  0.00    +0.000 C 
ATOM      3  C   UNL     1       2.215   8.531  17.969  0.00  0.00    +0.000 C 
ATOM      4  N   UNL     1       2.340   7.948  19.312  0.00  0.00    +0.000 NA
ATOM      5  C   UNL     1       1.287   8.403  20.229  0.00  0.00    +0.000 C 
ATOM      6  C   UNL     1       0.859   9.868  20.183  0.00  0.00    +0.000 C 
ENDROOT
BRANCH   1   7
ATOM      7  C   UNL     1      -0.676  10.261  18.037  0.00  0.00    +0.000 C 
BRANCH   7   8
ATOM      8  C   UNL     1      -1.748  11.370  18.192  0.00  0.00    +0.000 C 
BRANCH   8   9
ATOM      9  N   UNL     1      -1.267  12.758  17.977  0.00  0.00    +0.000 N 
ATOM     10  H   UNL     1      -0.825  12.897  17.075  0.00  0.00    +0.000 HD
BRANCH   9  12
ATOM     11  S   UNL     1       0.750  14.311  18.904  0.00  0.00    +0.000 S 
ATOM     12  C   UNL     1      -0.764  13.630  18.907  0.00  0.00    +0.000 C 
BRANCH  12  13
ATOM     13  N   UNL     1      -1.602  14.058  19.898  0.00  0.00    +0.000 N 
ATOM     14  H   UNL     1      -1.856  15.038  19.800  0.00  0.00    +0.000 HD
BRANCH  13  15
ATOM     15  C   UNL     1      -2.049  13.443  21.079  0.00  0.00    +0.000 A 
ATOM     16  C   UNL     1      -3.371  13.537  21.517  0.00  0.00    +0.000 A 
ATOM     17  C   UNL     1      -3.790  12.868  22.662  0.00  0.00    +0.000 A 
ATOM     18  C   UNL     1      -2.871  12.103  23.394  0.00  0.00    +0.000 A 
ATOM     19  C   UNL     1      -1.560  11.968  22.940  0.00  0.00    +0.000 A 
ATOM     20  C   UNL     1      -1.151  12.624  21.777  0.00  0.00    +0.000 A 
ENDBRANCH  13  15
ENDBRANCH  12  13
ENDBRANCH   9  12
ENDBRANCH   8   9
ENDBRANCH   7   8
ENDBRANCH   1   7
BRANCH   4  21
ATOM     21  C   UNL     1       2.517   6.440  19.242  0.00  0.00    +0.000 C 
BRANCH  21  22
ATOM     22  C   UNL     1       3.958   5.866  18.911  0.00  0.00    +0.000 C 
ATOM     23  C   UNL     1       4.261   5.358  17.479  0.00  0.00    +0.000 C 
ATOM     24  O   UNL     1       3.672   4.102  17.096  0.00  0.00    +0.000 OA
ATOM     25  C   UNL     1       3.172   3.390  18.149  0.00  0.00    +0.000 A 
ATOM     26  C   UNL     1       2.254   2.386  17.861  0.00  0.00    +0.000 A 
ATOM     27  C   UNL     1       1.453   1.872  18.887  0.00  0.00    +0.000 A 
ATOM     28  C   UNL     1       1.625   2.321  20.193  0.00  0.00    +0.000 A 
ATOM     29  C   UNL     1       2.654   3.211  20.494  0.00  0.00    +0.000 A 
ATOM     30  C   UNL     1       3.422   3.742  19.471  0.00  0.00    +0.000 A 
ATOM     31  O   UNL     1       4.277   4.767  19.785  0.00  0.00    +0.000 OA
ENDBRANCH  21  22
ENDBRANCH   4  21
TORSDOF 8
ENDMDL
MODEL 8
REMARK VINA RESULT:      -7.5      4.160     10.092
REMARK  Name = 
REMARK  8 active torsions:
REMARK  status: ('A' for Active; 'I' for Inactive)
REMARK    1  A    between atoms: C_2  and  N_3
REMARK    2  A    between atoms: C_2  and  N_23
REMARK    3  A    between atoms: N_3  and  C_4
REMARK    4  A    between atoms: C_4  and  C_5
REMARK    5  A    between atoms: C_5  and  C_6
REMARK    6  A    between atoms: N_9  and  C_10
REMARK    7  A    between atoms: C_10  and  C_11
REMARK    8  A    between atoms: N_23  and  C_24
REMARK                            x       y       z     vdW  Elec       q    Type
REMARK                         _______ _______ _______ _____ _____    ______ ____
ROOT
ATOM      1  C   UNL     1       2.699   6.294  19.259  0.00  0.00    +0.000 C 
ATOM      2  C   UNL     1       2.311   7.244  20.411  0.00  0.00    +0.000 C 
ATOM      3  C   UNL     1       1.329   8.370  20.034  0.00  0.00    +0.000 C 
ATOM      4  N   UNL     1       1.714   9.172  18.863  0.00  0.00    +0.000 NA
ATOM      5  C   UNL     1       2.210   8.350  17.751  0.00  0.00    +0.000 C 
ATOM      6  C   UNL     1       3.117   7.162  18.066  0.00  0.00    +0.000 C 
ENDROOT
BRANCH   1   7
ATOM      7  C   UNL     1       1.636   5.167  19.036  0.00  0.00    +0.000 C 
BRANCH   7   8
ATOM      8  C   UNL     1       1.725   3.922  19.955  0.00  0.00    +0.000 C 
BRANCH   8   9
ATOM      9  N   UNL     1       3.097   3.417  20.216  0.00  0.00    +0.000 N 
ATOM     10  H   UNL     1       3.611   3.976  20.889  0.00  0.00    +0.000 HD
BRANCH   9  12
ATOM     11  S   UNL     1       3.572   1.564  18.299  0.00  0.00    +0.000 S 
ATOM     12  C   UNL     1       3.950   2.802  19.338  0.00  0.00    +0.000 C 
BRANCH  12  13
ATOM     13  N   UNL     1       5.221   3.295  19.233  0.00  0.00    +0.000 N 
ATOM     14  H   UNL     1       5.866   2.857  19.885  0.00  0.00    +0.000 HD
BRANCH  13  15
ATOM     15  C   UNL     1       5.751   4.373  18.505  0.00  0.00    +0.000 A 
ATOM     16  C   UNL     1       6.678   5.261  19.054  0.00  0.00    +0.000 A 
ATOM     17  C   UNL     1       7.225   6.283  18.285  0.00  0.00    +0.000 A 
ATOM     18  C   UNL     1       6.828   6.434  16.949  0.00  0.00    +0.000 A 
ATOM     19  C   UNL     1       5.936   5.525  16.380  0.00  0.00    +0.000 A 
ATOM     20  C   UNL     1       5.408   4.487  17.151  0.00  0.00    +0.000 A 
ENDBRANCH  13  15
ENDBRANCH  12  13
ENDBRANCH   9  12
ENDBRANCH   8   9
ENDBRANCH   7   8
ENDBRANCH   1   7
BRANCH   4  21
ATOM     21  C   UNL     1       0.621  10.159  18.489  0.00  0.00    +0.000 C 
BRANCH  21  22
ATOM     22  C   UNL     1      -0.517  10.460  19.552  0.00  0.00    +0.000 C 
ATOM     23  C   UNL     1      -1.810  11.180  19.094  0.00  0.00    +0.000 C 
ATOM     24  O   UNL     1      -1.705  12.587  18.807  0.00  0.00    +0.000 OA
ATOM     25  C   UNL     1      -0.549  13.152  19.265  0.00  0.00    +0.000 A 
ATOM     26  C   UNL     1      -0.172  14.371  18.711  0.00  0.00    +0.000 A 
ATOM     27  C   UNL     1       1.144  14.819  18.866  0.00  0.00    +0.000 A 
ATOM     28  C   UNL     1       2.045  14.077  19.624  0.00  0.00    +0.000 A 
ATOM     29  C   UNL     1       1.613  12.940  20.304  0.00  0.00    +0.000 A 
ATOM     30  C   UNL     1       0.319  12.482  20.120  0.00  0.00    +0.000 A 
ATOM     31  O   UNL     1       0.002  11.252  20.636  0.00  0.00    +0.000 OA
ENDBRANCH  21  22
ENDBRANCH   4  21
TORSDOF 8
ENDMDL
MODEL 9
REMARK VINA RESULT:      -7.5      2.147      2.482
REMARK  Name = 
REMARK  8 active torsions:
REMARK  status: ('A' for Active; 'I' for Inactive)
REMARK    1  A    between atoms: C_2  and  N_3
REMARK    2  A    between atoms: C_2  and  N_23
REMARK    3  A    between atoms: N_3  and  C_4
REMARK    4  A    between atoms: C_4  and  C_5
REMARK    5  A    between atoms: C_5  and  C_6
REMARK    6  A    between atoms: N_9  and  C_10
REMARK    7  A    between atoms: C_10  and  C_11
REMARK    8  A    between atoms: N_23  and  C_24
REMARK                            x       y       z     vdW  Elec       q    Type
REMARK                         _______ _______ _______ _____ _____    ______ ____
ROOT
ATOM      1  C   UNL     1       0.569  10.428  19.285  0.00  0.00    +0.000 C 
ATOM      2  C   UNL     1       1.666  10.385  18.201  0.00  0.00    +0.000 C 
ATOM      3  C   UNL     1       2.065   8.975  17.723  0.00  0.00    +0.000 C 
ATOM      4  N   UNL     1       2.410   8.025  18.790  0.00  0.00    +0.000 NA
ATOM      5  C   UNL     1       1.478   8.081  19.924  0.00  0.00    +0.000 C 
ATOM      6  C   UNL     1       0.974   9.445  20.391  0.00  0.00    +0.000 C 
ENDROOT
BRANCH   1   7
ATOM      7  C   UNL     1      -0.870  10.327  18.677  0.00  0.00    +0.000 C 
BRANCH   7   8
ATOM      8  C   UNL     1      -1.883  11.430  19.077  0.00  0.00    +0.000 C 
BRANCH   8   9
ATOM      9  N   UNL     1      -1.486  12.273  20.234  0.00  0.00    +0.000 N 
ATOM     10  H   UNL     1      -0.482  12.353  20.349  0.00  0.00    +0.000 HD
BRANCH   9  12
ATOM     11  S   UNL     1      -1.634  11.793  22.896  0.00  0.00    +0.000 S 
ATOM     12  C   UNL     1      -2.129  12.411  21.436  0.00  0.00    +0.000 C 
BRANCH  12  13
ATOM     13  N   UNL     1      -3.245  13.198  21.476  0.00  0.00    +0.000 N 
ATOM     14  H   UNL     1      -3.025  14.182  21.610  0.00  0.00    +0.000 HD
BRANCH  13  15
ATOM     15  C   UNL     1      -4.613  12.885  21.509  0.00  0.00    +0.000 A 
ATOM     16  C   UNL     1      -5.280  12.327  20.417  0.00  0.00    +0.000 A 
ATOM     17  C   UNL     1      -6.623  11.978  20.506  0.00  0.00    +0.000 A 
ATOM     18  C   UNL     1      -7.321  12.203  21.701  0.00  0.00    +0.000 A 
ATOM     19  C   UNL     1      -6.652  12.719  22.811  0.00  0.00    +0.000 A 
ATOM     20  C   UNL     1      -5.297  13.046  22.722  0.00  0.00    +0.000 A 
ENDBRANCH  13  15
ENDBRANCH  12  13
ENDBRANCH   9  12
ENDBRANCH   8   9
ENDBRANCH   7   8
ENDBRANCH   1   7
BRANCH   4  21
ATOM     21  C   UNL     1       2.652   6.633  18.231  0.00  0.00    +0.000 C 
BRANCH  21  22
ATOM     22  C   UNL     1       3.986   5.879  18.638  0.00  0.00    +0.000 C 
ATOM     23  C   UNL     1       4.632   4.888  17.639  0.00  0.00    +0.000 C 
ATOM     24  O   UNL     1       3.971   3.622  17.459  0.00  0.00    +0.000 OA
ATOM     25  C   UNL     1       3.034   3.355  18.416  0.00  0.00    +0.000 A 
ATOM     26  C   UNL     1       2.085   2.381  18.125  0.00  0.00    +0.000 A 
ATOM     27  C   UNL     1       0.915   2.311  18.888  0.00  0.00    +0.000 A 
ATOM     28  C   UNL     1       0.739   3.171  19.968  0.00  0.00    +0.000 A 
ATOM     29  C   UNL     1       1.765   4.035  20.345  0.00  0.00    +0.000 A 
ATOM     30  C   UNL     1       2.907   4.123  19.567  0.00  0.00    +0.000 A 
ATOM     31  O   UNL     1       3.793   5.130  19.853  0.00  0.00    +0.000 OA
ENDBRANCH  21  22
ENDBRANCH   4  21
TORSDOF 8
ENDMDL
