MODEL 1
REMARK VINA RESULT:      -7.6      0.000      0.000
REMARK  Name = 
REMARK  8 active torsions:
REMARK  status: ('A' for Active; 'I' for Inactive)
REMARK    1  A    between atoms: C_1  and  O_2
REMARK    2  A    between atoms: O_2  and  C_3
REMARK    3  A    between atoms: C_5  and  C_6
REMARK    4  A    between atoms: N_9  and  C_10
REMARK    5  A    between atoms: C_27  and  O_28
REMARK    6  A    between atoms: O_28  and  C_29
REMARK    7  A    between atoms: C_30  and  O_31
REMARK    8  A    between atoms: O_31  and  C_32
REMARK                            x       y       z     vdW  Elec       q    Type
REMARK                         _______ _______ _______ _____ _____    ______ ____
ROOT
ATOM      1  C   UNL     1      -2.651  12.251  19.772  0.00  0.00    +0.000 A 
ATOM      2  N   UNL     1      -3.876  12.664  19.454  0.00  0.00    +0.000 NA
ATOM      3  C   UNL     1      -4.425  12.206  18.326  0.00  0.00    +0.000 A 
ATOM      4  N   UNL     1      -5.818  12.471  18.170  0.00  0.00    +0.000 N 
ATOM      5  C   UNL     1      -3.714  11.419  17.411  0.00  0.00    +0.000 A 
ATOM      6  C   UNL     1      -4.183  11.062  16.107  0.00  0.00    +0.000 A 
ATOM      7  C   UNL     1      -3.474  10.156  15.330  0.00  0.00    +0.000 A 
ATOM      8  C   UNL     1      -2.311   9.600  15.839  0.00  0.00    +0.000 A 
ATOM      9  C   UNL     1      -1.827  10.010  17.094  0.00  0.00    +0.000 A 
ATOM     10  C   UNL     1      -2.489  10.949  17.883  0.00  0.00    +0.000 A 
ATOM     11  N   UNL     1      -1.952  11.350  19.060  0.00  0.00    +0.000 NA
ATOM     12  H   UNL     1      -6.159  11.913  17.389  0.00  0.00    +0.000 HD
ENDROOT
BRANCH   4  13
ATOM     13  C   UNL     1      -6.728  12.133  19.229  0.00  0.00    +0.000 A 
ATOM     14  C   UNL     1      -6.970  10.765  19.483  0.00  0.00    +0.000 A 
ATOM     15  C   UNL     1      -7.474  10.340  20.717  0.00  0.00    +0.000 A 
ATOM     16  C   UNL     1      -7.622  11.297  21.695  0.00  0.00    +0.000 A 
ATOM     17  C   UNL     1      -7.490  12.653  21.415  0.00  0.00    +0.000 A 
ATOM     18  C   UNL     1      -7.095  13.099  20.180  0.00  0.00    +0.000 A 
ATOM     19  N   UNL     1      -7.792  13.448  22.560  0.00  0.00    +0.000 N 
ATOM     20  C   UNL     1      -7.523  12.428  23.582  0.00  0.00    +0.000 C 
ATOM     21  N   UNL     1      -7.917  11.102  23.073  0.00  0.00    +0.000 N 
ATOM     22  H   UNL     1      -8.796  13.622  22.534  0.00  0.00    +0.000 HD
ATOM     23  H   UNL     1      -8.920  10.977  23.168  0.00  0.00    +0.000 HD
ENDBRANCH   4  13
BRANCH   1  26
ATOM     24  C   UNL     1      -0.307  13.970  22.281  0.00  0.00    +0.000 A 
ATOM     25  C   UNL     1      -0.787  13.371  21.085  0.00  0.00    +0.000 A 
ATOM     26  C   UNL     1      -2.099  12.902  20.976  0.00  0.00    +0.000 A 
ATOM     27  C   UNL     1      -2.920  13.044  22.107  0.00  0.00    +0.000 A 
ATOM     28  C   UNL     1      -2.480  13.647  23.288  0.00  0.00    +0.000 A 
ATOM     29  C   UNL     1      -1.156  14.107  23.403  0.00  0.00    +0.000 A 
BRANCH  24  31
ATOM     30  C   UNL     1       1.425  15.385  21.447  0.00  0.00    +0.000 C 
ATOM     31  O   UNL     1       0.988  14.411  22.390  0.00  0.00    +0.000 OA
ENDBRANCH  24  31
BRANCH  28  32
ATOM     32  O   UNL     1      -3.455  13.650  24.256  0.00  0.00    +0.000 OA
ATOM     33  C   UNL     1      -4.162  12.437  24.475  0.00  0.00    +0.000 C 
ENDBRANCH  28  32
BRANCH  29  34
ATOM     34  O   UNL     1      -0.871  14.709  24.595  0.00  0.00    +0.000 OA
ATOM     35  C   UNL     1      -1.004  16.097  24.830  0.00  0.00    +0.000 C 
ENDBRANCH  29  34
ENDBRANCH   1  26
TORSDOF 5
ENDMDL
MODEL 2
REMARK VINA RESULT:      -7.6      8.656     11.909
REMARK  Name = 
REMARK  8 active torsions:
REMARK  status: ('A' for Active; 'I' for Inactive)
REMARK    1  A    between atoms: C_1  and  O_2
REMARK    2  A    between atoms: O_2  and  C_3
REMARK    3  A    between atoms: C_5  and  C_6
REMARK    4  A    between atoms: N_9  and  C_10
REMARK    5  A    between atoms: C_27  and  O_28
REMARK    6  A    between atoms: O_28  and  C_29
REMARK    7  A    between atoms: C_30  and  O_31
REMARK    8  A    between atoms: O_31  and  C_32
REMARK                            x       y       z     vdW  Elec       q    Type
REMARK                         _______ _______ _______ _____ _____    ______ ____
ROOT
ATOM      1  C   UNL     1       4.286   4.531  18.052  0.00  0.00    +0.000 A 
ATOM      2  N   UNL     1       3.226   5.332  17.973  0.00  0.00    +0.000 NA
ATOM      3  C   UNL     1       2.238   5.165  18.857  0.00  0.00    +0.000 A 
ATOM      4  N   UNL     1       1.261   6.204  18.889  0.00  0.00    +0.000 N 
ATOM      5  C   UNL     1       2.222   4.104  19.772  0.00  0.00    +0.000 A 
ATOM      6  C   UNL     1       1.111   3.766  20.607  0.00  0.00    +0.000 A 
ATOM      7  C   UNL     1       1.240   2.792  21.587  0.00  0.00    +0.000 A 
ATOM      8  C   UNL     1       2.463   2.158  21.748  0.00  0.00    +0.000 A 
ATOM      9  C   UNL     1       3.526   2.454  20.877  0.00  0.00    +0.000 A 
ATOM     10  C   UNL     1       3.419   3.395  19.854  0.00  0.00    +0.000 A 
ATOM     11  N   UNL     1       4.457   3.602  19.009  0.00  0.00    +0.000 NA
ATOM     12  H   UNL     1       0.687   6.069  19.720  0.00  0.00    +0.000 HD
ENDROOT
BRANCH   4  13
ATOM     13  C   UNL     1       1.684   7.572  19.008  0.00  0.00    +0.000 A 
ATOM     14  C   UNL     1       2.030   8.263  17.827  0.00  0.00    +0.000 A 
ATOM     15  C   UNL     1       2.034   9.662  17.786  0.00  0.00    +0.000 A 
ATOM     16  C   UNL     1       1.589  10.322  18.910  0.00  0.00    +0.000 A 
ATOM     17  C   UNL     1       1.354   9.649  20.105  0.00  0.00    +0.000 A 
ATOM     18  C   UNL     1       1.444   8.284  20.195  0.00  0.00    +0.000 A 
ATOM     19  N   UNL     1       1.004  10.558  21.146  0.00  0.00    +0.000 N 
ATOM     20  C   UNL     1       0.511  11.650  20.297  0.00  0.00    +0.000 C 
ATOM     21  N   UNL     1       1.305  11.708  19.056  0.00  0.00    +0.000 N 
ATOM     22  H   UNL     1       1.879  10.854  21.578  0.00  0.00    +0.000 HD
ATOM     23  H   UNL     1       2.181  12.193  19.226  0.00  0.00    +0.000 HD
ENDBRANCH   4  13
BRANCH   1  26
ATOM     24  C   UNL     1       6.298   4.171  14.802  0.00  0.00    +0.000 A 
ATOM     25  C   UNL     1       5.319   3.946  15.807  0.00  0.00    +0.000 A 
ATOM     26  C   UNL     1       5.262   4.729  16.963  0.00  0.00    +0.000 A 
ATOM     27  C   UNL     1       6.221   5.746  17.088  0.00  0.00    +0.000 A 
ATOM     28  C   UNL     1       7.181   6.003  16.106  0.00  0.00    +0.000 A 
ATOM     29  C   UNL     1       7.248   5.207  14.950  0.00  0.00    +0.000 A 
BRANCH  24  31
ATOM     30  C   UNL     1       5.312   3.524  12.727  0.00  0.00    +0.000 C 
ATOM     31  O   UNL     1       6.362   3.387  13.678  0.00  0.00    +0.000 OA
ENDBRANCH  24  31
BRANCH  28  32
ATOM     32  O   UNL     1       8.020   7.032  16.466  0.00  0.00    +0.000 OA
ATOM     33  C   UNL     1       7.648   7.814  17.591  0.00  0.00    +0.000 C 
ENDBRANCH  28  32
BRANCH  29  34
ATOM     34  O   UNL     1       8.207   5.591  14.056  0.00  0.00    +0.000 OA
ATOM     35  C   UNL     1       8.007   5.647  12.658  0.00  0.00    +0.000 C 
ENDBRANCH  29  34
ENDBRANCH   1  26
TORSDOF 5
ENDMDL
MODEL 3
REMARK VINA RESULT:      -7.4      7.549     10.997
REMARK  Name = 
REMARK  8 active torsions:
REMARK  status: ('A' for Active; 'I' for Inactive)
REMARK    1  A    between atoms: C_1  and  O_2
REMARK    2  A    between atoms: O_2  and  C_3
REMARK    3  A    between atoms: C_5  and  C_6
REMARK    4  A    between atoms: N_9  and  C_10
REMARK    5  A    between atoms: C_27  and  O_28
REMARK    6  A    between atoms: O_28  and  C_29
REMARK    7  A    between atoms: C_30  and  O_31
REMARK    8  A    between atoms: O_31  and  C_32
REMARK                            x       y       z     vdW  Elec       q    Type
REMARK                         _______ _______ _______ _____ _____    ______ ____
ROOT
ATOM      1  C   UNL     1       2.041   6.682  19.960  0.00  0.00    +0.000 A 
ATOM      2  N   UNL     1       3.335   6.446  19.758  0.00  0.00    +0.000 NA
ATOM      3  C   UNL     1       3.765   5.183  19.819  0.00  0.00    +0.000 A 
ATOM      4  N   UNL     1       5.092   4.963  19.344  0.00  0.00    +0.000 N 
ATOM      5  C   UNL     1       2.935   4.125  20.212  0.00  0.00    +0.000 A 
ATOM      6  C   UNL     1       3.383   2.793  20.479  0.00  0.00    +0.000 A 
ATOM      7  C   UNL     1       2.467   1.779  20.718  0.00  0.00    +0.000 A 
ATOM      8  C   UNL     1       1.112   2.076  20.687  0.00  0.00    +0.000 A 
ATOM      9  C   UNL     1       0.689   3.401  20.490  0.00  0.00    +0.000 A 
ATOM     10  C   UNL     1       1.582   4.452  20.290  0.00  0.00    +0.000 A 
ATOM     11  N   UNL     1       1.123   5.720  20.159  0.00  0.00    +0.000 NA
ATOM     12  H   UNL     1       5.231   3.958  19.253  0.00  0.00    +0.000 HD
ENDROOT
BRANCH   4  13
ATOM     13  C   UNL     1       5.473   5.458  18.050  0.00  0.00    +0.000 A 
ATOM     14  C   UNL     1       6.650   6.232  17.957  0.00  0.00    +0.000 A 
ATOM     15  C   UNL     1       7.316   6.388  16.737  0.00  0.00    +0.000 A 
ATOM     16  C   UNL     1       6.831   5.672  15.664  0.00  0.00    +0.000 A 
ATOM     17  C   UNL     1       5.614   5.001  15.727  0.00  0.00    +0.000 A 
ATOM     18  C   UNL     1       4.893   4.921  16.889  0.00  0.00    +0.000 A 
ATOM     19  N   UNL     1       5.279   4.426  14.465  0.00  0.00    +0.000 N 
ATOM     20  C   UNL     1       6.640   4.343  13.919  0.00  0.00    +0.000 C 
ATOM     21  N   UNL     1       7.431   5.495  14.387  0.00  0.00    +0.000 N 
ATOM     22  H   UNL     1       4.767   5.140  13.949  0.00  0.00    +0.000 HD
ATOM     23  H   UNL     1       7.221   6.313  13.823  0.00  0.00    +0.000 HD
ENDBRANCH   4  13
BRANCH   1  26
ATOM     24  C   UNL     1       1.467  10.344  18.959  0.00  0.00    +0.000 A 
ATOM     25  C   UNL     1       1.793   8.964  18.873  0.00  0.00    +0.000 A 
ATOM     26  C   UNL     1       1.695   8.117  19.979  0.00  0.00    +0.000 A 
ATOM     27  C   UNL     1       1.261   8.694  21.184  0.00  0.00    +0.000 A 
ATOM     28  C   UNL     1       0.913  10.043  21.292  0.00  0.00    +0.000 A 
ATOM     29  C   UNL     1       1.027  10.898  20.183  0.00  0.00    +0.000 A 
BRANCH  24  31
ATOM     30  C   UNL     1       2.582  12.191  17.939  0.00  0.00    +0.000 C 
ATOM     31  O   UNL     1       1.585  11.177  17.875  0.00  0.00    +0.000 OA
ENDBRANCH  24  31
BRANCH  28  32
ATOM     32  O   UNL     1       0.542  10.375  22.573  0.00  0.00    +0.000 OA
ATOM     33  C   UNL     1      -0.778  10.041  22.978  0.00  0.00    +0.000 C 
ENDBRANCH  28  32
BRANCH  29  34
ATOM     34  O   UNL     1       0.617  12.180  20.418  0.00  0.00    +0.000 OA
ATOM     35  C   UNL     1      -0.685  12.656  20.143  0.00  0.00    +0.000 C 
ENDBRANCH  29  34
ENDBRANCH   1  26
TORSDOF 5
ENDMDL
MODEL 4
REMARK VINA RESULT:      -7.3      2.545      4.784
REMARK  Name = 
REMARK  8 active torsions:
REMARK  status: ('A' for Active; 'I' for Inactive)
REMARK    1  A    between atoms: C_1  and  O_2
REMARK    2  A    between atoms: O_2  and  C_3
REMARK    3  A    between atoms: C_5  and  C_6
REMARK    4  A    between atoms: N_9  and  C_10
REMARK    5  A    between atoms: C_27  and  O_28
REMARK    6  A    between atoms: O_28  and  C_29
REMARK    7  A    between atoms: C_30  and  O_31
REMARK    8  A    between atoms: O_31  and  C_32
REMARK                            x       y       z     vdW  Elec       q    Type
REMARK                         _______ _______ _______ _____ _____    ______ ____
ROOT
ATOM      1  C   UNL     1      -0.755  11.176  21.601  0.00  0.00    +0.000 A 
ATOM      2  N   UNL     1      -0.792  11.595  20.338  0.00  0.00    +0.000 NA
ATOM      3  C   UNL     1      -0.165  10.866  19.411  0.00  0.00    +0.000 A 
ATOM      4  N   UNL     1      -0.452  11.214  18.058  0.00  0.00    +0.000 N 
ATOM      5  C   UNL     1       0.628   9.758  19.737  0.00  0.00    +0.000 A 
ATOM      6  C   UNL     1       1.470   9.059  18.816  0.00  0.00    +0.000 A 
ATOM      7  C   UNL     1       2.103   7.884  19.196  0.00  0.00    +0.000 A 
ATOM      8  C   UNL     1       1.902   7.397  20.479  0.00  0.00    +0.000 A 
ATOM      9  C   UNL     1       1.126   8.129  21.394  0.00  0.00    +0.000 A 
ATOM     10  C   UNL     1       0.511   9.334  21.061  0.00  0.00    +0.000 A 
ATOM     11  N   UNL     1      -0.181  10.027  21.996  0.00  0.00    +0.000 NA
ATOM     12  H   UNL     1      -0.085  10.477  17.458  0.00  0.00    +0.000 HD
ENDROOT
BRANCH   4  13
ATOM     13  C   UNL     1      -1.819  11.327  17.629  0.00  0.00    +0.000 A 
ATOM     14  C   UNL     1      -2.339  10.311  16.798  0.00  0.00    +0.000 A 
ATOM     15  C   UNL     1      -3.718  10.107  16.687  0.00  0.00    +0.000 A 
ATOM     16  C   UNL     1      -4.530  10.868  17.499  0.00  0.00    +0.000 A 
ATOM     17  C   UNL     1      -4.030  11.939  18.232  0.00  0.00    +0.000 A 
ATOM     18  C   UNL     1      -2.689  12.221  18.274  0.00  0.00    +0.000 A 
ATOM     19  N   UNL     1      -5.076  12.633  18.908  0.00  0.00    +0.000 N 
ATOM     20  C   UNL     1      -6.047  11.532  18.950  0.00  0.00    +0.000 C 
ATOM     21  N   UNL     1      -5.926  10.719  17.727  0.00  0.00    +0.000 N 
ATOM     22  H   UNL     1      -5.419  13.341  18.259  0.00  0.00    +0.000 HD
ATOM     23  H   UNL     1      -6.421  11.167  16.961  0.00  0.00    +0.000 HD
ENDBRANCH   4  13
BRANCH   1  26
ATOM     24  C   UNL     1      -3.188  12.852  24.055  0.00  0.00    +0.000 A 
ATOM     25  C   UNL     1      -2.624  11.902  23.160  0.00  0.00    +0.000 A 
ATOM     26  C   UNL     1      -1.383  12.112  22.555  0.00  0.00    +0.000 A 
ATOM     27  C   UNL     1      -0.719  13.309  22.867  0.00  0.00    +0.000 A 
ATOM     28  C   UNL     1      -1.239  14.251  23.759  0.00  0.00    +0.000 A 
ATOM     29  C   UNL     1      -2.494  14.047  24.357  0.00  0.00    +0.000 A 
BRANCH  24  31
ATOM     30  C   UNL     1      -5.562  12.998  23.861  0.00  0.00    +0.000 C 
ATOM     31  O   UNL     1      -4.416  12.651  24.631  0.00  0.00    +0.000 OA
ENDBRANCH  24  31
BRANCH  28  32
ATOM     32  O   UNL     1      -0.418  15.346  23.885  0.00  0.00    +0.000 OA
ATOM     33  C   UNL     1      -0.145  16.095  22.710  0.00  0.00    +0.000 C 
ENDBRANCH  28  32
BRANCH  29  34
ATOM     34  O   UNL     1      -2.865  15.025  25.236  0.00  0.00    +0.000 OA
ATOM     35  C   UNL     1      -3.719  16.102  24.904  0.00  0.00    +0.000 C 
ENDBRANCH  29  34
ENDBRANCH   1  26
TORSDOF 5
ENDMDL
MODEL 5
REMARK VINA RESULT:      -7.3      7.735     11.186
REMARK  Name = 
REMARK  8 active torsions:
REMARK  status: ('A' for Active; 'I' for Inactive)
REMARK    1  A    between atoms: C_1  and  O_2
REMARK    2  A    between atoms: O_2  and  C_3
REMARK    3  A    between atoms: C_5  and  C_6
REMARK    4  A    between atoms: N_9  and  C_10
REMARK    5  A    between atoms: C_27  and  O_28
REMARK    6  A    between atoms: O_28  and  C_29
REMARK    7  A    between atoms: C_30  and  O_31
REMARK    8  A    between atoms: O_31  and  C_32
REMARK                            x       y       z     vdW  Elec       q    Type
REMARK                         _______ _______ _______ _____ _____    ______ ____
ROOT
ATOM      1  C   UNL     1       2.424   6.123  19.574  0.00  0.00    +0.000 A 
ATOM      2  N   UNL     1       3.722   5.896  19.768  0.00  0.00    +0.000 NA
ATOM      3  C   UNL     1       4.186   4.661  19.561  0.00  0.00    +0.000 A 
ATOM      4  N   UNL     1       5.607   4.536  19.531  0.00  0.00    +0.000 N 
ATOM      5  C   UNL     1       3.342   3.580  19.275  0.00  0.00    +0.000 A 
ATOM      6  C   UNL     1       3.756   2.211  19.233  0.00  0.00    +0.000 A 
ATOM      7  C   UNL     1       2.882   1.226  18.796  0.00  0.00    +0.000 A 
ATOM      8  C   UNL     1       1.605   1.590  18.396  0.00  0.00    +0.000 A 
ATOM      9  C   UNL     1       1.190   2.928  18.506  0.00  0.00    +0.000 A 
ATOM     10  C   UNL     1       2.026   3.937  18.981  0.00  0.00    +0.000 A 
ATOM     11  N   UNL     1       1.559   5.200  19.119  0.00  0.00    +0.000 NA
ATOM     12  H   UNL     1       5.833   3.609  19.173  0.00  0.00    +0.000 HD
ENDROOT
BRANCH   4  13
ATOM     13  C   UNL     1       6.377   5.405  18.685  0.00  0.00    +0.000 A 
ATOM     14  C   UNL     1       5.787   5.857  17.485  0.00  0.00    +0.000 A 
ATOM     15  C   UNL     1       6.261   7.002  16.836  0.00  0.00    +0.000 A 
ATOM     16  C   UNL     1       7.252   7.716  17.471  0.00  0.00    +0.000 A 
ATOM     17  C   UNL     1       7.907   7.216  18.591  0.00  0.00    +0.000 A 
ATOM     18  C   UNL     1       7.525   6.042  19.187  0.00  0.00    +0.000 A 
ATOM     19  N   UNL     1       8.960   8.085  19.004  0.00  0.00    +0.000 N 
ATOM     20  C   UNL     1       8.441   9.320  18.400  0.00  0.00    +0.000 C 
ATOM     21  N   UNL     1       7.758   9.002  17.133  0.00  0.00    +0.000 N 
ATOM     22  H   UNL     1       9.791   7.798  18.488  0.00  0.00    +0.000 HD
ATOM     23  H   UNL     1       8.440   8.888  16.390  0.00  0.00    +0.000 HD
ENDBRANCH   4  13
BRANCH   1  26
ATOM     24  C   UNL     1       1.244   9.217  21.518  0.00  0.00    +0.000 A 
ATOM     25  C   UNL     1       1.668   7.891  21.234  0.00  0.00    +0.000 A 
ATOM     26  C   UNL     1       2.000   7.489  19.937  0.00  0.00    +0.000 A 
ATOM     27  C   UNL     1       1.891   8.457  18.926  0.00  0.00    +0.000 A 
ATOM     28  C   UNL     1       1.498   9.774  19.180  0.00  0.00    +0.000 A 
ATOM     29  C   UNL     1       1.150  10.174  20.482  0.00  0.00    +0.000 A 
BRANCH  24  31
ATOM     30  C   UNL     1      -0.474   9.498  23.151  0.00  0.00    +0.000 C 
ATOM     31  O   UNL     1       0.900   9.601  22.790  0.00  0.00    +0.000 OA
ENDBRANCH  24  31
BRANCH  28  32
ATOM     32  O   UNL     1       1.447  10.525  18.030  0.00  0.00    +0.000 OA
ATOM     33  C   UNL     1       2.419  11.548  17.875  0.00  0.00    +0.000 C 
ENDBRANCH  28  32
BRANCH  29  34
ATOM     34  O   UNL     1       0.822  11.495  20.595  0.00  0.00    +0.000 OA
ATOM     35  C   UNL     1      -0.494  11.996  20.461  0.00  0.00    +0.000 C 
ENDBRANCH  29  34
ENDBRANCH   1  26
TORSDOF 5
ENDMDL
MODEL 6
REMARK VINA RESULT:      -7.3      7.720     11.019
REMARK  Name = 
REMARK  8 active torsions:
REMARK  status: ('A' for Active; 'I' for Inactive)
REMARK    1  A    between atoms: C_1  and  O_2
REMARK    2  A    between atoms: O_2  and  C_3
REMARK    3  A    between atoms: C_5  and  C_6
REMARK    4  A    between atoms: N_9  and  C_10
REMARK    5  A    between atoms: C_27  and  O_28
REMARK    6  A    between atoms: O_28  and  C_29
REMARK    7  A    between atoms: C_30  and  O_31
REMARK    8  A    between atoms: O_31  and  C_32
REMARK                            x       y       z     vdW  Elec       q    Type
REMARK                         _______ _______ _______ _____ _____    ______ ____
ROOT
ATOM      1  C   UNL     1       2.394   6.191  19.443  0.00  0.00    +0.000 A 
ATOM      2  N   UNL     1       3.680   5.960  19.698  0.00  0.00    +0.000 NA
ATOM      3  C   UNL     1       4.136   4.711  19.569  0.00  0.00    +0.000 A 
ATOM      4  N   UNL     1       5.555   4.570  19.600  0.00  0.00    +0.000 N 
ATOM      5  C   UNL     1       3.290   3.627  19.304  0.00  0.00    +0.000 A 
ATOM      6  C   UNL     1       3.689   2.253  19.344  0.00  0.00    +0.000 A 
ATOM      7  C   UNL     1       2.820   1.257  18.922  0.00  0.00    +0.000 A 
ATOM      8  C   UNL     1       1.563   1.615  18.456  0.00  0.00    +0.000 A 
ATOM      9  C   UNL     1       1.161   2.961  18.484  0.00  0.00    +0.000 A 
ATOM     10  C   UNL     1       1.991   3.983  18.942  0.00  0.00    +0.000 A 
ATOM     11  N   UNL     1       1.535   5.257  19.000  0.00  0.00    +0.000 NA
ATOM     12  H   UNL     1       5.784   3.625  19.297  0.00  0.00    +0.000 HD
ENDROOT
BRANCH   4  13
ATOM     13  C   UNL     1       6.369   5.389  18.744  0.00  0.00    +0.000 A 
ATOM     14  C   UNL     1       5.839   5.768  17.492  0.00  0.00    +0.000 A 
ATOM     15  C   UNL     1       6.347   6.873  16.800  0.00  0.00    +0.000 A 
ATOM     16  C   UNL     1       7.306   7.625  17.440  0.00  0.00    +0.000 A 
ATOM     17  C   UNL     1       7.904   7.193  18.619  0.00  0.00    +0.000 A 
ATOM     18  C   UNL     1       7.491   6.055  19.263  0.00  0.00    +0.000 A 
ATOM     19  N   UNL     1       8.936   8.087  19.031  0.00  0.00    +0.000 N 
ATOM     20  C   UNL     1       8.450   9.283  18.330  0.00  0.00    +0.000 C 
ATOM     21  N   UNL     1       7.830   8.890  17.052  0.00  0.00    +0.000 N 
ATOM     22  H   UNL     1       9.791   7.771  18.575  0.00  0.00    +0.000 HD
ATOM     23  H   UNL     1       8.548   8.732  16.352  0.00  0.00    +0.000 HD
ENDBRANCH   4  13
BRANCH   1  26
ATOM     24  C   UNL     1       1.465   9.900  19.085  0.00  0.00    +0.000 A 
ATOM     25  C   UNL     1       1.853   8.574  18.751  0.00  0.00    +0.000 A 
ATOM     26  C   UNL     1       1.973   7.578  19.723  0.00  0.00    +0.000 A 
ATOM     27  C   UNL     1       1.696   7.948  21.049  0.00  0.00    +0.000 A 
ATOM     28  C   UNL     1       1.292   9.238  21.403  0.00  0.00    +0.000 A 
ATOM     29  C   UNL     1       1.185  10.244  20.428  0.00  0.00    +0.000 A 
BRANCH  24  31
ATOM     30  C   UNL     1       2.454  11.795  18.025  0.00  0.00    +0.000 C 
ATOM     31  O   UNL     1       1.369  10.880  18.130  0.00  0.00    +0.000 OA
ENDBRANCH  24  31
BRANCH  28  32
ATOM     32  O   UNL     1       1.101   9.361  22.759  0.00  0.00    +0.000 OA
ATOM     33  C   UNL     1      -0.239   9.400  23.229  0.00  0.00    +0.000 C 
ENDBRANCH  28  32
BRANCH  29  34
ATOM     34  O   UNL     1       0.744  11.446  20.905  0.00  0.00    +0.000 OA
ATOM     35  C   UNL     1      -0.536  11.980  20.633  0.00  0.00    +0.000 C 
ENDBRANCH  29  34
ENDBRANCH   1  26
TORSDOF 5
ENDMDL
MODEL 7
REMARK VINA RESULT:      -7.2      2.353      4.515
REMARK  Name = 
REMARK  8 active torsions:
REMARK  status: ('A' for Active; 'I' for Inactive)
REMARK    1  A    between atoms: C_1  and  O_2
REMARK    2  A    between atoms: O_2  and  C_3
REMARK    3  A    between atoms: C_5  and  C_6
REMARK    4  A    between atoms: N_9  and  C_10
REMARK    5  A    between atoms: C_27  and  O_28
REMARK    6  A    between atoms: O_28  and  C_29
REMARK    7  A    between atoms: C_30  and  O_31
REMARK    8  A    between atoms: O_31  and  C_32
REMARK                            x       y       z     vdW  Elec       q    Type
REMARK                         _______ _______ _______ _____ _____    ______ ____
ROOT
ATOM      1  C   UNL     1      -0.746  11.037  20.932  0.00  0.00    +0.000 A 
ATOM      2  N   UNL     1      -1.116  11.334  19.688  0.00  0.00    +0.000 NA
ATOM      3  C   UNL     1      -0.567  10.646  18.683  0.00  0.00    +0.000 A 
ATOM      4  N   UNL     1      -1.183  10.823  17.409  0.00  0.00    +0.000 N 
ATOM      5  C   UNL     1       0.469   9.723  18.883  0.00  0.00    +0.000 A 
ATOM      6  C   UNL     1       1.221   9.103  17.836  0.00  0.00    +0.000 A 
ATOM      7  C   UNL     1       2.126   8.092  18.126  0.00  0.00    +0.000 A 
ATOM      8  C   UNL     1       2.284   7.689  19.444  0.00  0.00    +0.000 A 
ATOM      9  C   UNL     1       1.588   8.352  20.469  0.00  0.00    +0.000 A 
ATOM     10  C   UNL     1       0.704   9.401  20.219  0.00  0.00    +0.000 A 
ATOM     11  N   UNL     1       0.101  10.042  21.248  0.00  0.00    +0.000 NA
ATOM     12  H   UNL     1      -0.814  10.111  16.780  0.00  0.00    +0.000 HD
ENDROOT
BRANCH   4  13
ATOM     13  C   UNL     1      -2.605  10.661  17.280  0.00  0.00    +0.000 A 
ATOM     14  C   UNL     1      -3.202   9.536  17.889  0.00  0.00    +0.000 A 
ATOM     15  C   UNL     1      -4.569   9.517  18.183  0.00  0.00    +0.000 A 
ATOM     16  C   UNL     1      -5.276  10.676  17.948  0.00  0.00    +0.000 A 
ATOM     17  C   UNL     1      -4.716  11.742  17.251  0.00  0.00    +0.000 A 
ATOM     18  C   UNL     1      -3.402  11.739  16.862  0.00  0.00    +0.000 A 
ATOM     19  N   UNL     1      -5.672  12.779  17.044  0.00  0.00    +0.000 N 
ATOM     20  C   UNL     1      -6.569  12.446  18.159  0.00  0.00    +0.000 C 
ATOM     21  N   UNL     1      -6.608  10.984  18.341  0.00  0.00    +0.000 N 
ATOM     22  H   UNL     1      -6.150  12.562  16.169  0.00  0.00    +0.000 HD
ATOM     23  H   UNL     1      -7.241  10.566  17.666  0.00  0.00    +0.000 HD
ENDBRANCH   4  13
BRANCH   1  26
ATOM     24  C   UNL     1      -3.084  12.623  23.533  0.00  0.00    +0.000 A 
ATOM     25  C   UNL     1      -2.564  11.715  22.572  0.00  0.00    +0.000 A 
ATOM     26  C   UNL     1      -1.329  11.929  21.953  0.00  0.00    +0.000 A 
ATOM     27  C   UNL     1      -0.628  13.088  22.322  0.00  0.00    +0.000 A 
ATOM     28  C   UNL     1      -1.105  13.987  23.280  0.00  0.00    +0.000 A 
ATOM     29  C   UNL     1      -2.353  13.779  23.891  0.00  0.00    +0.000 A 
BRANCH  24  31
ATOM     30  C   UNL     1      -5.446  12.951  23.459  0.00  0.00    +0.000 C 
ATOM     31  O   UNL     1      -4.305  12.418  24.123  0.00  0.00    +0.000 OA
ENDBRANCH  24  31
BRANCH  28  32
ATOM     32  O   UNL     1      -0.253  15.051  23.453  0.00  0.00    +0.000 OA
ATOM     33  C   UNL     1       0.581  15.405  22.360  0.00  0.00    +0.000 C 
ENDBRANCH  28  32
BRANCH  29  34
ATOM     34  O   UNL     1      -2.680  14.711  24.835  0.00  0.00    +0.000 OA
ATOM     35  C   UNL     1      -3.443  15.871  24.567  0.00  0.00    +0.000 C 
ENDBRANCH  29  34
ENDBRANCH   1  26
TORSDOF 5
ENDMDL
MODEL 8
REMARK VINA RESULT:      -7.2      8.553     11.929
REMARK  Name = 
REMARK  8 active torsions:
REMARK  status: ('A' for Active; 'I' for Inactive)
REMARK    1  A    between atoms: C_1  and  O_2
REMARK    2  A    between atoms: O_2  and  C_3
REMARK    3  A    between atoms: C_5  and  C_6
REMARK    4  A    between atoms: N_9  and  C_10
REMARK    5  A    between atoms: C_27  and  O_28
REMARK    6  A    between atoms: O_28  and  C_29
REMARK    7  A    between atoms: C_30  and  O_31
REMARK    8  A    between atoms: O_31  and  C_32
REMARK                            x       y       z     vdW  Elec       q    Type
REMARK                         _______ _______ _______ _____ _____    ______ ____
ROOT
ATOM      1  C   UNL     1       3.528   7.123  17.813  0.00  0.00    +0.000 A 
ATOM      2  N   UNL     1       3.428   6.566  19.018  0.00  0.00    +0.000 NA
ATOM      3  C   UNL     1       2.501   7.037  19.858  0.00  0.00    +0.000 A 
ATOM      4  N   UNL     1       2.266   6.245  21.020  0.00  0.00    +0.000 N 
ATOM      5  C   UNL     1       1.729   8.169  19.565  0.00  0.00    +0.000 A 
ATOM      6  C   UNL     1       0.864   8.828  20.495  0.00  0.00    +0.000 A 
ATOM      7  C   UNL     1       0.027   9.850  20.072  0.00  0.00    +0.000 A 
ATOM      8  C   UNL     1       0.038  10.218  18.734  0.00  0.00    +0.000 A 
ATOM      9  C   UNL     1       0.939   9.607  17.846  0.00  0.00    +0.000 A 
ATOM     10  C   UNL     1       1.825   8.607  18.245  0.00  0.00    +0.000 A 
ATOM     11  N   UNL     1       2.711   8.090  17.361  0.00  0.00    +0.000 NA
ATOM     12  H   UNL     1       1.420   6.589  21.470  0.00  0.00    +0.000 HD
ENDROOT
BRANCH   4  13
ATOM     13  C   UNL     1       2.007   4.838  20.879  0.00  0.00    +0.000 A 
ATOM     14  C   UNL     1       0.741   4.443  20.397  0.00  0.00    +0.000 A 
ATOM     15  C   UNL     1       0.548   3.177  19.834  0.00  0.00    +0.000 A 
ATOM     16  C   UNL     1       1.663   2.384  19.680  0.00  0.00    +0.000 A 
ATOM     17  C   UNL     1       2.884   2.725  20.252  0.00  0.00    +0.000 A 
ATOM     18  C   UNL     1       3.070   3.920  20.898  0.00  0.00    +0.000 A 
ATOM     19  N   UNL     1       3.854   1.701  20.043  0.00  0.00    +0.000 N 
ATOM     20  C   UNL     1       3.243   1.090  18.855  0.00  0.00    +0.000 C 
ATOM     21  N   UNL     1       1.775   1.160  18.964  0.00  0.00    +0.000 N 
ATOM     22  H   UNL     1       3.761   1.052  20.824  0.00  0.00    +0.000 HD
ATOM     23  H   UNL     1       1.435   0.412  19.562  0.00  0.00    +0.000 HD
ENDBRANCH   4  13
BRANCH   1  26
ATOM     24  C   UNL     1       5.693   5.023  15.437  0.00  0.00    +0.000 A 
ATOM     25  C   UNL     1       4.568   5.491  16.168  0.00  0.00    +0.000 A 
ATOM     26  C   UNL     1       4.652   6.602  17.011  0.00  0.00    +0.000 A 
ATOM     27  C   UNL     1       5.903   7.233  17.106  0.00  0.00    +0.000 A 
ATOM     28  C   UNL     1       7.020   6.808  16.382  0.00  0.00    +0.000 A 
ATOM     29  C   UNL     1       6.940   5.681  15.546  0.00  0.00    +0.000 A 
BRANCH  24  31
ATOM     30  C   UNL     1       5.164   4.123  13.290  0.00  0.00    +0.000 C 
ATOM     31  O   UNL     1       5.611   3.918  14.627  0.00  0.00    +0.000 OA
ENDBRANCH  24  31
BRANCH  28  32
ATOM     32  O   UNL     1       8.130   7.569  16.659  0.00  0.00    +0.000 OA
ATOM     33  C   UNL     1       8.067   8.431  17.786  0.00  0.00    +0.000 C 
ENDBRANCH  28  32
BRANCH  29  34
ATOM     34  O   UNL     1       8.092   5.399  14.870  0.00  0.00    +0.000 OA
ATOM     35  C   UNL     1       8.270   5.622  13.485  0.00  0.00    +0.000 C 
ENDBRANCH  29  34
ENDBRANCH   1  26
TORSDOF 5
ENDMDL
MODEL 9
REMARK VINA RESULT:      -7.1      5.102      8.256
REMARK  Name = 
REMARK  8 active torsions:
REMARK  status: ('A' for Active; 'I' for Inactive)
REMARK    1  A    between atoms: C_1  and  O_2
REMARK    2  A    between atoms: O_2  and  C_3
REMARK    3  A    between atoms: C_5  and  C_6
REMARK    4  A    between atoms: N_9  and  C_10
REMARK    5  A    between atoms: C_27  and  O_28
REMARK    6  A    between atoms: O_28  and  C_29
REMARK    7  A    between atoms: C_30  and  O_31
REMARK    8  A    between atoms: O_31  and  C_32
REMARK                            x       y       z     vdW  Elec       q    Type
REMARK                         _______ _______ _______ _____ _____    ______ ____
ROOT
ATOM      1  C   UNL     1       1.701  10.162  18.688  0.00  0.00    +0.000 A 
ATOM      2  N   UNL     1       0.451  10.382  19.091  0.00  0.00    +0.000 NA
ATOM      3  C   UNL     1       0.022  11.645  19.162  0.00  0.00    +0.000 A 
ATOM      4  N   UNL     1      -1.383  11.806  19.345  0.00  0.00    +0.000 N 
ATOM      5  C   UNL     1       0.872  12.739  18.955  0.00  0.00    +0.000 A 
ATOM      6  C   UNL     1       0.519  14.103  19.202  0.00  0.00    +0.000 A 
ATOM      7  C   UNL     1       1.375  15.129  18.827  0.00  0.00    +0.000 A 
ATOM      8  C   UNL     1       2.572  14.811  18.203  0.00  0.00    +0.000 A 
ATOM      9  C   UNL     1       2.935  13.465  18.026  0.00  0.00    +0.000 A 
ATOM     10  C   UNL     1       2.121  12.409  18.430  0.00  0.00    +0.000 A 
ATOM     11  N   UNL     1       2.543  11.130  18.285  0.00  0.00    +0.000 NA
ATOM     12  H   UNL     1      -1.611  12.786  19.185  0.00  0.00    +0.000 HD
ENDROOT
BRANCH   4  13
ATOM     13  C   UNL     1      -2.296  11.117  18.475  0.00  0.00    +0.000 A 
ATOM     14  C   UNL     1      -3.655  11.496  18.505  0.00  0.00    +0.000 A 
ATOM     15  C   UNL     1      -4.508  11.205  17.435  0.00  0.00    +0.000 A 
ATOM     16  C   UNL     1      -3.939  10.629  16.321  0.00  0.00    +0.000 A 
ATOM     17  C   UNL     1      -2.631  10.157  16.332  0.00  0.00    +0.000 A 
ATOM     18  C   UNL     1      -1.806  10.342  17.411  0.00  0.00    +0.000 A 
ATOM     19  N   UNL     1      -2.306   9.512  15.102  0.00  0.00    +0.000 N 
ATOM     20  C   UNL     1      -3.307  10.180  14.259  0.00  0.00    +0.000 C 
ATOM     21  N   UNL     1      -4.531  10.422  15.044  0.00  0.00    +0.000 N 
ATOM     22  H   UNL     1      -2.575   8.534  15.209  0.00  0.00    +0.000 HD
ATOM     23  H   UNL     1      -5.089   9.575  15.088  0.00  0.00    +0.000 HD
ENDBRANCH   4  13
BRANCH   1  26
ATOM     24  C   UNL     1       2.154   6.510  19.782  0.00  0.00    +0.000 A 
ATOM     25  C   UNL     1       1.715   7.861  19.763  0.00  0.00    +0.000 A 
ATOM     26  C   UNL     1       2.104   8.744  18.752  0.00  0.00    +0.000 A 
ATOM     27  C   UNL     1       2.956   8.235  17.759  0.00  0.00    +0.000 A 
ATOM     28  C   UNL     1       3.387   6.906  17.742  0.00  0.00    +0.000 A 
ATOM     29  C   UNL     1       3.007   6.021  18.766  0.00  0.00    +0.000 A 
BRANCH  24  31
ATOM     30  C   UNL     1       1.028   4.504  20.419  0.00  0.00    +0.000 C 
ATOM     31  O   UNL     1       1.785   5.652  20.788  0.00  0.00    +0.000 OA
ENDBRANCH  24  31
BRANCH  28  32
ATOM     32  O   UNL     1       4.228   6.653  16.685  0.00  0.00    +0.000 OA
ATOM     33  C   UNL     1       5.611   6.917  16.874  0.00  0.00    +0.000 C 
ENDBRANCH  28  32
BRANCH  29  34
ATOM     34  O   UNL     1       3.466   4.745  18.605  0.00  0.00    +0.000 OA
ATOM     35  C   UNL     1       4.624   4.237  19.238  0.00  0.00    +0.000 C 
ENDBRANCH  29  34
ENDBRANCH   1  26
TORSDOF 5
ENDMDL
