MODEL 1
REMARK VINA RESULT:      -6.8      0.000      0.000
REMARK  Name = 
REMARK  3 active torsions:
REMARK  status: ('A' for Active; 'I' for Inactive)
REMARK    1  A    between atoms: C_1  and  C_2
REMARK    2  A    between atoms: C_2  and  C_3
REMARK    3  A    between atoms: C_16  and  O_17
REMARK                            x       y       z     vdW  Elec       q    Type
REMARK                         _______ _______ _______ _____ _____    ______ ____
ROOT
ATOM      1  C   UNL     1       5.727   3.641  15.521  0.00  0.00    +0.000 C 
ATOM      2  C   UNL     1       6.097   4.884  16.355  0.00  0.00    +0.000 C 
ATOM      3  C   UNL     1       7.355   5.519  15.727  0.00  0.00    +0.000 C 
ATOM      4  C   UNL     1       4.937   5.905  16.303  0.00  0.00    +0.000 C 
ATOM      5  C   UNL     1       4.049   6.015  17.540  0.00  0.00    +0.000 C 
ATOM      6  N   UNL     1       3.284   7.062  17.583  0.00  0.00    +0.000 NA
ATOM      7  C   UNL     1       2.504   7.335  18.720  0.00  0.00    +0.000 A 
ATOM      8  C   UNL     1       2.004   8.637  18.841  0.00  0.00    +0.000 A 
ATOM      9  C   UNL     1       1.284   9.018  19.971  0.00  0.00    +0.000 A 
ATOM     10 CL   UNL     1       0.692  10.628  20.107  0.00  0.00    +0.000 Cl
ATOM     11  C   UNL     1       1.048   8.108  20.995  0.00  0.00    +0.000 A 
ATOM     12  C   UNL     1       1.516   6.799  20.875  0.00  0.00    +0.000 A 
ATOM     13  C   UNL     1       2.237   6.406  19.738  0.00  0.00    +0.000 A 
ATOM     14  S   UNL     1       2.794   4.718  19.634  0.00  0.00    +0.000 S 
ATOM     15  C   UNL     1       4.129   4.942  18.572  0.00  0.00    +0.000 C 
ATOM     16  C   UNL     1       5.250   4.210  18.658  0.00  0.00    +0.000 C 
ATOM     17  C   UNL     1       6.447   4.460  17.795  0.00  0.00    +0.000 C 
ENDROOT
BRANCH  16  18
ATOM     18  O   UNL     1       5.415   3.199  19.590  0.00  0.00    +0.000 OA
ATOM     19  H   UNL     1       5.607   2.376  19.101  0.00  0.00    +0.000 HD
ENDBRANCH  16  18
TORSDOF 1
ENDMDL
MODEL 2
REMARK VINA RESULT:      -6.6      3.736      6.015
REMARK  Name = 
REMARK  3 active torsions:
REMARK  status: ('A' for Active; 'I' for Inactive)
REMARK    1  A    between atoms: C_1  and  C_2
REMARK    2  A    between atoms: C_2  and  C_3
REMARK    3  A    between atoms: C_16  and  O_17
REMARK                            x       y       z     vdW  Elec       q    Type
REMARK                         _______ _______ _______ _____ _____    ______ ____
ROOT
ATOM      1  C   UNL     1       0.935   3.975  20.387  0.00  0.00    +0.000 C 
ATOM      2  C   UNL     1       1.469   3.052  19.273  0.00  0.00    +0.000 C 
ATOM      3  C   UNL     1       0.318   2.122  18.837  0.00  0.00    +0.000 C 
ATOM      4  C   UNL     1       1.912   3.906  18.063  0.00  0.00    +0.000 C 
ATOM      5  C   UNL     1       3.413   4.105  17.863  0.00  0.00    +0.000 C 
ATOM      6  N   UNL     1       3.763   4.566  16.701  0.00  0.00    +0.000 NA
ATOM      7  C   UNL     1       5.119   4.686  16.354  0.00  0.00    +0.000 A 
ATOM      8  C   UNL     1       5.409   4.835  14.993  0.00  0.00    +0.000 A 
ATOM      9  C   UNL     1       6.729   4.886  14.550  0.00  0.00    +0.000 A 
ATOM     10 CL   UNL     1       7.063   5.052  12.871  0.00  0.00    +0.000 Cl
ATOM     11  C   UNL     1       7.779   4.793  15.456  0.00  0.00    +0.000 A 
ATOM     12  C   UNL     1       7.505   4.673  16.819  0.00  0.00    +0.000 A 
ATOM     13  C   UNL     1       6.179   4.626  17.274  0.00  0.00    +0.000 A 
ATOM     14  S   UNL     1       5.891   4.490  19.025  0.00  0.00    +0.000 S 
ATOM     15  C   UNL     1       4.333   3.762  18.985  0.00  0.00    +0.000 C 
ATOM     16  C   UNL     1       3.927   2.875  19.906  0.00  0.00    +0.000 C 
ATOM     17  C   UNL     1       2.607   2.172  19.825  0.00  0.00    +0.000 C 
ENDROOT
BRANCH  16  18
ATOM     18  O   UNL     1       4.717   2.491  20.977  0.00  0.00    +0.000 OA
ATOM     19  H   UNL     1       4.149   2.000  21.601  0.00  0.00    +0.000 HD
ENDBRANCH  16  18
TORSDOF 1
ENDMDL
MODEL 3
REMARK VINA RESULT:      -6.5      2.942      4.124
REMARK  Name = 
REMARK  3 active torsions:
REMARK  status: ('A' for Active; 'I' for Inactive)
REMARK    1  A    between atoms: C_1  and  C_2
REMARK    2  A    between atoms: C_2  and  C_3
REMARK    3  A    between atoms: C_16  and  O_17
REMARK                            x       y       z     vdW  Elec       q    Type
REMARK                         _______ _______ _______ _____ _____    ______ ____
ROOT
ATOM      1  C   UNL     1       3.663   2.649  20.800  0.00  0.00    +0.000 C 
ATOM      2  C   UNL     1       2.241   3.226  20.641  0.00  0.00    +0.000 C 
ATOM      3  C   UNL     1       1.273   2.326  21.438  0.00  0.00    +0.000 C 
ATOM      4  C   UNL     1       2.196   4.656  21.224  0.00  0.00    +0.000 C 
ATOM      5  C   UNL     1       2.186   5.815  20.230  0.00  0.00    +0.000 C 
ATOM      6  N   UNL     1       1.855   6.968  20.724  0.00  0.00    +0.000 NA
ATOM      7  C   UNL     1       1.700   8.089  19.890  0.00  0.00    +0.000 A 
ATOM      8  C   UNL     1       1.002   9.179  20.425  0.00  0.00    +0.000 A 
ATOM      9  C   UNL     1       0.736  10.302  19.646  0.00  0.00    +0.000 A 
ATOM     10 CL   UNL     1      -0.138  11.623  20.318  0.00  0.00    +0.000 Cl
ATOM     11  C   UNL     1       1.163  10.359  18.324  0.00  0.00    +0.000 A 
ATOM     12  C   UNL     1       1.884   9.292  17.786  0.00  0.00    +0.000 A 
ATOM     13  C   UNL     1       2.161   8.160  18.566  0.00  0.00    +0.000 A 
ATOM     14  S   UNL     1       3.101   6.838  17.831  0.00  0.00    +0.000 S 
ATOM     15  C   UNL     1       2.544   5.537  18.810  0.00  0.00    +0.000 C 
ATOM     16  C   UNL     1       2.390   4.292  18.335  0.00  0.00    +0.000 C 
ATOM     17  C   UNL     1       1.822   3.178  19.159  0.00  0.00    +0.000 C 
ENDROOT
BRANCH  16  18
ATOM     18  O   UNL     1       2.690   3.945  17.028  0.00  0.00    +0.000 OA
ATOM     19  H   UNL     1       3.288   4.629  16.672  0.00  0.00    +0.000 HD
ENDBRANCH  16  18
TORSDOF 1
ENDMDL
MODEL 4
REMARK VINA RESULT:      -5.9      1.014      1.134
REMARK  Name = 
REMARK  3 active torsions:
REMARK  status: ('A' for Active; 'I' for Inactive)
REMARK    1  A    between atoms: C_1  and  C_2
REMARK    2  A    between atoms: C_2  and  C_3
REMARK    3  A    between atoms: C_16  and  O_17
REMARK                            x       y       z     vdW  Elec       q    Type
REMARK                         _______ _______ _______ _____ _____    ______ ____
ROOT
ATOM      1  C   UNL     1       5.274   3.907  16.262  0.00  0.00    +0.000 C 
ATOM      2  C   UNL     1       5.699   5.263  16.862  0.00  0.00    +0.000 C 
ATOM      3  C   UNL     1       7.008   5.697  16.171  0.00  0.00    +0.000 C 
ATOM      4  C   UNL     1       4.605   6.318  16.580  0.00  0.00    +0.000 C 
ATOM      5  C   UNL     1       3.696   6.708  17.743  0.00  0.00    +0.000 C 
ATOM      6  N   UNL     1       2.996   7.786  17.564  0.00  0.00    +0.000 NA
ATOM      7  C   UNL     1       2.207   8.312  18.601  0.00  0.00    +0.000 A 
ATOM      8  C   UNL     1       1.785   9.639  18.459  0.00  0.00    +0.000 A 
ATOM      9  C   UNL     1       1.063  10.265  19.473  0.00  0.00    +0.000 A 
ATOM     10 CL   UNL     1       0.568  11.902  19.285  0.00  0.00    +0.000 Cl
ATOM     11  C   UNL     1       0.747   9.579  20.640  0.00  0.00    +0.000 A 
ATOM     12  C   UNL     1       1.137   8.247  20.782  0.00  0.00    +0.000 A 
ATOM     13  C   UNL     1       1.860   7.607  19.765  0.00  0.00    +0.000 A 
ATOM     14  S   UNL     1       2.314   5.901  19.996  0.00  0.00    +0.000 S 
ATOM     15  C   UNL     1       3.686   5.846  18.959  0.00  0.00    +0.000 C 
ATOM     16  C   UNL     1       4.757   5.082  19.220  0.00  0.00    +0.000 C 
ATOM     17  C   UNL     1       5.988   5.099  18.367  0.00  0.00    +0.000 C 
ENDROOT
BRANCH  16  18
ATOM     18  O   UNL     1       4.837   4.257  20.329  0.00  0.00    +0.000 OA
ATOM     19  H   UNL     1       3.939   4.177  20.703  0.00  0.00    +0.000 HD
ENDBRANCH  16  18
TORSDOF 1
ENDMDL
MODEL 5
REMARK VINA RESULT:      -5.9      4.001      6.527
REMARK  Name = 
REMARK  3 active torsions:
REMARK  status: ('A' for Active; 'I' for Inactive)
REMARK    1  A    between atoms: C_1  and  C_2
REMARK    2  A    between atoms: C_2  and  C_3
REMARK    3  A    between atoms: C_16  and  O_17
REMARK                            x       y       z     vdW  Elec       q    Type
REMARK                         _______ _______ _______ _____ _____    ______ ____
ROOT
ATOM      1  C   UNL     1       2.310   4.785  19.817  0.00  0.00    +0.000 C 
ATOM      2  C   UNL     1       3.109   3.625  19.191  0.00  0.00    +0.000 C 
ATOM      3  C   UNL     1       2.447   2.302  19.630  0.00  0.00    +0.000 C 
ATOM      4  C   UNL     1       3.053   3.730  17.650  0.00  0.00    +0.000 C 
ATOM      5  C   UNL     1       4.302   4.249  16.941  0.00  0.00    +0.000 C 
ATOM      6  N   UNL     1       4.334   4.052  15.659  0.00  0.00    +0.000 NA
ATOM      7  C   UNL     1       5.477   4.382  14.910  0.00  0.00    +0.000 A 
ATOM      8  C   UNL     1       5.577   3.817  13.633  0.00  0.00    +0.000 A 
ATOM      9  C   UNL     1       6.710   4.028  12.851  0.00  0.00    +0.000 A 
ATOM     10 CL   UNL     1       6.819   3.310  11.291  0.00  0.00    +0.000 Cl
ATOM     11  C   UNL     1       7.758   4.808  13.325  0.00  0.00    +0.000 A 
ATOM     12  C   UNL     1       7.660   5.401  14.585  0.00  0.00    +0.000 A 
ATOM     13  C   UNL     1       6.521   5.198  15.377  0.00  0.00    +0.000 A 
ATOM     14  S   UNL     1       6.445   5.995  16.967  0.00  0.00    +0.000 S 
ATOM     15  C   UNL     1       5.356   4.919  17.755  0.00  0.00    +0.000 C 
ATOM     16  C   UNL     1       5.441   4.637  19.063  0.00  0.00    +0.000 C 
ATOM     17  C   UNL     1       4.553   3.635  19.733  0.00  0.00    +0.000 C 
ENDROOT
BRANCH  16  18
ATOM     18  O   UNL     1       6.393   5.206  19.893  0.00  0.00    +0.000 OA
ATOM     19  H   UNL     1       6.975   4.489  20.207  0.00  0.00    +0.000 HD
ENDBRANCH  16  18
TORSDOF 1
ENDMDL
MODEL 6
REMARK VINA RESULT:      -5.8      3.775      5.591
REMARK  Name = 
REMARK  3 active torsions:
REMARK  status: ('A' for Active; 'I' for Inactive)
REMARK    1  A    between atoms: C_1  and  C_2
REMARK    2  A    between atoms: C_2  and  C_3
REMARK    3  A    between atoms: C_16  and  O_17
REMARK                            x       y       z     vdW  Elec       q    Type
REMARK                         _______ _______ _______ _____ _____    ______ ____
ROOT
ATOM      1  C   UNL     1       1.837   1.156  19.752  0.00  0.00    +0.000 C 
ATOM      2  C   UNL     1       2.044   2.593  20.273  0.00  0.00    +0.000 C 
ATOM      3  C   UNL     1       1.477   2.664  21.706  0.00  0.00    +0.000 C 
ATOM      4  C   UNL     1       3.555   2.915  20.312  0.00  0.00    +0.000 C 
ATOM      5  C   UNL     1       4.104   3.820  19.211  0.00  0.00    +0.000 C 
ATOM      6  N   UNL     1       5.288   4.305  19.429  0.00  0.00    +0.000 NA
ATOM      7  C   UNL     1       5.856   5.238  18.546  0.00  0.00    +0.000 A 
ATOM      8  C   UNL     1       6.945   5.976  19.026  0.00  0.00    +0.000 A 
ATOM      9  C   UNL     1       7.523   6.976  18.246  0.00  0.00    +0.000 A 
ATOM     10 CL   UNL     1       8.850   7.881  18.861  0.00  0.00    +0.000 Cl
ATOM     11  C   UNL     1       7.028   7.254  16.977  0.00  0.00    +0.000 A 
ATOM     12  C   UNL     1       5.961   6.507  16.475  0.00  0.00    +0.000 A 
ATOM     13  C   UNL     1       5.376   5.495  17.251  0.00  0.00    +0.000 A 
ATOM     14  S   UNL     1       4.030   4.565  16.551  0.00  0.00    +0.000 S 
ATOM     15  C   UNL     1       3.260   4.069  18.008  0.00  0.00    +0.000 C 
ATOM     16  C   UNL     1       1.930   3.929  18.109  0.00  0.00    +0.000 C 
ATOM     17  C   UNL     1       1.251   3.583  19.398  0.00  0.00    +0.000 C 
ENDROOT
BRANCH  16  18
ATOM     18  O   UNL     1       1.070   4.147  17.047  0.00  0.00    +0.000 OA
ATOM     19  H   UNL     1       0.260   4.558  17.403  0.00  0.00    +0.000 HD
ENDBRANCH  16  18
TORSDOF 1
ENDMDL
MODEL 7
REMARK VINA RESULT:      -5.8      3.525      4.249
REMARK  Name = 
REMARK  3 active torsions:
REMARK  status: ('A' for Active; 'I' for Inactive)
REMARK    1  A    between atoms: C_1  and  C_2
REMARK    2  A    between atoms: C_2  and  C_3
REMARK    3  A    between atoms: C_16  and  O_17
REMARK                            x       y       z     vdW  Elec       q    Type
REMARK                         _______ _______ _______ _____ _____    ______ ____
ROOT
ATOM      1  C   UNL     1       7.075   7.306  17.080  0.00  0.00    +0.000 C 
ATOM      2  C   UNL     1       7.191   6.168  18.115  0.00  0.00    +0.000 C 
ATOM      3  C   UNL     1       8.469   6.410  18.944  0.00  0.00    +0.000 C 
ATOM      4  C   UNL     1       5.965   6.200  19.056  0.00  0.00    +0.000 C 
ATOM      5  C   UNL     1       4.885   5.145  18.830  0.00  0.00    +0.000 C 
ATOM      6  N   UNL     1       4.029   5.009  19.796  0.00  0.00    +0.000 NA
ATOM      7  C   UNL     1       3.056   3.997  19.757  0.00  0.00    +0.000 A 
ATOM      8  C   UNL     1       2.425   3.684  20.968  0.00  0.00    +0.000 A 
ATOM      9  C   UNL     1       1.502   2.643  21.038  0.00  0.00    +0.000 A 
ATOM     10 CL   UNL     1       0.751   2.265  22.539  0.00  0.00    +0.000 Cl
ATOM     11  C   UNL     1       1.190   1.901  19.904  0.00  0.00    +0.000 A 
ATOM     12  C   UNL     1       1.790   2.220  18.685  0.00  0.00    +0.000 A 
ATOM     13  C   UNL     1       2.717   3.269  18.605  0.00  0.00    +0.000 A 
ATOM     14  S   UNL     1       3.435   3.641  17.019  0.00  0.00    +0.000 S 
ATOM     15  C   UNL     1       4.897   4.376  17.553  0.00  0.00    +0.000 C 
ATOM     16  C   UNL     1       6.052   4.255  16.882  0.00  0.00    +0.000 C 
ATOM     17  C   UNL     1       7.344   4.817  17.389  0.00  0.00    +0.000 C 
ENDROOT
BRANCH  16  18
ATOM     18  O   UNL     1       6.159   3.552  15.693  0.00  0.00    +0.000 OA
ATOM     19  H   UNL     1       5.768   2.670  15.836  0.00  0.00    +0.000 HD
ENDBRANCH  16  18
TORSDOF 1
ENDMDL
MODEL 8
REMARK VINA RESULT:      -5.7      7.186      9.853
REMARK  Name = 
REMARK  3 active torsions:
REMARK  status: ('A' for Active; 'I' for Inactive)
REMARK    1  A    between atoms: C_1  and  C_2
REMARK    2  A    between atoms: C_2  and  C_3
REMARK    3  A    between atoms: C_16  and  O_17
REMARK                            x       y       z     vdW  Elec       q    Type
REMARK                         _______ _______ _______ _____ _____    ______ ____
ROOT
ATOM      1  C   UNL     1      -1.542  14.395  23.731  0.00  0.00    +0.000 C 
ATOM      2  C   UNL     1      -2.586  13.360  23.264  0.00  0.00    +0.000 C 
ATOM      3  C   UNL     1      -3.877  13.592  24.075  0.00  0.00    +0.000 C 
ATOM      4  C   UNL     1      -2.888  13.572  21.763  0.00  0.00    +0.000 C 
ATOM      5  C   UNL     1      -2.271  12.579  20.781  0.00  0.00    +0.000 C 
ATOM      6  N   UNL     1      -2.768  12.601  19.583  0.00  0.00    +0.000 NA
ATOM      7  C   UNL     1      -2.364  11.661  18.619  0.00  0.00    +0.000 A 
ATOM      8  C   UNL     1      -3.189  11.515  17.498  0.00  0.00    +0.000 A 
ATOM      9  C   UNL     1      -2.906  10.554  16.529  0.00  0.00    +0.000 A 
ATOM     10 CL   UNL     1      -3.942  10.381  15.167  0.00  0.00    +0.000 Cl
ATOM     11  C   UNL     1      -1.796   9.727  16.661  0.00  0.00    +0.000 A 
ATOM     12  C   UNL     1      -0.949   9.881  17.760  0.00  0.00    +0.000 A 
ATOM     13  C   UNL     1      -1.224  10.849  18.737  0.00  0.00    +0.000 A 
ATOM     14  S   UNL     1      -0.098  11.009  20.106  0.00  0.00    +0.000 S 
ATOM     15  C   UNL     1      -1.177  11.688  21.262  0.00  0.00    +0.000 C 
ATOM     16  C   UNL     1      -1.091  11.419  22.574  0.00  0.00    +0.000 C 
ATOM     17  C   UNL     1      -2.081  11.936  23.571  0.00  0.00    +0.000 C 
ENDROOT
BRANCH  16  18
ATOM     18  O   UNL     1      -0.113  10.597  23.108  0.00  0.00    +0.000 OA
ATOM     19  H   UNL     1      -0.502  10.140  23.878  0.00  0.00    +0.000 HD
ENDBRANCH  16  18
TORSDOF 1
ENDMDL
MODEL 9
REMARK VINA RESULT:      -5.7      1.256      1.348
REMARK  Name = 
REMARK  3 active torsions:
REMARK  status: ('A' for Active; 'I' for Inactive)
REMARK    1  A    between atoms: C_1  and  C_2
REMARK    2  A    between atoms: C_2  and  C_3
REMARK    3  A    between atoms: C_16  and  O_17
REMARK                            x       y       z     vdW  Elec       q    Type
REMARK                         _______ _______ _______ _____ _____    ______ ____
ROOT
ATOM      1  C   UNL     1       5.407   4.354  14.278  0.00  0.00    +0.000 C 
ATOM      2  C   UNL     1       5.903   4.893  15.635  0.00  0.00    +0.000 C 
ATOM      3  C   UNL     1       7.346   5.404  15.443  0.00  0.00    +0.000 C 
ATOM      4  C   UNL     1       5.007   6.069  16.084  0.00  0.00    +0.000 C 
ATOM      5  C   UNL     1       3.989   5.789  17.187  0.00  0.00    +0.000 C 
ATOM      6  N   UNL     1       3.465   6.840  17.739  0.00  0.00    +0.000 NA
ATOM      7  C   UNL     1       2.600   6.717  18.840  0.00  0.00    +0.000 A 
ATOM      8  C   UNL     1       2.375   7.875  19.594  0.00  0.00    +0.000 A 
ATOM      9  C   UNL     1       1.592   7.830  20.746  0.00  0.00    +0.000 A 
ATOM     10 CL   UNL     1       1.341   9.261  21.668  0.00  0.00    +0.000 Cl
ATOM     11  C   UNL     1       1.020   6.633  21.162  0.00  0.00    +0.000 A 
ATOM     12  C   UNL     1       1.213   5.477  20.405  0.00  0.00    +0.000 A 
ATOM     13  C   UNL     1       1.996   5.514  19.241  0.00  0.00    +0.000 A 
ATOM     14  S   UNL     1       2.192   4.012  18.307  0.00  0.00    +0.000 S 
ATOM     15  C   UNL     1       3.687   4.370  17.533  0.00  0.00    +0.000 C 
ATOM     16  C   UNL     1       4.601   3.429  17.260  0.00  0.00    +0.000 C 
ATOM     17  C   UNL     1       5.939   3.749  16.669  0.00  0.00    +0.000 C 
ENDROOT
BRANCH  16  18
ATOM     18  O   UNL     1       4.410   2.089  17.554  0.00  0.00    +0.000 OA
ATOM     19  H   UNL     1       4.520   1.587  16.724  0.00  0.00    +0.000 HD
ENDBRANCH  16  18
TORSDOF 1
ENDMDL
