MODEL 1
REMARK VINA RESULT:      -7.9      0.000      0.000
REMARK  Name = 
REMARK  3 active torsions:
REMARK  status: ('A' for Active; 'I' for Inactive)
REMARK    1  A    between atoms: C_1  and  C_2
REMARK    2  A    between atoms: C_4  and  C_5
REMARK    3  A    between atoms: N_7  and  C_8
REMARK                            x       y       z     vdW  Elec       q    Type
REMARK                         _______ _______ _______ _____ _____    ______ ____
ROOT
ATOM      1  C   UNL     1       8.267   8.228  18.106  0.00  0.00    +0.000 C 
ATOM      2  C   UNL     1       7.485   7.066  17.575  0.00  0.00    +0.000 A 
ATOM      3  C   UNL     1       6.619   6.353  18.382  0.00  0.00    +0.000 A 
ATOM      4  C   UNL     1       5.963   5.253  17.830  0.00  0.00    +0.000 A 
ATOM      5  C   UNL     1       6.162   4.890  16.471  0.00  0.00    +0.000 A 
ATOM      6  C   UNL     1       5.542   3.800  15.803  0.00  0.00    +0.000 A 
ATOM      7  C   UNL     1       5.813   3.521  14.462  0.00  0.00    +0.000 A 
ATOM      8  C   UNL     1       6.704   4.321  13.763  0.00  0.00    +0.000 A 
ATOM      9  C   UNL     1       7.310   5.398  14.410  0.00  0.00    +0.000 A 
ATOM     10  C   UNL     1       7.055   5.697  15.743  0.00  0.00    +0.000 A 
ATOM     11  N   UNL     1       7.690   6.752  16.278  0.00  0.00    +0.000 NA
ENDROOT
BRANCH   4  12
ATOM     12  C   UNL     1       5.118   4.435  18.739  0.00  0.00    +0.000 C 
ATOM     13  O   UNL     1       5.636   3.519  19.365  0.00  0.00    +0.000 OA
ATOM     14  N   UNL     1       3.772   4.770  18.767  0.00  0.00    +0.000 N 
ATOM     15  H   UNL     1       3.404   5.284  17.973  0.00  0.00    +0.000 HD
BRANCH  14  16
ATOM     16  C   UNL     1       2.817   4.074  19.551  0.00  0.00    +0.000 A 
ATOM     17  C   UNL     1       2.561   4.431  20.881  0.00  0.00    +0.000 A 
ATOM     18  C   UNL     1       1.637   3.712  21.645  0.00  0.00    +0.000 A 
ATOM     19  C   UNL     1       0.972   2.619  21.093  0.00  0.00    +0.000 A 
ATOM     20  C   UNL     1       1.206   2.262  19.765  0.00  0.00    +0.000 A 
ATOM     21  C   UNL     1       2.107   3.000  18.991  0.00  0.00    +0.000 A 
ATOM     22 CL   UNL     1       2.387   2.502  17.358  0.00  0.00    +0.000 Cl
ENDBRANCH  14  16
ENDBRANCH   4  12
TORSDOF 2
ENDMDL
MODEL 2
REMARK VINA RESULT:      -7.8      1.044      1.044
REMARK  Name = 
REMARK  3 active torsions:
REMARK  status: ('A' for Active; 'I' for Inactive)
REMARK    1  A    between atoms: C_1  and  C_2
REMARK    2  A    between atoms: C_4  and  C_5
REMARK    3  A    between atoms: N_7  and  C_8
REMARK                            x       y       z     vdW  Elec       q    Type
REMARK                         _______ _______ _______ _____ _____    ______ ____
ROOT
ATOM      1  C   UNL     1       8.174   8.126  17.960  0.00  0.00    +0.000 C 
ATOM      2  C   UNL     1       7.248   7.133  17.329  0.00  0.00    +0.000 A 
ATOM      3  C   UNL     1       6.051   6.784  17.924  0.00  0.00    +0.000 A 
ATOM      4  C   UNL     1       5.264   5.816  17.301  0.00  0.00    +0.000 A 
ATOM      5  C   UNL     1       5.671   5.220  16.077  0.00  0.00    +0.000 A 
ATOM      6  C   UNL     1       4.950   4.235  15.351  0.00  0.00    +0.000 A 
ATOM      7  C   UNL     1       5.443   3.705  14.158  0.00  0.00    +0.000 A 
ATOM      8  C   UNL     1       6.662   4.146  13.665  0.00  0.00    +0.000 A 
ATOM      9  C   UNL     1       7.373   5.119  14.368  0.00  0.00    +0.000 A 
ATOM     10  C   UNL     1       6.901   5.663  15.557  0.00  0.00    +0.000 A 
ATOM     11  N   UNL     1       7.660   6.591  16.162  0.00  0.00    +0.000 NA
ENDROOT
BRANCH   4  12
ATOM     12  C   UNL     1       4.032   5.377  18.009  0.00  0.00    +0.000 C 
ATOM     13  O   UNL     1       2.999   6.012  17.849  0.00  0.00    +0.000 OA
ATOM     14  N   UNL     1       4.183   4.277  18.840  0.00  0.00    +0.000 N 
ATOM     15  H   UNL     1       5.120   4.061  19.163  0.00  0.00    +0.000 HD
BRANCH  14  16
ATOM     16  C   UNL     1       3.122   3.744  19.617  0.00  0.00    +0.000 A 
ATOM     17  C   UNL     1       2.880   4.183  20.924  0.00  0.00    +0.000 A 
ATOM     18  C   UNL     1       1.847   3.623  21.683  0.00  0.00    +0.000 A 
ATOM     19  C   UNL     1       1.056   2.608  21.148  0.00  0.00    +0.000 A 
ATOM     20  C   UNL     1       1.278   2.172  19.841  0.00  0.00    +0.000 A 
ATOM     21  C   UNL     1       2.290   2.753  19.071  0.00  0.00    +0.000 A 
ATOM     22 CL   UNL     1       2.546   2.160  17.467  0.00  0.00    +0.000 Cl
ENDBRANCH  14  16
ENDBRANCH   4  12
TORSDOF 2
ENDMDL
MODEL 3
REMARK VINA RESULT:      -7.5      1.241      1.608
REMARK  Name = 
REMARK  3 active torsions:
REMARK  status: ('A' for Active; 'I' for Inactive)
REMARK    1  A    between atoms: C_1  and  C_2
REMARK    2  A    between atoms: C_4  and  C_5
REMARK    3  A    between atoms: N_7  and  C_8
REMARK                            x       y       z     vdW  Elec       q    Type
REMARK                         _______ _______ _______ _____ _____    ______ ____
ROOT
ATOM      1  C   UNL     1       8.248   8.091  18.102  0.00  0.00    +0.000 C 
ATOM      2  C   UNL     1       7.458   6.988  17.467  0.00  0.00    +0.000 A 
ATOM      3  C   UNL     1       6.484   6.303  18.169  0.00  0.00    +0.000 A 
ATOM      4  C   UNL     1       5.825   5.256  17.526  0.00  0.00    +0.000 A 
ATOM      5  C   UNL     1       6.130   4.917  16.181  0.00  0.00    +0.000 A 
ATOM      6  C   UNL     1       5.519   3.880  15.426  0.00  0.00    +0.000 A 
ATOM      7  C   UNL     1       5.899   3.621  14.108  0.00  0.00    +0.000 A 
ATOM      8  C   UNL     1       6.891   4.388  13.518  0.00  0.00    +0.000 A 
ATOM      9  C   UNL     1       7.491   5.413  14.250  0.00  0.00    +0.000 A 
ATOM     10  C   UNL     1       7.129   5.691  15.563  0.00  0.00    +0.000 A 
ATOM     11  N   UNL     1       7.766   6.695  16.186  0.00  0.00    +0.000 NA
ENDROOT
BRANCH   4  12
ATOM     12  C   UNL     1       4.857   4.463  18.329  0.00  0.00    +0.000 C 
ATOM     13  O   UNL     1       5.284   3.659  19.147  0.00  0.00    +0.000 OA
ATOM     14  N   UNL     1       3.518   4.687  18.041  0.00  0.00    +0.000 N 
ATOM     15  H   UNL     1       3.297   5.089  17.137  0.00  0.00    +0.000 HD
BRANCH  14  16
ATOM     16  C   UNL     1       2.462   3.993  18.686  0.00  0.00    +0.000 A 
ATOM     17  C   UNL     1       2.022   2.744  18.233  0.00  0.00    +0.000 A 
ATOM     18  C   UNL     1       0.960   2.091  18.866  0.00  0.00    +0.000 A 
ATOM     19  C   UNL     1       0.317   2.687  19.948  0.00  0.00    +0.000 A 
ATOM     20  C   UNL     1       0.755   3.925  20.420  0.00  0.00    +0.000 A 
ATOM     21  C   UNL     1       1.837   4.564  19.807  0.00  0.00    +0.000 A 
ATOM     22 CL   UNL     1       2.327   6.111  20.408  0.00  0.00    +0.000 Cl
ENDBRANCH  14  16
ENDBRANCH   4  12
TORSDOF 2
ENDMDL
MODEL 4
REMARK VINA RESULT:      -7.4      1.390      1.430
REMARK  Name = 
REMARK  3 active torsions:
REMARK  status: ('A' for Active; 'I' for Inactive)
REMARK    1  A    between atoms: C_1  and  C_2
REMARK    2  A    between atoms: C_4  and  C_5
REMARK    3  A    between atoms: N_7  and  C_8
REMARK                            x       y       z     vdW  Elec       q    Type
REMARK                         _______ _______ _______ _____ _____    ______ ____
ROOT
ATOM      1  C   UNL     1       8.103   7.637  18.050  0.00  0.00    +0.000 C 
ATOM      2  C   UNL     1       7.287   6.665  17.255  0.00  0.00    +0.000 A 
ATOM      3  C   UNL     1       6.165   6.060  17.790  0.00  0.00    +0.000 A 
ATOM      4  C   UNL     1       5.484   5.129  17.006  0.00  0.00    +0.000 A 
ATOM      5  C   UNL     1       5.919   4.825  15.688  0.00  0.00    +0.000 A 
ATOM      6  C   UNL     1       5.301   3.905  14.800  0.00  0.00    +0.000 A 
ATOM      7  C   UNL     1       5.814   3.671  13.523  0.00  0.00    +0.000 A 
ATOM      8  C   UNL     1       6.950   4.349  13.107  0.00  0.00    +0.000 A 
ATOM      9  C   UNL     1       7.558   5.261  13.970  0.00  0.00    +0.000 A 
ATOM     10  C   UNL     1       7.065   5.512  15.245  0.00  0.00    +0.000 A 
ATOM     11  N   UNL     1       7.721   6.404  16.003  0.00  0.00    +0.000 NA
ENDROOT
BRANCH   4  12
ATOM     12  C   UNL     1       4.344   4.411  17.635  0.00  0.00    +0.000 C 
ATOM     13  O   UNL     1       3.646   3.685  16.940  0.00  0.00    +0.000 OA
ATOM     14  N   UNL     1       4.148   4.668  18.984  0.00  0.00    +0.000 N 
ATOM     15  H   UNL     1       4.544   5.524  19.358  0.00  0.00    +0.000 HD
BRANCH  14  16
ATOM     16  C   UNL     1       3.089   4.095  19.734  0.00  0.00    +0.000 A 
ATOM     17  C   UNL     1       1.846   4.731  19.848  0.00  0.00    +0.000 A 
ATOM     18  C   UNL     1       0.825   4.163  20.617  0.00  0.00    +0.000 A 
ATOM     19  C   UNL     1       1.041   2.964  21.291  0.00  0.00    +0.000 A 
ATOM     20  C   UNL     1       2.269   2.312  21.174  0.00  0.00    +0.000 A 
ATOM     21  C   UNL     1       3.281   2.864  20.380  0.00  0.00    +0.000 A 
ATOM     22 CL   UNL     1       4.796   2.036  20.288  0.00  0.00    +0.000 Cl
ENDBRANCH  14  16
ENDBRANCH   4  12
TORSDOF 2
ENDMDL
MODEL 5
REMARK VINA RESULT:      -7.0      1.528      1.691
REMARK  Name = 
REMARK  3 active torsions:
REMARK  status: ('A' for Active; 'I' for Inactive)
REMARK    1  A    between atoms: C_1  and  C_2
REMARK    2  A    between atoms: C_4  and  C_5
REMARK    3  A    between atoms: N_7  and  C_8
REMARK                            x       y       z     vdW  Elec       q    Type
REMARK                         _______ _______ _______ _____ _____    ______ ____
ROOT
ATOM      1  C   UNL     1       8.075   7.763  17.895  0.00  0.00    +0.000 C 
ATOM      2  C   UNL     1       7.240   6.757  17.164  0.00  0.00    +0.000 A 
ATOM      3  C   UNL     1       6.108   6.208  17.738  0.00  0.00    +0.000 A 
ATOM      4  C   UNL     1       5.409   5.241  17.015  0.00  0.00    +0.000 A 
ATOM      5  C   UNL     1       5.836   4.847  15.719  0.00  0.00    +0.000 A 
ATOM      6  C   UNL     1       5.200   3.883  14.892  0.00  0.00    +0.000 A 
ATOM      7  C   UNL     1       5.706   3.559  13.632  0.00  0.00    +0.000 A 
ATOM      8  C   UNL     1       6.852   4.189  13.173  0.00  0.00    +0.000 A 
ATOM      9  C   UNL     1       7.478   5.143  13.975  0.00  0.00    +0.000 A 
ATOM     10  C   UNL     1       6.992   5.483  15.232  0.00  0.00    +0.000 A 
ATOM     11  N   UNL     1       7.666   6.410  15.931  0.00  0.00    +0.000 NA
ENDROOT
BRANCH   4  12
ATOM     12  C   UNL     1       4.257   4.585  17.690  0.00  0.00    +0.000 C 
ATOM     13  O   UNL     1       3.311   4.207  17.011  0.00  0.00    +0.000 OA
ATOM     14  N   UNL     1       4.348   4.494  19.071  0.00  0.00    +0.000 N 
ATOM     15  H   UNL     1       4.979   5.134  19.540  0.00  0.00    +0.000 HD
BRANCH  14  16
ATOM     16  C   UNL     1       3.326   3.929  19.877  0.00  0.00    +0.000 A 
ATOM     17  C   UNL     1       3.350   2.580  20.251  0.00  0.00    +0.000 A 
ATOM     18  C   UNL     1       2.317   2.037  21.021  0.00  0.00    +0.000 A 
ATOM     19  C   UNL     1       1.243   2.833  21.412  0.00  0.00    +0.000 A 
ATOM     20  C   UNL     1       1.214   4.182  21.059  0.00  0.00    +0.000 A 
ATOM     21  C   UNL     1       2.262   4.733  20.315  0.00  0.00    +0.000 A 
ATOM     22 CL   UNL     1       2.169   6.404  19.876  0.00  0.00    +0.000 Cl
ENDBRANCH  14  16
ENDBRANCH   4  12
TORSDOF 2
ENDMDL
MODEL 6
REMARK VINA RESULT:      -6.9      4.194      5.618
REMARK  Name = 
REMARK  3 active torsions:
REMARK  status: ('A' for Active; 'I' for Inactive)
REMARK    1  A    between atoms: C_1  and  C_2
REMARK    2  A    between atoms: C_4  and  C_5
REMARK    3  A    between atoms: N_7  and  C_8
REMARK                            x       y       z     vdW  Elec       q    Type
REMARK                         _______ _______ _______ _____ _____    ______ ____
ROOT
ATOM      1  C   UNL     1       5.475   6.718  16.423  0.00  0.00    +0.000 C 
ATOM      2  C   UNL     1       4.381   6.055  17.201  0.00  0.00    +0.000 A 
ATOM      3  C   UNL     1       3.637   6.751  18.135  0.00  0.00    +0.000 A 
ATOM      4  C   UNL     1       2.668   6.053  18.855  0.00  0.00    +0.000 A 
ATOM      5  C   UNL     1       2.437   4.672  18.621  0.00  0.00    +0.000 A 
ATOM      6  C   UNL     1       1.475   3.865  19.286  0.00  0.00    +0.000 A 
ATOM      7  C   UNL     1       1.332   2.509  18.987  0.00  0.00    +0.000 A 
ATOM      8  C   UNL     1       2.143   1.932  18.022  0.00  0.00    +0.000 A 
ATOM      9  C   UNL     1       3.085   2.719  17.358  0.00  0.00    +0.000 A 
ATOM     10  C   UNL     1       3.244   4.071  17.637  0.00  0.00    +0.000 A 
ATOM     11  N   UNL     1       4.180   4.744  16.949  0.00  0.00    +0.000 NA
ENDROOT
BRANCH   4  12
ATOM     12  C   UNL     1       1.952   6.792  19.929  0.00  0.00    +0.000 C 
ATOM     13  O   UNL     1       1.600   6.185  20.932  0.00  0.00    +0.000 OA
ATOM     14  N   UNL     1       1.708   8.133  19.670  0.00  0.00    +0.000 N 
ATOM     15  H   UNL     1       1.721   8.430  18.701  0.00  0.00    +0.000 HD
BRANCH  14  16
ATOM     16  C   UNL     1       1.008   8.978  20.569  0.00  0.00    +0.000 A 
ATOM     17  C   UNL     1       1.151   8.852  21.956  0.00  0.00    +0.000 A 
ATOM     18  C   UNL     1       0.429   9.677  22.824  0.00  0.00    +0.000 A 
ATOM     19  C   UNL     1      -0.455  10.626  22.314  0.00  0.00    +0.000 A 
ATOM     20  C   UNL     1      -0.596  10.772  20.934  0.00  0.00    +0.000 A 
ATOM     21  C   UNL     1       0.149   9.969  20.065  0.00  0.00    +0.000 A 
ATOM     22 CL   UNL     1      -0.080  10.167  18.362  0.00  0.00    +0.000 Cl
ENDBRANCH  14  16
ENDBRANCH   4  12
TORSDOF 2
ENDMDL
MODEL 7
REMARK VINA RESULT:      -6.8      1.620      1.952
REMARK  Name = 
REMARK  3 active torsions:
REMARK  status: ('A' for Active; 'I' for Inactive)
REMARK    1  A    between atoms: C_1  and  C_2
REMARK    2  A    between atoms: C_4  and  C_5
REMARK    3  A    between atoms: N_7  and  C_8
REMARK                            x       y       z     vdW  Elec       q    Type
REMARK                         _______ _______ _______ _____ _____    ______ ____
ROOT
ATOM      1  C   UNL     1       8.167   7.616  18.196  0.00  0.00    +0.000 C 
ATOM      2  C   UNL     1       7.238   6.786  17.366  0.00  0.00    +0.000 A 
ATOM      3  C   UNL     1       5.963   6.478  17.802  0.00  0.00    +0.000 A 
ATOM      4  C   UNL     1       5.173   5.659  16.995  0.00  0.00    +0.000 A 
ATOM      5  C   UNL     1       5.656   5.174  15.751  0.00  0.00    +0.000 A 
ATOM      6  C   UNL     1       4.940   4.344  14.847  0.00  0.00    +0.000 A 
ATOM      7  C   UNL     1       5.511   3.913  13.648  0.00  0.00    +0.000 A 
ATOM      8  C   UNL     1       6.803   4.299  13.328  0.00  0.00    +0.000 A 
ATOM      9  C   UNL     1       7.511   5.120  14.206  0.00  0.00    +0.000 A 
ATOM     10  C   UNL     1       6.963   5.564  15.404  0.00  0.00    +0.000 A 
ATOM     11  N   UNL     1       7.724   6.347  16.185  0.00  0.00    +0.000 NA
ENDROOT
BRANCH   4  12
ATOM     12  C   UNL     1       3.846   5.251  17.528  0.00  0.00    +0.000 C 
ATOM     13  O   UNL     1       2.897   6.013  17.401  0.00  0.00    +0.000 OA
ATOM     14  N   UNL     1       3.814   4.023  18.172  0.00  0.00    +0.000 N 
ATOM     15  H   UNL     1       4.694   3.657  18.521  0.00  0.00    +0.000 HD
BRANCH  14  16
ATOM     16  C   UNL     1       2.641   3.493  18.769  0.00  0.00    +0.000 A 
ATOM     17  C   UNL     1       1.935   2.436  18.183  0.00  0.00    +0.000 A 
ATOM     18  C   UNL     1       0.765   1.948  18.773  0.00  0.00    +0.000 A 
ATOM     19  C   UNL     1       0.281   2.523  19.947  0.00  0.00    +0.000 A 
ATOM     20  C   UNL     1       0.983   3.567  20.549  0.00  0.00    +0.000 A 
ATOM     21  C   UNL     1       2.170   4.035  19.976  0.00  0.00    +0.000 A 
ATOM     22 CL   UNL     1       2.992   5.350  20.743  0.00  0.00    +0.000 Cl
ENDBRANCH  14  16
ENDBRANCH   4  12
TORSDOF 2
ENDMDL
MODEL 8
REMARK VINA RESULT:      -6.8      4.383      6.226
REMARK  Name = 
REMARK  3 active torsions:
REMARK  status: ('A' for Active; 'I' for Inactive)
REMARK    1  A    between atoms: C_1  and  C_2
REMARK    2  A    between atoms: C_4  and  C_5
REMARK    3  A    between atoms: N_7  and  C_8
REMARK                            x       y       z     vdW  Elec       q    Type
REMARK                         _______ _______ _______ _____ _____    ______ ____
ROOT
ATOM      1  C   UNL     1       6.683   5.187  18.017  0.00  0.00    +0.000 C 
ATOM      2  C   UNL     1       5.265   5.167  18.498  0.00  0.00    +0.000 A 
ATOM      3  C   UNL     1       4.403   6.217  18.243  0.00  0.00    +0.000 A 
ATOM      4  C   UNL     1       3.112   6.148  18.765  0.00  0.00    +0.000 A 
ATOM      5  C   UNL     1       2.687   5.022  19.519  0.00  0.00    +0.000 A 
ATOM      6  C   UNL     1       1.399   4.840  20.089  0.00  0.00    +0.000 A 
ATOM      7  C   UNL     1       1.083   3.695  20.822  0.00  0.00    +0.000 A 
ATOM      8  C   UNL     1       2.043   2.711  21.001  0.00  0.00    +0.000 A 
ATOM      9  C   UNL     1       3.309   2.878  20.438  0.00  0.00    +0.000 A 
ATOM     10  C   UNL     1       3.645   4.008  19.702  0.00  0.00    +0.000 A 
ATOM     11  N   UNL     1       4.890   4.079  19.203  0.00  0.00    +0.000 NA
ENDROOT
BRANCH   4  12
ATOM     12  C   UNL     1       2.233   7.332  18.572  0.00  0.00    +0.000 C 
ATOM     13  O   UNL     1       1.811   7.580  17.450  0.00  0.00    +0.000 OA
ATOM     14  N   UNL     1       1.996   8.091  19.709  0.00  0.00    +0.000 N 
ATOM     15  H   UNL     1       2.658   8.004  20.473  0.00  0.00    +0.000 HD
BRANCH  14  16
ATOM     16  C   UNL     1       1.210   9.271  19.700  0.00  0.00    +0.000 A 
ATOM     17  C   UNL     1       1.482  10.326  18.821  0.00  0.00    +0.000 A 
ATOM     18  C   UNL     1       0.712  11.493  18.850  0.00  0.00    +0.000 A 
ATOM     19  C   UNL     1      -0.327  11.623  19.769  0.00  0.00    +0.000 A 
ATOM     20  C   UNL     1      -0.619  10.573  20.640  0.00  0.00    +0.000 A 
ATOM     21  C   UNL     1       0.131   9.394  20.590  0.00  0.00    +0.000 A 
ATOM     22 CL   UNL     1      -0.249   8.131  21.709  0.00  0.00    +0.000 Cl
ENDBRANCH  14  16
ENDBRANCH   4  12
TORSDOF 2
ENDMDL
MODEL 9
REMARK VINA RESULT:      -6.8      5.211      6.748
REMARK  Name = 
REMARK  3 active torsions:
REMARK  status: ('A' for Active; 'I' for Inactive)
REMARK    1  A    between atoms: C_1  and  C_2
REMARK    2  A    between atoms: C_4  and  C_5
REMARK    3  A    between atoms: N_7  and  C_8
REMARK                            x       y       z     vdW  Elec       q    Type
REMARK                         _______ _______ _______ _____ _____    ______ ____
ROOT
ATOM      1  C   UNL     1       5.197   6.429  16.226  0.00  0.00    +0.000 C 
ATOM      2  C   UNL     1       4.169   6.238  17.298  0.00  0.00    +0.000 A 
ATOM      3  C   UNL     1       3.449   7.304  17.803  0.00  0.00    +0.000 A 
ATOM      4  C   UNL     1       2.544   7.056  18.835  0.00  0.00    +0.000 A 
ATOM      5  C   UNL     1       2.352   5.741  19.338  0.00  0.00    +0.000 A 
ATOM      6  C   UNL     1       1.454   5.370  20.375  0.00  0.00    +0.000 A 
ATOM      7  C   UNL     1       1.346   4.047  20.804  0.00  0.00    +0.000 A 
ATOM      8  C   UNL     1       2.128   3.068  20.208  0.00  0.00    +0.000 A 
ATOM      9  C   UNL     1       3.005   3.423  19.183  0.00  0.00    +0.000 A 
ATOM     10  C   UNL     1       3.129   4.733  18.738  0.00  0.00    +0.000 A 
ATOM     11  N   UNL     1       4.004   4.976  17.749  0.00  0.00    +0.000 NA
ENDROOT
BRANCH   4  12
ATOM     12  C   UNL     1       1.856   8.228  19.438  0.00  0.00    +0.000 C 
ATOM     13  O   UNL     1       1.804   8.322  20.657  0.00  0.00    +0.000 OA
ATOM     14  N   UNL     1       1.288   9.115  18.535  0.00  0.00    +0.000 N 
ATOM     15  H   UNL     1       1.087   8.767  17.604  0.00  0.00    +0.000 HD
BRANCH  14  16
ATOM     16  C   UNL     1       0.566  10.269  18.936  0.00  0.00    +0.000 A 
ATOM     17  C   UNL     1      -0.687  10.171  19.553  0.00  0.00    +0.000 A 
ATOM     18  C   UNL     1      -1.395  11.322  19.913  0.00  0.00    +0.000 A 
ATOM     19  C   UNL     1      -0.865  12.582  19.645  0.00  0.00    +0.000 A 
ATOM     20  C   UNL     1       0.389  12.694  19.045  0.00  0.00    +0.000 A 
ATOM     21  C   UNL     1       1.112  11.543  18.712  0.00  0.00    +0.000 A 
ATOM     22 CL   UNL     1       2.649  11.731  17.944  0.00  0.00    +0.000 Cl
ENDBRANCH  14  16
ENDBRANCH   4  12
TORSDOF 2
ENDMDL
