MODEL 1
REMARK VINA RESULT:      -8.4      0.000      0.000
REMARK  Name = 
REMARK  1 active torsions:
REMARK  status: ('A' for Active; 'I' for Inactive)
REMARK    1  A    between atoms: C_6  and  C_7
REMARK                            x       y       z     vdW  Elec       q    Type
REMARK                         _______ _______ _______ _____ _____    ______ ____
ROOT
ATOM      1  O   UNL     1       3.352   7.694  17.665  0.00  0.00    +0.000 OA
ATOM      2  C   UNL     1       3.788   6.606  18.010  0.00  0.00    +0.000 C 
ATOM      3  C   UNL     1       4.950   6.013  17.356  0.00  0.00    +0.000 C 
ATOM      4  C   UNL     1       5.465   4.843  17.709  0.00  0.00    +0.000 C 
ATOM      5  O   UNL     1       6.573   4.437  16.983  0.00  0.00    +0.000 OA
ATOM      6  C   UNL     1       6.773   5.492  16.002  0.00  0.00    +0.000 C 
ATOM      7  C   UNL     1       5.712   6.590  16.233  0.00  0.00    +0.000 C 
ATOM      8  C   UNL     1       4.893   4.021  18.794  0.00  0.00    +0.000 C 
ATOM      9  O   UNL     1       5.366   2.937  19.116  0.00  0.00    +0.000 OA
ATOM     10  C   UNL     1       3.701   4.577  19.478  0.00  0.00    +0.000 A 
ATOM     11  C   UNL     1       3.101   3.845  20.510  0.00  0.00    +0.000 A 
ATOM     12  C   UNL     1       1.979   4.354  21.166  0.00  0.00    +0.000 A 
ATOM     13  C   UNL     1       1.454   5.593  20.796  0.00  0.00    +0.000 A 
ATOM     14  C   UNL     1       2.047   6.326  19.767  0.00  0.00    +0.000 A 
ATOM     15  C   UNL     1       3.173   5.819  19.104  0.00  0.00    +0.000 A 
ENDROOT
BRANCH   6  16
ATOM     16  C   UNL     1       6.761   4.885  14.613  0.00  0.00    +0.000 A 
ATOM     17  C   UNL     1       7.696   5.273  13.640  0.00  0.00    +0.000 A 
ATOM     18  C   UNL     1       7.641   4.752  12.346  0.00  0.00    +0.000 A 
ATOM     19  C   UNL     1       6.661   3.822  12.012  0.00  0.00    +0.000 A 
ATOM     20  C   UNL     1       5.736   3.412  12.970  0.00  0.00    +0.000 A 
ATOM     21  C   UNL     1       5.784   3.940  14.263  0.00  0.00    +0.000 A 
ENDBRANCH   6  16
TORSDOF 1
ENDMDL
MODEL 2
REMARK VINA RESULT:      -8.2      0.499      1.163
REMARK  Name = 
REMARK  1 active torsions:
REMARK  status: ('A' for Active; 'I' for Inactive)
REMARK    1  A    between atoms: C_6  and  C_7
REMARK                            x       y       z     vdW  Elec       q    Type
REMARK                         _______ _______ _______ _____ _____    ______ ____
ROOT
ATOM      1  O   UNL     1       2.783   7.207  17.802  0.00  0.00    +0.000 OA
ATOM      2  C   UNL     1       3.347   6.170  18.114  0.00  0.00    +0.000 C 
ATOM      3  C   UNL     1       4.581   5.752  17.457  0.00  0.00    +0.000 C 
ATOM      4  C   UNL     1       5.235   4.642  17.775  0.00  0.00    +0.000 C 
ATOM      5  O   UNL     1       6.393   4.405  17.052  0.00  0.00    +0.000 OA
ATOM      6  C   UNL     1       6.470   5.514  16.114  0.00  0.00    +0.000 C 
ATOM      7  C   UNL     1       5.278   6.462  16.368  0.00  0.00    +0.000 C 
ATOM      8  C   UNL     1       4.758   3.714  18.820  0.00  0.00    +0.000 C 
ATOM      9  O   UNL     1       5.360   2.686  19.109  0.00  0.00    +0.000 OA
ATOM     10  C   UNL     1       3.499   4.091  19.505  0.00  0.00    +0.000 A 
ATOM     11  C   UNL     1       2.983   3.251  20.500  0.00  0.00    +0.000 A 
ATOM     12  C   UNL     1       1.799   3.591  21.157  0.00  0.00    +0.000 A 
ATOM     13  C   UNL     1       1.128   4.767  20.824  0.00  0.00    +0.000 A 
ATOM     14  C   UNL     1       1.636   5.608  19.832  0.00  0.00    +0.000 A 
ATOM     15  C   UNL     1       2.823   5.271  19.169  0.00  0.00    +0.000 A 
ENDROOT
BRANCH   6  16
ATOM     16  C   UNL     1       6.549   4.965  14.703  0.00  0.00    +0.000 A 
ATOM     17  C   UNL     1       5.630   4.010  14.240  0.00  0.00    +0.000 A 
ATOM     18  C   UNL     1       5.746   3.467  12.960  0.00  0.00    +0.000 A 
ATOM     19  C   UNL     1       6.772   3.883  12.118  0.00  0.00    +0.000 A 
ATOM     20  C   UNL     1       7.682   4.844  12.554  0.00  0.00    +0.000 A 
ATOM     21  C   UNL     1       7.573   5.382  13.839  0.00  0.00    +0.000 A 
ENDBRANCH   6  16
TORSDOF 1
ENDMDL
MODEL 3
REMARK VINA RESULT:      -8.0      4.724      7.036
REMARK  Name = 
REMARK  1 active torsions:
REMARK  status: ('A' for Active; 'I' for Inactive)
REMARK    1  A    between atoms: C_6  and  C_7
REMARK                            x       y       z     vdW  Elec       q    Type
REMARK                         _______ _______ _______ _____ _____    ______ ____
ROOT
ATOM      1  O   UNL     1       1.854  10.026  17.410  0.00  0.00    +0.000 OA
ATOM      2  C   UNL     1       1.381   9.793  18.513  0.00  0.00    +0.000 C 
ATOM      3  C   UNL     1       1.693   8.558  19.225  0.00  0.00    +0.000 C 
ATOM      4  C   UNL     1       1.215   8.273  20.429  0.00  0.00    +0.000 C 
ATOM      5  O   UNL     1       1.621   7.058  20.959  0.00  0.00    +0.000 OA
ATOM      6  C   UNL     1       2.457   6.471  19.923  0.00  0.00    +0.000 C 
ATOM      7  C   UNL     1       2.552   7.462  18.743  0.00  0.00    +0.000 C 
ATOM      8  C   UNL     1       0.303   9.179  21.154  0.00  0.00    +0.000 C 
ATOM      9  O   UNL     1      -0.143   8.912  22.265  0.00  0.00    +0.000 OA
ATOM     10  C   UNL     1      -0.054  10.441  20.462  0.00  0.00    +0.000 A 
ATOM     11  C   UNL     1      -0.924  11.343  21.089  0.00  0.00    +0.000 A 
ATOM     12  C   UNL     1      -1.269  12.536  20.452  0.00  0.00    +0.000 A 
ATOM     13  C   UNL     1      -0.749  12.833  19.192  0.00  0.00    +0.000 A 
ATOM     14  C   UNL     1       0.116  11.936  18.562  0.00  0.00    +0.000 A 
ATOM     15  C   UNL     1       0.465  10.737  19.196  0.00  0.00    +0.000 A 
ENDROOT
BRANCH   6  16
ATOM     16  C   UNL     1       1.908   5.106  19.558  0.00  0.00    +0.000 A 
ATOM     17  C   UNL     1       1.301   4.283  20.521  0.00  0.00    +0.000 A 
ATOM     18  C   UNL     1       0.851   3.005  20.188  0.00  0.00    +0.000 A 
ATOM     19  C   UNL     1       0.985   2.537  18.885  0.00  0.00    +0.000 A 
ATOM     20  C   UNL     1       1.568   3.347  17.912  0.00  0.00    +0.000 A 
ATOM     21  C   UNL     1       2.028   4.624  18.246  0.00  0.00    +0.000 A 
ENDBRANCH   6  16
TORSDOF 1
ENDMDL
MODEL 4
REMARK VINA RESULT:      -8.0      4.712      6.974
REMARK  Name = 
REMARK  1 active torsions:
REMARK  status: ('A' for Active; 'I' for Inactive)
REMARK    1  A    between atoms: C_6  and  C_7
REMARK                            x       y       z     vdW  Elec       q    Type
REMARK                         _______ _______ _______ _____ _____    ______ ____
ROOT
ATOM      1  O   UNL     1       1.877  10.007  17.399  0.00  0.00    +0.000 OA
ATOM      2  C   UNL     1       1.397   9.770  18.497  0.00  0.00    +0.000 C 
ATOM      3  C   UNL     1       1.719   8.543  19.217  0.00  0.00    +0.000 C 
ATOM      4  C   UNL     1       1.233   8.254  20.416  0.00  0.00    +0.000 C 
ATOM      5  O   UNL     1       1.652   7.048  20.955  0.00  0.00    +0.000 OA
ATOM      6  C   UNL     1       2.508   6.470  19.930  0.00  0.00    +0.000 C 
ATOM      7  C   UNL     1       2.600   7.458  18.747  0.00  0.00    +0.000 C 
ATOM      8  C   UNL     1       0.300   9.150  21.129  0.00  0.00    +0.000 C 
ATOM      9  O   UNL     1      -0.154   8.879  22.235  0.00  0.00    +0.000 OA
ATOM     10  C   UNL     1      -0.068  10.403  20.429  0.00  0.00    +0.000 A 
ATOM     11  C   UNL     1      -0.958  11.294  21.043  0.00  0.00    +0.000 A 
ATOM     12  C   UNL     1      -1.315  12.480  20.398  0.00  0.00    +0.000 A 
ATOM     13  C   UNL     1      -0.786  12.780  19.142  0.00  0.00    +0.000 A 
ATOM     14  C   UNL     1       0.100  11.895  18.525  0.00  0.00    +0.000 A 
ATOM     15  C   UNL     1       0.460  10.703  19.167  0.00  0.00    +0.000 A 
ENDROOT
BRANCH   6  16
ATOM     16  C   UNL     1       1.983   5.095  19.564  0.00  0.00    +0.000 A 
ATOM     17  C   UNL     1       2.036   4.623  18.243  0.00  0.00    +0.000 A 
ATOM     18  C   UNL     1       1.498   3.380  17.906  0.00  0.00    +0.000 A 
ATOM     19  C   UNL     1       0.915   2.584  18.887  0.00  0.00    +0.000 A 
ATOM     20  C   UNL     1       0.871   3.029  20.207  0.00  0.00    +0.000 A 
ATOM     21  C   UNL     1       1.401   4.277  20.545  0.00  0.00    +0.000 A 
ENDBRANCH   6  16
TORSDOF 1
ENDMDL
MODEL 5
REMARK VINA RESULT:      -7.8      1.102      1.325
REMARK  Name = 
REMARK  1 active torsions:
REMARK  status: ('A' for Active; 'I' for Inactive)
REMARK    1  A    between atoms: C_6  and  C_7
REMARK                            x       y       z     vdW  Elec       q    Type
REMARK                         _______ _______ _______ _____ _____    ______ ____
ROOT
ATOM      1  O   UNL     1       1.832   6.108  17.979  0.00  0.00    +0.000 OA
ATOM      2  C   UNL     1       2.672   5.303  18.350  0.00  0.00    +0.000 C 
ATOM      3  C   UNL     1       3.996   5.254  17.740  0.00  0.00    +0.000 C 
ATOM      4  C   UNL     1       4.943   4.407  18.122  0.00  0.00    +0.000 C 
ATOM      5  O   UNL     1       6.143   4.506  17.437  0.00  0.00    +0.000 OA
ATOM      6  C   UNL     1       5.914   5.550  16.450  0.00  0.00    +0.000 C 
ATOM      7  C   UNL     1       4.483   6.100  16.634  0.00  0.00    +0.000 C 
ATOM      8  C   UNL     1       4.733   3.418  19.199  0.00  0.00    +0.000 C 
ATOM      9  O   UNL     1       5.606   2.632  19.548  0.00  0.00    +0.000 OA
ATOM     10  C   UNL     1       3.396   3.421  19.839  0.00  0.00    +0.000 A 
ATOM     11  C   UNL     1       3.124   2.502  20.860  0.00  0.00    +0.000 A 
ATOM     12  C   UNL     1       1.871   2.492  21.475  0.00  0.00    +0.000 A 
ATOM     13  C   UNL     1       0.887   3.396  21.074  0.00  0.00    +0.000 A 
ATOM     14  C   UNL     1       1.152   4.313  20.055  0.00  0.00    +0.000 A 
ATOM     15  C   UNL     1       2.408   4.327  19.434  0.00  0.00    +0.000 A 
ENDROOT
BRANCH   6  16
ATOM     16  C   UNL     1       6.204   4.997  15.068  0.00  0.00    +0.000 A 
ATOM     17  C   UNL     1       7.331   5.411  14.340  0.00  0.00    +0.000 A 
ATOM     18  C   UNL     1       7.558   4.940  13.045  0.00  0.00    +0.000 A 
ATOM     19  C   UNL     1       6.672   4.037  12.467  0.00  0.00    +0.000 A 
ATOM     20  C   UNL     1       5.558   3.601  13.183  0.00  0.00    +0.000 A 
ATOM     21  C   UNL     1       5.324   4.078  14.476  0.00  0.00    +0.000 A 
ENDBRANCH   6  16
TORSDOF 1
ENDMDL
MODEL 6
REMARK VINA RESULT:      -7.7      1.149      1.155
REMARK  Name = 
REMARK  1 active torsions:
REMARK  status: ('A' for Active; 'I' for Inactive)
REMARK    1  A    between atoms: C_6  and  C_7
REMARK                            x       y       z     vdW  Elec       q    Type
REMARK                         _______ _______ _______ _____ _____    ______ ____
ROOT
ATOM      1  O   UNL     1       3.870   7.049  18.167  0.00  0.00    +0.000 OA
ATOM      2  C   UNL     1       3.873   5.828  18.119  0.00  0.00    +0.000 C 
ATOM      3  C   UNL     1       4.872   5.103  17.341  0.00  0.00    +0.000 C 
ATOM      4  C   UNL     1       4.922   3.780  17.275  0.00  0.00    +0.000 C 
ATOM      5  O   UNL     1       5.943   3.260  16.495  0.00  0.00    +0.000 OA
ATOM      6  C   UNL     1       6.624   4.430  15.961  0.00  0.00    +0.000 C 
ATOM      7  C   UNL     1       5.948   5.698  16.526  0.00  0.00    +0.000 C 
ATOM      8  C   UNL     1       3.952   2.915  17.975  0.00  0.00    +0.000 C 
ATOM      9  O   UNL     1       3.996   1.691  17.908  0.00  0.00    +0.000 OA
ATOM     10  C   UNL     1       2.908   3.608  18.767  0.00  0.00    +0.000 A 
ATOM     11  C   UNL     1       1.949   2.849  19.448  0.00  0.00    +0.000 A 
ATOM     12  C   UNL     1       0.959   3.485  20.200  0.00  0.00    +0.000 A 
ATOM     13  C   UNL     1       0.925   4.878  20.274  0.00  0.00    +0.000 A 
ATOM     14  C   UNL     1       1.878   5.640  19.595  0.00  0.00    +0.000 A 
ATOM     15  C   UNL     1       2.872   5.006  18.839  0.00  0.00    +0.000 A 
ENDROOT
BRANCH   6  16
ATOM     16  C   UNL     1       6.640   4.345  14.447  0.00  0.00    +0.000 A 
ATOM     17  C   UNL     1       7.576   5.064  13.687  0.00  0.00    +0.000 A 
ATOM     18  C   UNL     1       7.546   5.026  12.292  0.00  0.00    +0.000 A 
ATOM     19  C   UNL     1       6.591   4.254  11.637  0.00  0.00    +0.000 A 
ATOM     20  C   UNL     1       5.666   3.519  12.376  0.00  0.00    +0.000 A 
ATOM     21  C   UNL     1       5.689   3.564  13.773  0.00  0.00    +0.000 A 
ENDBRANCH   6  16
TORSDOF 1
ENDMDL
MODEL 7
REMARK VINA RESULT:      -7.6      4.854      7.642
REMARK  Name = 
REMARK  1 active torsions:
REMARK  status: ('A' for Active; 'I' for Inactive)
REMARK    1  A    between atoms: C_6  and  C_7
REMARK                            x       y       z     vdW  Elec       q    Type
REMARK                         _______ _______ _______ _____ _____    ______ ____
ROOT
ATOM      1  O   UNL     1      -0.524  10.980  18.341  0.00  0.00    +0.000 OA
ATOM      2  C   UNL     1      -0.306  10.657  19.499  0.00  0.00    +0.000 C 
ATOM      3  C   UNL     1       0.654   9.608  19.826  0.00  0.00    +0.000 C 
ATOM      4  C   UNL     1       0.932   9.238  21.068  0.00  0.00    +0.000 C 
ATOM      5  O   UNL     1       1.876   8.230  21.192  0.00  0.00    +0.000 OA
ATOM      6  C   UNL     1       2.225   7.888  19.822  0.00  0.00    +0.000 C 
ATOM      7  C   UNL     1       1.440   8.811  18.866  0.00  0.00    +0.000 C 
ATOM      8  C   UNL     1       0.277   9.848  22.242  0.00  0.00    +0.000 C 
ATOM      9  O   UNL     1       0.531   9.501  23.390  0.00  0.00    +0.000 OA
ATOM     10  C   UNL     1      -0.718  10.910  21.958  0.00  0.00    +0.000 A 
ATOM     11  C   UNL     1      -1.386  11.525  23.025  0.00  0.00    +0.000 A 
ATOM     12  C   UNL     1      -2.325  12.527  22.776  0.00  0.00    +0.000 A 
ATOM     13  C   UNL     1      -2.600  12.918  21.466  0.00  0.00    +0.000 A 
ATOM     14  C   UNL     1      -1.938  12.308  20.399  0.00  0.00    +0.000 A 
ATOM     15  C   UNL     1      -0.996  11.300  20.643  0.00  0.00    +0.000 A 
ENDROOT
BRANCH   6  16
ATOM     16  C   UNL     1       1.986   6.406  19.606  0.00  0.00    +0.000 A 
ATOM     17  C   UNL     1       2.143   5.820  18.340  0.00  0.00    +0.000 A 
ATOM     18  C   UNL     1       1.865   4.467  18.138  0.00  0.00    +0.000 A 
ATOM     19  C   UNL     1       1.443   3.677  19.203  0.00  0.00    +0.000 A 
ATOM     20  C   UNL     1       1.301   4.238  20.471  0.00  0.00    +0.000 A 
ATOM     21  C   UNL     1       1.570   5.595  20.672  0.00  0.00    +0.000 A 
ENDBRANCH   6  16
TORSDOF 1
ENDMDL
MODEL 8
REMARK VINA RESULT:      -7.5      4.850      7.653
REMARK  Name = 
REMARK  1 active torsions:
REMARK  status: ('A' for Active; 'I' for Inactive)
REMARK    1  A    between atoms: C_6  and  C_7
REMARK                            x       y       z     vdW  Elec       q    Type
REMARK                         _______ _______ _______ _____ _____    ______ ____
ROOT
ATOM      1  O   UNL     1      -0.436  10.940  18.330  0.00  0.00    +0.000 OA
ATOM      2  C   UNL     1      -0.234  10.620  19.492  0.00  0.00    +0.000 C 
ATOM      3  C   UNL     1       0.696   9.548  19.831  0.00  0.00    +0.000 C 
ATOM      4  C   UNL     1       0.957   9.179  21.078  0.00  0.00    +0.000 C 
ATOM      5  O   UNL     1       1.873   8.148  21.216  0.00  0.00    +0.000 OA
ATOM      6  C   UNL     1       2.222   7.787  19.850  0.00  0.00    +0.000 C 
ATOM      7  C   UNL     1       1.467   8.724  18.882  0.00  0.00    +0.000 C 
ATOM      8  C   UNL     1       0.310   9.814  22.244  0.00  0.00    +0.000 C 
ATOM      9  O   UNL     1       0.548   9.469  23.396  0.00  0.00    +0.000 OA
ATOM     10  C   UNL     1      -0.654  10.900  21.946  0.00  0.00    +0.000 A 
ATOM     11  C   UNL     1      -1.313  11.539  23.005  0.00  0.00    +0.000 A 
ATOM     12  C   UNL     1      -2.223  12.564  22.743  0.00  0.00    +0.000 A 
ATOM     13  C   UNL     1      -2.480  12.954  21.428  0.00  0.00    +0.000 A 
ATOM     14  C   UNL     1      -1.828  12.318  20.369  0.00  0.00    +0.000 A 
ATOM     15  C   UNL     1      -0.914  11.288  20.627  0.00  0.00    +0.000 A 
ENDROOT
BRANCH   6  16
ATOM     16  C   UNL     1       1.946   6.311  19.642  0.00  0.00    +0.000 A 
ATOM     17  C   UNL     1       1.534   5.489  20.704  0.00  0.00    +0.000 A 
ATOM     18  C   UNL     1       1.338   4.120  20.516  0.00  0.00    +0.000 A 
ATOM     19  C   UNL     1       1.535   3.556  19.259  0.00  0.00    +0.000 A 
ATOM     20  C   UNL     1       1.925   4.359  18.190  0.00  0.00    +0.000 A 
ATOM     21  C   UNL     1       2.130   5.729  18.379  0.00  0.00    +0.000 A 
ENDBRANCH   6  16
TORSDOF 1
ENDMDL
MODEL 9
REMARK VINA RESULT:      -7.3      2.940      6.109
REMARK  Name = 
REMARK  1 active torsions:
REMARK  status: ('A' for Active; 'I' for Inactive)
REMARK    1  A    between atoms: C_6  and  C_7
REMARK                            x       y       z     vdW  Elec       q    Type
REMARK                         _______ _______ _______ _____ _____    ______ ____
ROOT
ATOM      1  O   UNL     1       4.919   7.025  16.091  0.00  0.00    +0.000 OA
ATOM      2  C   UNL     1       5.580   6.622  17.036  0.00  0.00    +0.000 C 
ATOM      3  C   UNL     1       5.272   5.355  17.691  0.00  0.00    +0.000 C 
ATOM      4  C   UNL     1       5.972   4.874  18.709  0.00  0.00    +0.000 C 
ATOM      5  O   UNL     1       5.543   3.652  19.203  0.00  0.00    +0.000 OA
ATOM      6  C   UNL     1       4.377   3.324  18.398  0.00  0.00    +0.000 C 
ATOM      7  C   UNL     1       4.171   4.436  17.347  0.00  0.00    +0.000 C 
ATOM      8  C   UNL     1       7.125   5.593  19.288  0.00  0.00    +0.000 C 
ATOM      9  O   UNL     1       7.768   5.150  20.233  0.00  0.00    +0.000 OA
ATOM     10  C   UNL     1       7.466   6.893  18.664  0.00  0.00    +0.000 A 
ATOM     11  C   UNL     1       8.542   7.634  19.170  0.00  0.00    +0.000 A 
ATOM     12  C   UNL     1       8.878   8.860  18.593  0.00  0.00    +0.000 A 
ATOM     13  C   UNL     1       8.143   9.350  17.513  0.00  0.00    +0.000 A 
ATOM     14  C   UNL     1       7.069   8.617  17.006  0.00  0.00    +0.000 A 
ATOM     15  C   UNL     1       6.727   7.386  17.582  0.00  0.00    +0.000 A 
ENDROOT
BRANCH   6  16
ATOM     16  C   UNL     1       3.190   3.095  19.314  0.00  0.00    +0.000 A 
ATOM     17  C   UNL     1       1.873   3.199  18.841  0.00  0.00    +0.000 A 
ATOM     18  C   UNL     1       0.788   3.044  19.705  0.00  0.00    +0.000 A 
ATOM     19  C   UNL     1       1.004   2.765  21.051  0.00  0.00    +0.000 A 
ATOM     20  C   UNL     1       2.305   2.640  21.534  0.00  0.00    +0.000 A 
ATOM     21  C   UNL     1       3.393   2.804  20.672  0.00  0.00    +0.000 A 
ENDBRANCH   6  16
TORSDOF 1
ENDMDL
