MODEL 1
REMARK VINA RESULT:      -7.4      0.000      0.000
REMARK  Name = 
REMARK  11 active torsions:
REMARK  status: ('A' for Active; 'I' for Inactive)
REMARK    1  A    between atoms: C_1  and  C_2
REMARK    2  A    between atoms: C_2  and  N_3
REMARK    3  A    between atoms: N_3  and  C_4
REMARK    4  A    between atoms: N_3  and  C_20
REMARK    5  A    between atoms: C_4  and  C_5
REMARK    6  A    between atoms: C_7  and  N_8
REMARK    7  A    between atoms: C_14  and  O_15
REMARK    8  A    between atoms: C_16  and  O_17
REMARK    9  A    between atoms: C_20  and  P_21
REMARK   10  A    between atoms: P_21  and  O_23
REMARK   11  A    between atoms: P_21  and  O_24
REMARK                            x       y       z     vdW  Elec       q    Type
REMARK                         _______ _______ _______ _____ _____    ______ ____
ROOT
ATOM      1  C   UNL     1       3.721   5.719  17.879  0.00  0.00    +0.000 A 
ATOM      2  C   UNL     1       3.234   7.024  17.707  0.00  0.00    +0.000 A 
ATOM      3  C   UNL     1       2.373   7.593  18.652  0.00  0.00    +0.000 A 
ATOM      4  C   UNL     1       1.980   6.861  19.772  0.00  0.00    +0.000 A 
ATOM      5  C   UNL     1       2.453   5.579  19.972  0.00  0.00    +0.000 A 
ATOM      6  N   UNL     1       2.020   4.923  21.067  0.00  0.00    +0.000 NA
ATOM      7  C   UNL     1       2.493   3.679  21.210  0.00  0.00    +0.000 A 
ATOM      8  C   UNL     1       3.380   3.095  20.326  0.00  0.00    +0.000 A 
ATOM      9  N   UNL     1       3.835   3.745  19.242  0.00  0.00    +0.000 NA
ATOM     10  C   UNL     1       3.361   4.992  19.032  0.00  0.00    +0.000 A 
ENDROOT
BRANCH   3  11
ATOM     11  N   UNL     1       1.879   8.957  18.459  0.00  0.00    +0.000 N 
ATOM     12  O   UNL     1       1.307   9.500  19.417  0.00  0.00    +0.000 OA
ATOM     13  O   UNL     1       2.061   9.488  17.355  0.00  0.00    +0.000 OA
ENDBRANCH   3  11
BRANCH   7  14
ATOM     14  O   UNL     1       2.036   3.010  22.301  0.00  0.00    +0.000 OA
ATOM     15  H   UNL     1       1.250   3.543  22.527  0.00  0.00    +0.000 HD
ENDBRANCH   7  14
BRANCH   8  16
ATOM     16  O   UNL     1       3.821   1.814  20.494  0.00  0.00    +0.000 OA
ATOM     17  H   UNL     1       4.734   1.896  20.826  0.00  0.00    +0.000 HD
ENDBRANCH   8  16
BRANCH   1  18
ATOM     18  C   UNL     1       4.645   5.122  16.816  0.00  0.00    +0.000 C 
BRANCH  18  19
ATOM     19  N   UNL     1       5.714   6.001  16.265  0.00  0.00    +0.000 NA
BRANCH  19  21
ATOM     20  C   UNL     1       6.152   3.989  14.789  0.00  0.00    +0.000 C 
ATOM     21  C   UNL     1       6.513   5.423  15.191  0.00  0.00    +0.000 C 
ENDBRANCH  19  21
BRANCH  19  22
ATOM     22  C   UNL     1       6.457   6.615  17.395  0.00  0.00    +0.000 C 
BRANCH  22  23
ATOM     23  P   UNL     1       7.421   5.604  18.512  0.00  0.00    +0.000 P 
ATOM     24  O   UNL     1       8.093   4.425  17.882  0.00  0.00    +0.000 OA
BRANCH  23  25
ATOM     25  O   UNL     1       8.491   6.570  19.223  0.00  0.00    +0.000 OA
ATOM     26  H   UNL     1       9.319   6.148  19.503  0.00  0.00    +0.000 HD
ENDBRANCH  23  25
BRANCH  23  27
ATOM     27  O   UNL     1       6.572   5.163  19.796  0.00  0.00    +0.000 OA
ATOM     28  H   UNL     1       5.954   5.887  20.024  0.00  0.00    +0.000 HD
ENDBRANCH  23  27
ENDBRANCH  22  23
ENDBRANCH  19  22
ENDBRANCH  18  19
ENDBRANCH   1  18
TORSDOF 10
ENDMDL
MODEL 2
REMARK VINA RESULT:      -7.3      0.554      1.261
REMARK  Name = 
REMARK  11 active torsions:
REMARK  status: ('A' for Active; 'I' for Inactive)
REMARK    1  A    between atoms: C_1  and  C_2
REMARK    2  A    between atoms: C_2  and  N_3
REMARK    3  A    between atoms: N_3  and  C_4
REMARK    4  A    between atoms: N_3  and  C_20
REMARK    5  A    between atoms: C_4  and  C_5
REMARK    6  A    between atoms: C_7  and  N_8
REMARK    7  A    between atoms: C_14  and  O_15
REMARK    8  A    between atoms: C_16  and  O_17
REMARK    9  A    between atoms: C_20  and  P_21
REMARK   10  A    between atoms: P_21  and  O_23
REMARK   11  A    between atoms: P_21  and  O_24
REMARK                            x       y       z     vdW  Elec       q    Type
REMARK                         _______ _______ _______ _____ _____    ______ ____
ROOT
ATOM      1  C   UNL     1       3.510   5.862  17.880  0.00  0.00    +0.000 A 
ATOM      2  C   UNL     1       3.070   7.190  17.755  0.00  0.00    +0.000 A 
ATOM      3  C   UNL     1       2.272   7.772  18.744  0.00  0.00    +0.000 A 
ATOM      4  C   UNL     1       1.893   7.032  19.864  0.00  0.00    +0.000 A 
ATOM      5  C   UNL     1       2.320   5.729  20.020  0.00  0.00    +0.000 A 
ATOM      6  N   UNL     1       1.904   5.067  21.117  0.00  0.00    +0.000 NA
ATOM      7  C   UNL     1       2.330   3.802  21.216  0.00  0.00    +0.000 A 
ATOM      8  C   UNL     1       3.157   3.202  20.286  0.00  0.00    +0.000 A 
ATOM      9  N   UNL     1       3.596   3.857  19.198  0.00  0.00    +0.000 NA
ATOM     10  C   UNL     1       3.165   5.126  19.032  0.00  0.00    +0.000 A 
ENDROOT
BRANCH   3  11
ATOM     11  N   UNL     1       1.827   9.159  18.599  0.00  0.00    +0.000 N 
ATOM     12  O   UNL     1       2.105   9.742  17.540  0.00  0.00    +0.000 OA
ATOM     13  O   UNL     1       1.202   9.668  19.540  0.00  0.00    +0.000 OA
ENDBRANCH   3  11
BRANCH   7  14
ATOM     14  O   UNL     1       1.889   3.129  22.311  0.00  0.00    +0.000 OA
ATOM     15  H   UNL     1       1.279   3.787  22.697  0.00  0.00    +0.000 HD
ENDBRANCH   7  14
BRANCH   8  16
ATOM     16  O   UNL     1       3.551   1.901  20.410  0.00  0.00    +0.000 OA
ATOM     17  H   UNL     1       4.390   1.837  19.918  0.00  0.00    +0.000 HD
ENDBRANCH   8  16
BRANCH   1  18
ATOM     18  C   UNL     1       4.366   5.252  16.770  0.00  0.00    +0.000 C 
BRANCH  18  19
ATOM     19  N   UNL     1       5.553   6.029  16.314  0.00  0.00    +0.000 NA
BRANCH  19  21
ATOM     20  C   UNL     1       5.694   4.189  14.578  0.00  0.00    +0.000 C 
ATOM     21  C   UNL     1       6.200   5.536  15.103  0.00  0.00    +0.000 C 
ENDBRANCH  19  21
BRANCH  19  22
ATOM     22  C   UNL     1       6.431   6.288  17.483  0.00  0.00    +0.000 C 
BRANCH  22  23
ATOM     23  P   UNL     1       7.374   4.964  18.230  0.00  0.00    +0.000 P 
ATOM     24  O   UNL     1       8.228   5.369  19.391  0.00  0.00    +0.000 OA
BRANCH  23  25
ATOM     25  O   UNL     1       6.331   3.816  18.651  0.00  0.00    +0.000 OA
ATOM     26  H   UNL     1       5.415   4.109  18.789  0.00  0.00    +0.000 HD
ENDBRANCH  23  25
BRANCH  23  27
ATOM     27  O   UNL     1       8.228   4.157  17.143  0.00  0.00    +0.000 OA
ATOM     28  H   UNL     1       8.951   4.735  16.824  0.00  0.00    +0.000 HD
ENDBRANCH  23  27
ENDBRANCH  22  23
ENDBRANCH  19  22
ENDBRANCH  18  19
ENDBRANCH   1  18
TORSDOF 10
ENDMDL
MODEL 3
REMARK VINA RESULT:      -7.2      1.420      4.323
REMARK  Name = 
REMARK  11 active torsions:
REMARK  status: ('A' for Active; 'I' for Inactive)
REMARK    1  A    between atoms: C_1  and  C_2
REMARK    2  A    between atoms: C_2  and  N_3
REMARK    3  A    between atoms: N_3  and  C_4
REMARK    4  A    between atoms: N_3  and  C_20
REMARK    5  A    between atoms: C_4  and  C_5
REMARK    6  A    between atoms: C_7  and  N_8
REMARK    7  A    between atoms: C_14  and  O_15
REMARK    8  A    between atoms: C_16  and  O_17
REMARK    9  A    between atoms: C_20  and  P_21
REMARK   10  A    between atoms: P_21  and  O_23
REMARK   11  A    between atoms: P_21  and  O_24
REMARK                            x       y       z     vdW  Elec       q    Type
REMARK                         _______ _______ _______ _____ _____    ______ ____
ROOT
ATOM      1  C   UNL     1       2.973   4.480  18.458  0.00  0.00    +0.000 A 
ATOM      2  C   UNL     1       2.893   3.478  19.438  0.00  0.00    +0.000 A 
ATOM      3  C   UNL     1       2.408   3.770  20.717  0.00  0.00    +0.000 A 
ATOM      4  C   UNL     1       2.008   5.067  21.036  0.00  0.00    +0.000 A 
ATOM      5  C   UNL     1       2.065   6.070  20.088  0.00  0.00    +0.000 A 
ATOM      6  N   UNL     1       1.679   7.303  20.468  0.00  0.00    +0.000 NA
ATOM      7  C   UNL     1       1.766   8.245  19.521  0.00  0.00    +0.000 A 
ATOM      8  C   UNL     1       2.196   7.992  18.232  0.00  0.00    +0.000 A 
ATOM      9  N   UNL     1       2.565   6.763  17.835  0.00  0.00    +0.000 NA
ATOM     10  C   UNL     1       2.529   5.783  18.764  0.00  0.00    +0.000 A 
ENDROOT
BRANCH   3  11
ATOM     11  N   UNL     1       2.327   2.711  21.724  0.00  0.00    +0.000 N 
ATOM     12  O   UNL     1       3.356   2.059  21.955  0.00  0.00    +0.000 OA
ATOM     13  O   UNL     1       1.237   2.529  22.287  0.00  0.00    +0.000 OA
ENDBRANCH   3  11
BRANCH   7  14
ATOM     14  O   UNL     1       1.399   9.494  19.912  0.00  0.00    +0.000 OA
ATOM     15  H   UNL     1       0.451   9.355  20.099  0.00  0.00    +0.000 HD
ENDBRANCH   7  14
BRANCH   8  16
ATOM     16  O   UNL     1       2.295   8.984  17.301  0.00  0.00    +0.000 OA
ATOM     17  H   UNL     1       2.994   8.694  16.686  0.00  0.00    +0.000 HD
ENDBRANCH   8  16
BRANCH   1  18
ATOM     18  C   UNL     1       3.528   4.129  17.077  0.00  0.00    +0.000 C 
BRANCH  18  19
ATOM     19  N   UNL     1       4.938   4.513  16.786  0.00  0.00    +0.000 NA
BRANCH  19  21
ATOM     20  C   UNL     1       5.719   4.555  14.376  0.00  0.00    +0.000 C 
ATOM     21  C   UNL     1       5.576   3.786  15.694  0.00  0.00    +0.000 C 
ENDBRANCH  19  21
BRANCH  19  22
ATOM     22  C   UNL     1       5.686   4.586  18.067  0.00  0.00    +0.000 C 
BRANCH  22  23
ATOM     23  P   UNL     1       7.375   5.172  18.108  0.00  0.00    +0.000 P 
ATOM     24  O   UNL     1       7.648   6.382  17.271  0.00  0.00    +0.000 OA
BRANCH  23  25
ATOM     25  O   UNL     1       7.748   5.437  19.649  0.00  0.00    +0.000 OA
ATOM     26  H   UNL     1       7.145   6.024  20.134  0.00  0.00    +0.000 HD
ENDBRANCH  23  25
BRANCH  23  27
ATOM     27  O   UNL     1       8.418   4.002  17.783  0.00  0.00    +0.000 OA
ATOM     28  H   UNL     1       9.292   4.255  18.145  0.00  0.00    +0.000 HD
ENDBRANCH  23  27
ENDBRANCH  22  23
ENDBRANCH  19  22
ENDBRANCH  18  19
ENDBRANCH   1  18
TORSDOF 10
ENDMDL
MODEL 4
REMARK VINA RESULT:      -7.1      2.530      2.991
REMARK  Name = 
REMARK  11 active torsions:
REMARK  status: ('A' for Active; 'I' for Inactive)
REMARK    1  A    between atoms: C_1  and  C_2
REMARK    2  A    between atoms: C_2  and  N_3
REMARK    3  A    between atoms: N_3  and  C_4
REMARK    4  A    between atoms: N_3  and  C_20
REMARK    5  A    between atoms: C_4  and  C_5
REMARK    6  A    between atoms: C_7  and  N_8
REMARK    7  A    between atoms: C_14  and  O_15
REMARK    8  A    between atoms: C_16  and  O_17
REMARK    9  A    between atoms: C_20  and  P_21
REMARK   10  A    between atoms: P_21  and  O_23
REMARK   11  A    between atoms: P_21  and  O_24
REMARK                            x       y       z     vdW  Elec       q    Type
REMARK                         _______ _______ _______ _____ _____    ______ ____
ROOT
ATOM      1  C   UNL     1       4.864   5.501  18.727  0.00  0.00    +0.000 A 
ATOM      2  C   UNL     1       4.297   6.776  18.572  0.00  0.00    +0.000 A 
ATOM      3  C   UNL     1       2.922   6.923  18.361  0.00  0.00    +0.000 A 
ATOM      4  C   UNL     1       2.100   5.799  18.292  0.00  0.00    +0.000 A 
ATOM      5  C   UNL     1       2.628   4.534  18.454  0.00  0.00    +0.000 A 
ATOM      6  N   UNL     1       1.779   3.492  18.359  0.00  0.00    +0.000 NA
ATOM      7  C   UNL     1       2.340   2.285  18.506  0.00  0.00    +0.000 A 
ATOM      8  C   UNL     1       3.685   2.096  18.761  0.00  0.00    +0.000 A 
ATOM      9  N   UNL     1       4.538   3.126  18.877  0.00  0.00    +0.000 NA
ATOM     10  C   UNL     1       4.029   4.365  18.702  0.00  0.00    +0.000 A 
ENDROOT
BRANCH   3  11
ATOM     11  N   UNL     1       2.348   8.260  18.207  0.00  0.00    +0.000 N 
ATOM     12  O   UNL     1       2.561   8.856  17.140  0.00  0.00    +0.000 OA
ATOM     13  O   UNL     1       1.685   8.718  19.148  0.00  0.00    +0.000 OA
ENDBRANCH   3  11
BRANCH   7  14
ATOM     14  O   UNL     1       1.487   1.234  18.386  0.00  0.00    +0.000 OA
ATOM     15  H   UNL     1       0.787   1.629  17.831  0.00  0.00    +0.000 HD
ENDBRANCH   7  14
BRANCH   8  16
ATOM     16  O   UNL     1       4.223   0.847  18.880  0.00  0.00    +0.000 OA
ATOM     17  H   UNL     1       3.519   0.299  19.273  0.00  0.00    +0.000 HD
ENDBRANCH   8  16
BRANCH   1  18
ATOM     18  C   UNL     1       6.374   5.376  18.936  0.00  0.00    +0.000 C 
BRANCH  18  19
ATOM     19  N   UNL     1       7.252   5.632  17.760  0.00  0.00    +0.000 NA
BRANCH  19  21
ATOM     20  C   UNL     1       8.001   8.045  17.944  0.00  0.00    +0.000 C 
ATOM     21  C   UNL     1       7.186   6.978  17.205  0.00  0.00    +0.000 C 
ENDBRANCH  19  21
BRANCH  19  22
ATOM     22  C   UNL     1       7.106   4.506  16.802  0.00  0.00    +0.000 C 
BRANCH  22  23
ATOM     23  P   UNL     1       6.696   4.810  15.088  0.00  0.00    +0.000 P 
ATOM     24  O   UNL     1       7.769   5.479  14.287  0.00  0.00    +0.000 OA
BRANCH  23  25
ATOM     25  O   UNL     1       6.285   3.398  14.440  0.00  0.00    +0.000 OA
ATOM     26  H   UNL     1       5.332   3.236  14.352  0.00  0.00    +0.000 HD
ENDBRANCH  23  25
BRANCH  23  27
ATOM     27  O   UNL     1       5.302   5.583  14.939  0.00  0.00    +0.000 OA
ATOM     28  H   UNL     1       5.262   6.286  15.620  0.00  0.00    +0.000 HD
ENDBRANCH  23  27
ENDBRANCH  22  23
ENDBRANCH  19  22
ENDBRANCH  18  19
ENDBRANCH   1  18
TORSDOF 10
ENDMDL
MODEL 5
REMARK VINA RESULT:      -7.1      1.985      4.828
REMARK  Name = 
REMARK  11 active torsions:
REMARK  status: ('A' for Active; 'I' for Inactive)
REMARK    1  A    between atoms: C_1  and  C_2
REMARK    2  A    between atoms: C_2  and  N_3
REMARK    3  A    between atoms: N_3  and  C_4
REMARK    4  A    between atoms: N_3  and  C_20
REMARK    5  A    between atoms: C_4  and  C_5
REMARK    6  A    between atoms: C_7  and  N_8
REMARK    7  A    between atoms: C_14  and  O_15
REMARK    8  A    between atoms: C_16  and  O_17
REMARK    9  A    between atoms: C_20  and  P_21
REMARK   10  A    between atoms: P_21  and  O_23
REMARK   11  A    between atoms: P_21  and  O_24
REMARK                            x       y       z     vdW  Elec       q    Type
REMARK                         _______ _______ _______ _____ _____    ______ ____
ROOT
ATOM      1  C   UNL     1       2.516   5.076  17.788  0.00  0.00    +0.000 A 
ATOM      2  C   UNL     1       1.921   6.240  18.300  0.00  0.00    +0.000 A 
ATOM      3  C   UNL     1       2.558   7.479  18.178  0.00  0.00    +0.000 A 
ATOM      4  C   UNL     1       3.801   7.569  17.553  0.00  0.00    +0.000 A 
ATOM      5  C   UNL     1       4.405   6.443  17.029  0.00  0.00    +0.000 A 
ATOM      6  N   UNL     1       5.613   6.599  16.453  0.00  0.00    +0.000 NA
ATOM      7  C   UNL     1       6.165   5.478  15.975  0.00  0.00    +0.000 A 
ATOM      8  C   UNL     1       5.551   4.241  16.033  0.00  0.00    +0.000 A 
ATOM      9  N   UNL     1       4.339   4.076  16.586  0.00  0.00    +0.000 NA
ATOM     10  C   UNL     1       3.752   5.171  17.116  0.00  0.00    +0.000 A 
ENDROOT
BRANCH   3  11
ATOM     11  N   UNL     1       1.919   8.682  18.713  0.00  0.00    +0.000 N 
ATOM     12  O   UNL     1       1.526   8.648  19.889  0.00  0.00    +0.000 OA
ATOM     13  O   UNL     1       1.809   9.662  17.963  0.00  0.00    +0.000 OA
ENDBRANCH   3  11
BRANCH   7  14
ATOM     14  O   UNL     1       7.394   5.633  15.416  0.00  0.00    +0.000 OA
ATOM     15  H   UNL     1       7.293   6.506  14.991  0.00  0.00    +0.000 HD
ENDBRANCH   7  14
BRANCH   8  16
ATOM     16  O   UNL     1       6.158   3.116  15.555  0.00  0.00    +0.000 OA
ATOM     17  H   UNL     1       5.852   3.029  14.634  0.00  0.00    +0.000 HD
ENDBRANCH   8  16
BRANCH   1  18
ATOM     18  C   UNL     1       1.800   3.736  17.957  0.00  0.00    +0.000 C 
BRANCH  18  19
ATOM     19  N   UNL     1       1.935   3.048  19.272  0.00  0.00    +0.000 NA
BRANCH  19  21
ATOM     20  C   UNL     1       0.989   2.884  21.617  0.00  0.00    +0.000 C 
ATOM     21  C   UNL     1       0.745   3.062  20.114  0.00  0.00    +0.000 C 
ENDBRANCH  19  21
BRANCH  19  22
ATOM     22  C   UNL     1       3.208   3.475  19.906  0.00  0.00    +0.000 C 
BRANCH  22  23
ATOM     23  P   UNL     1       4.689   2.486  19.742  0.00  0.00    +0.000 P 
ATOM     24  O   UNL     1       5.137   1.802  20.996  0.00  0.00    +0.000 OA
BRANCH  23  25
ATOM     25  O   UNL     1       4.422   1.423  18.566  0.00  0.00    +0.000 OA
ATOM     26  H   UNL     1       4.113   0.549  18.850  0.00  0.00    +0.000 HD
ENDBRANCH  23  25
BRANCH  23  27
ATOM     27  O   UNL     1       5.887   3.315  19.080  0.00  0.00    +0.000 OA
ATOM     28  H   UNL     1       6.565   3.484  19.767  0.00  0.00    +0.000 HD
ENDBRANCH  23  27
ENDBRANCH  22  23
ENDBRANCH  19  22
ENDBRANCH  18  19
ENDBRANCH   1  18
TORSDOF 10
ENDMDL
MODEL 6
REMARK VINA RESULT:      -7.0      2.160      4.821
REMARK  Name = 
REMARK  11 active torsions:
REMARK  status: ('A' for Active; 'I' for Inactive)
REMARK    1  A    between atoms: C_1  and  C_2
REMARK    2  A    between atoms: C_2  and  N_3
REMARK    3  A    between atoms: N_3  and  C_4
REMARK    4  A    between atoms: N_3  and  C_20
REMARK    5  A    between atoms: C_4  and  C_5
REMARK    6  A    between atoms: C_7  and  N_8
REMARK    7  A    between atoms: C_14  and  O_15
REMARK    8  A    between atoms: C_16  and  O_17
REMARK    9  A    between atoms: C_20  and  P_21
REMARK   10  A    between atoms: P_21  and  O_23
REMARK   11  A    between atoms: P_21  and  O_24
REMARK                            x       y       z     vdW  Elec       q    Type
REMARK                         _______ _______ _______ _____ _____    ______ ____
ROOT
ATOM      1  C   UNL     1       3.589   4.909  18.618  0.00  0.00    +0.000 A 
ATOM      2  C   UNL     1       3.471   3.827  19.505  0.00  0.00    +0.000 A 
ATOM      3  C   UNL     1       2.687   3.933  20.658  0.00  0.00    +0.000 A 
ATOM      4  C   UNL     1       2.022   5.125  20.946  0.00  0.00    +0.000 A 
ATOM      5  C   UNL     1       2.110   6.201  20.086  0.00  0.00    +0.000 A 
ATOM      6  N   UNL     1       1.455   7.326  20.433  0.00  0.00    +0.000 NA
ATOM      7  C   UNL     1       1.584   8.347  19.578  0.00  0.00    +0.000 A 
ATOM      8  C   UNL     1       2.310   8.271  18.404  0.00  0.00    +0.000 A 
ATOM      9  N   UNL     1       2.951   7.150  18.037  0.00  0.00    +0.000 NA
ATOM     10  C   UNL     1       2.882   6.100  18.884  0.00  0.00    +0.000 A 
ENDROOT
BRANCH   3  11
ATOM     11  N   UNL     1       2.571   2.793  21.568  0.00  0.00    +0.000 N 
ATOM     12  O   UNL     1       3.557   2.048  21.683  0.00  0.00    +0.000 OA
ATOM     13  O   UNL     1       1.499   2.637  22.169  0.00  0.00    +0.000 OA
ENDBRANCH   3  11
BRANCH   7  14
ATOM     14  O   UNL     1       0.943   9.489  19.941  0.00  0.00    +0.000 OA
ATOM     15  H   UNL     1       0.159   9.452  19.360  0.00  0.00    +0.000 HD
ENDBRANCH   7  14
BRANCH   8  16
ATOM     16  O   UNL     1       2.437   9.343  17.569  0.00  0.00    +0.000 OA
ATOM     17  H   UNL     1       3.230   9.819  17.878  0.00  0.00    +0.000 HD
ENDBRANCH   8  16
BRANCH   1  18
ATOM     18  C   UNL     1       4.470   4.764  17.377  0.00  0.00    +0.000 C 
BRANCH  18  19
ATOM     19  N   UNL     1       5.947   4.820  17.574  0.00  0.00    +0.000 NA
BRANCH  19  21
ATOM     20  C   UNL     1       7.748   6.129  18.781  0.00  0.00    +0.000 C 
ATOM     21  C   UNL     1       6.488   6.131  17.909  0.00  0.00    +0.000 C 
ENDBRANCH  19  21
BRANCH  19  22
ATOM     22  C   UNL     1       6.604   4.090  16.460  0.00  0.00    +0.000 C 
BRANCH  22  23
ATOM     23  P   UNL     1       6.676   4.798  14.819  0.00  0.00    +0.000 P 
ATOM     24  O   UNL     1       7.984   5.429  14.457  0.00  0.00    +0.000 OA
BRANCH  23  25
ATOM     25  O   UNL     1       6.287   3.634  13.782  0.00  0.00    +0.000 OA
ATOM     26  H   UNL     1       6.549   3.785  12.860  0.00  0.00    +0.000 HD
ENDBRANCH  23  25
BRANCH  23  27
ATOM     27  O   UNL     1       5.460   5.804  14.552  0.00  0.00    +0.000 OA
ATOM     28  H   UNL     1       5.827   6.667  14.267  0.00  0.00    +0.000 HD
ENDBRANCH  23  27
ENDBRANCH  22  23
ENDBRANCH  19  22
ENDBRANCH  18  19
ENDBRANCH   1  18
TORSDOF 10
ENDMDL
MODEL 7
REMARK VINA RESULT:      -6.9      0.754      1.236
REMARK  Name = 
REMARK  11 active torsions:
REMARK  status: ('A' for Active; 'I' for Inactive)
REMARK    1  A    between atoms: C_1  and  C_2
REMARK    2  A    between atoms: C_2  and  N_3
REMARK    3  A    between atoms: N_3  and  C_4
REMARK    4  A    between atoms: N_3  and  C_20
REMARK    5  A    between atoms: C_4  and  C_5
REMARK    6  A    between atoms: C_7  and  N_8
REMARK    7  A    between atoms: C_14  and  O_15
REMARK    8  A    between atoms: C_16  and  O_17
REMARK    9  A    between atoms: C_20  and  P_21
REMARK   10  A    between atoms: P_21  and  O_23
REMARK   11  A    between atoms: P_21  and  O_24
REMARK                            x       y       z     vdW  Elec       q    Type
REMARK                         _______ _______ _______ _____ _____    ______ ____
ROOT
ATOM      1  C   UNL     1       3.785   5.377  17.614  0.00  0.00    +0.000 A 
ATOM      2  C   UNL     1       3.276   6.682  17.517  0.00  0.00    +0.000 A 
ATOM      3  C   UNL     1       2.523   7.231  18.560  0.00  0.00    +0.000 A 
ATOM      4  C   UNL     1       2.259   6.480  19.705  0.00  0.00    +0.000 A 
ATOM      5  C   UNL     1       2.756   5.199  19.832  0.00  0.00    +0.000 A 
ATOM      6  N   UNL     1       2.450   4.524  20.957  0.00  0.00    +0.000 NA
ATOM      7  C   UNL     1       2.941   3.281  21.027  0.00  0.00    +0.000 A 
ATOM      8  C   UNL     1       3.728   2.715  20.042  0.00  0.00    +0.000 A 
ATOM      9  N   UNL     1       4.057   3.384  18.925  0.00  0.00    +0.000 NA
ATOM     10  C   UNL     1       3.557   4.632  18.788  0.00  0.00    +0.000 A 
ENDROOT
BRANCH   3  11
ATOM     11  N   UNL     1       2.005   8.595  18.445  0.00  0.00    +0.000 N 
ATOM     12  O   UNL     1       2.209   9.198  17.380  0.00  0.00    +0.000 OA
ATOM     13  O   UNL     1       1.394   9.067  19.414  0.00  0.00    +0.000 OA
ENDBRANCH   3  11
BRANCH   7  14
ATOM     14  O   UNL     1       2.610   2.593  22.152  0.00  0.00    +0.000 OA
ATOM     15  H   UNL     1       1.732   2.971  22.346  0.00  0.00    +0.000 HD
ENDBRANCH   7  14
BRANCH   8  16
ATOM     16  O   UNL     1       4.189   1.435  20.140  0.00  0.00    +0.000 OA
ATOM     17  H   UNL     1       5.160   1.513  20.197  0.00  0.00    +0.000 HD
ENDBRANCH   8  16
BRANCH   1  18
ATOM     18  C   UNL     1       4.588   4.802  16.446  0.00  0.00    +0.000 C 
BRANCH  18  19
ATOM     19  N   UNL     1       5.969   5.324  16.241  0.00  0.00    +0.000 NA
BRANCH  19  21
ATOM     20  C   UNL     1       6.362   4.022  14.104  0.00  0.00    +0.000 C 
ATOM     21  C   UNL     1       6.432   5.353  14.859  0.00  0.00    +0.000 C 
ENDBRANCH  19  21
BRANCH  19  22
ATOM     22  C   UNL     1       6.871   4.688  17.235  0.00  0.00    +0.000 C 
BRANCH  22  23
ATOM     23  P   UNL     1       7.482   5.614  18.639  0.00  0.00    +0.000 P 
ATOM     24  O   UNL     1       7.851   7.035  18.351  0.00  0.00    +0.000 OA
BRANCH  23  25
ATOM     25  O   UNL     1       6.362   5.527  19.788  0.00  0.00    +0.000 OA
ATOM     26  H   UNL     1       5.574   6.076  19.651  0.00  0.00    +0.000 HD
ENDBRANCH  23  25
BRANCH  23  27
ATOM     27  O   UNL     1       8.678   4.849  19.379  0.00  0.00    +0.000 OA
ATOM     28  H   UNL     1       8.696   3.921  19.065  0.00  0.00    +0.000 HD
ENDBRANCH  23  27
ENDBRANCH  22  23
ENDBRANCH  19  22
ENDBRANCH  18  19
ENDBRANCH   1  18
TORSDOF 10
ENDMDL
MODEL 8
REMARK VINA RESULT:      -6.9      2.171      4.828
REMARK  Name = 
REMARK  11 active torsions:
REMARK  status: ('A' for Active; 'I' for Inactive)
REMARK    1  A    between atoms: C_1  and  C_2
REMARK    2  A    between atoms: C_2  and  N_3
REMARK    3  A    between atoms: N_3  and  C_4
REMARK    4  A    between atoms: N_3  and  C_20
REMARK    5  A    between atoms: C_4  and  C_5
REMARK    6  A    between atoms: C_7  and  N_8
REMARK    7  A    between atoms: C_14  and  O_15
REMARK    8  A    between atoms: C_16  and  O_17
REMARK    9  A    between atoms: C_20  and  P_21
REMARK   10  A    between atoms: P_21  and  O_23
REMARK   11  A    between atoms: P_21  and  O_24
REMARK                            x       y       z     vdW  Elec       q    Type
REMARK                         _______ _______ _______ _____ _____    ______ ____
ROOT
ATOM      1  C   UNL     1       3.297   4.764  18.613  0.00  0.00    +0.000 A 
ATOM      2  C   UNL     1       3.164   3.712  19.534  0.00  0.00    +0.000 A 
ATOM      3  C   UNL     1       2.474   3.902  20.736  0.00  0.00    +0.000 A 
ATOM      4  C   UNL     1       1.920   5.146  21.037  0.00  0.00    +0.000 A 
ATOM      5  C   UNL     1       2.026   6.194  20.145  0.00  0.00    +0.000 A 
ATOM      6  N   UNL     1       1.482   7.372  20.507  0.00  0.00    +0.000 NA
ATOM      7  C   UNL     1       1.623   8.363  19.618  0.00  0.00    +0.000 A 
ATOM      8  C   UNL     1       2.257   8.207  18.399  0.00  0.00    +0.000 A 
ATOM      9  N   UNL     1       2.785   7.033  18.018  0.00  0.00    +0.000 NA
ATOM     10  C   UNL     1       2.701   6.010  18.895  0.00  0.00    +0.000 A 
ENDROOT
BRANCH   3  11
ATOM     11  N   UNL     1       2.340   2.793  21.681  0.00  0.00    +0.000 N 
ATOM     12  O   UNL     1       1.224   2.605  22.191  0.00  0.00    +0.000 OA
ATOM     13  O   UNL     1       3.345   2.109  21.918  0.00  0.00    +0.000 OA
ENDBRANCH   3  11
BRANCH   7  14
ATOM     14  O   UNL     1       1.095   9.557  19.994  0.00  0.00    +0.000 OA
ATOM     15  H   UNL     1       1.771   9.864  20.628  0.00  0.00    +0.000 HD
ENDBRANCH   7  14
BRANCH   8  16
ATOM     16  O   UNL     1       2.402   9.248  17.529  0.00  0.00    +0.000 OA
ATOM     17  H   UNL     1       2.955   9.901  17.996  0.00  0.00    +0.000 HD
ENDBRANCH   8  16
BRANCH   1  18
ATOM     18  C   UNL     1       4.075   4.526  17.318  0.00  0.00    +0.000 C 
BRANCH  18  19
ATOM     19  N   UNL     1       5.560   4.442  17.415  0.00  0.00    +0.000 NA
BRANCH  19  21
ATOM     20  C   UNL     1       6.893   5.512  19.285  0.00  0.00    +0.000 C 
ATOM     21  C   UNL     1       6.227   5.640  17.911  0.00  0.00    +0.000 C 
ENDBRANCH  19  21
BRANCH  19  22
ATOM     22  C   UNL     1       6.087   3.856  16.157  0.00  0.00    +0.000 C 
BRANCH  22  23
ATOM     23  P   UNL     1       6.335   4.873  14.707  0.00  0.00    +0.000 P 
ATOM     24  O   UNL     1       5.433   6.063  14.603  0.00  0.00    +0.000 OA
BRANCH  23  25
ATOM     25  O   UNL     1       7.881   5.314  14.695  0.00  0.00    +0.000 OA
ATOM     26  H   UNL     1       8.424   4.966  15.420  0.00  0.00    +0.000 HD
ENDBRANCH  23  25
BRANCH  23  27
ATOM     27  O   UNL     1       6.299   4.007  13.361  0.00  0.00    +0.000 OA
ATOM     28  H   UNL     1       6.693   4.539  12.638  0.00  0.00    +0.000 HD
ENDBRANCH  23  27
ENDBRANCH  22  23
ENDBRANCH  19  22
ENDBRANCH  18  19
ENDBRANCH   1  18
TORSDOF 10
ENDMDL
MODEL 9
REMARK VINA RESULT:      -6.9      1.272      4.293
REMARK  Name = 
REMARK  11 active torsions:
REMARK  status: ('A' for Active; 'I' for Inactive)
REMARK    1  A    between atoms: C_1  and  C_2
REMARK    2  A    between atoms: C_2  and  N_3
REMARK    3  A    between atoms: N_3  and  C_4
REMARK    4  A    between atoms: N_3  and  C_20
REMARK    5  A    between atoms: C_4  and  C_5
REMARK    6  A    between atoms: C_7  and  N_8
REMARK    7  A    between atoms: C_14  and  O_15
REMARK    8  A    between atoms: C_16  and  O_17
REMARK    9  A    between atoms: C_20  and  P_21
REMARK   10  A    between atoms: P_21  and  O_23
REMARK   11  A    between atoms: P_21  and  O_24
REMARK                            x       y       z     vdW  Elec       q    Type
REMARK                         _______ _______ _______ _____ _____    ______ ____
ROOT
ATOM      1  C   UNL     1       3.313   4.686  18.298  0.00  0.00    +0.000 A 
ATOM      2  C   UNL     1       3.280   3.633  19.227  0.00  0.00    +0.000 A 
ATOM      3  C   UNL     1       2.724   3.821  20.497  0.00  0.00    +0.000 A 
ATOM      4  C   UNL     1       2.206   5.064  20.858  0.00  0.00    +0.000 A 
ATOM      5  C   UNL     1       2.215   6.114  19.961  0.00  0.00    +0.000 A 
ATOM      6  N   UNL     1       1.714   7.292  20.382  0.00  0.00    +0.000 NA
ATOM      7  C   UNL     1       1.759   8.283  19.484  0.00  0.00    +0.000 A 
ATOM      8  C   UNL     1       2.257   8.130  18.203  0.00  0.00    +0.000 A 
ATOM      9  N   UNL     1       2.740   6.956  17.765  0.00  0.00    +0.000 NA
ATOM     10  C   UNL     1       2.751   5.931  18.645  0.00  0.00    +0.000 A 
ENDROOT
BRANCH   3  11
ATOM     11  N   UNL     1       2.693   2.711  21.449  0.00  0.00    +0.000 N 
ATOM     12  O   UNL     1       3.722   2.029  21.570  0.00  0.00    +0.000 OA
ATOM     13  O   UNL     1       1.643   2.516  22.079  0.00  0.00    +0.000 OA
ENDBRANCH   3  11
BRANCH   7  14
ATOM     14  O   UNL     1       1.275   9.477  19.917  0.00  0.00    +0.000 OA
ATOM     15  H   UNL     1       1.806  10.096  19.380  0.00  0.00    +0.000 HD
ENDBRANCH   7  14
BRANCH   8  16
ATOM     16  O   UNL     1       2.307   9.172  17.324  0.00  0.00    +0.000 OA
ATOM     17  H   UNL     1       1.745   8.905  16.574  0.00  0.00    +0.000 HD
ENDBRANCH   8  16
BRANCH   1  18
ATOM     18  C   UNL     1       3.946   4.450  16.926  0.00  0.00    +0.000 C 
BRANCH  18  19
ATOM     19  N   UNL     1       5.196   5.198  16.610  0.00  0.00    +0.000 NA
BRANCH  19  21
ATOM     20  C   UNL     1       5.619   4.375  14.252  0.00  0.00    +0.000 C 
ATOM     21  C   UNL     1       5.381   5.549  15.207  0.00  0.00    +0.000 C 
ENDBRANCH  19  21
BRANCH  19  22
ATOM     22  C   UNL     1       6.335   4.529  17.289  0.00  0.00    +0.000 C 
BRANCH  22  23
ATOM     23  P   UNL     1       7.188   5.327  18.644  0.00  0.00    +0.000 P 
ATOM     24  O   UNL     1       6.425   5.381  19.930  0.00  0.00    +0.000 OA
BRANCH  23  25
ATOM     25  O   UNL     1       8.592   4.567  18.834  0.00  0.00    +0.000 OA
ATOM     26  H   UNL     1       9.249   4.714  18.135  0.00  0.00    +0.000 HD
ENDBRANCH  23  25
BRANCH  23  27
ATOM     27  O   UNL     1       7.728   6.777  18.235  0.00  0.00    +0.000 OA
ATOM     28  H   UNL     1       7.366   7.007  17.354  0.00  0.00    +0.000 HD
ENDBRANCH  23  27
ENDBRANCH  22  23
ENDBRANCH  19  22
ENDBRANCH  18  19
ENDBRANCH   1  18
TORSDOF 10
ENDMDL
