MODEL 1
REMARK VINA RESULT:      -9.1      0.000      0.000
REMARK  Name = 
REMARK  4 active torsions:
REMARK  status: ('A' for Active; 'I' for Inactive)
REMARK    1  A    between atoms: C_1  and  C_2
REMARK    2  A    between atoms: C_6  and  N_7
REMARK    3  A    between atoms: C_9  and  C_10
REMARK    4  A    between atoms: C_13  and  C_14
REMARK                            x       y       z     vdW  Elec       q    Type
REMARK                         _______ _______ _______ _____ _____    ______ ____
ROOT
ATOM      1  C   UNL     1       0.678   9.273  20.572  0.00  0.00    +0.000 A 
ATOM      2  C   UNL     1       1.295   8.083  20.977  0.00  0.00    +0.000 A 
ATOM      3  C   UNL     1       2.129   7.373  20.111  0.00  0.00    +0.000 A 
ATOM      4  C   UNL     1       2.332   7.812  18.805  0.00  0.00    +0.000 A 
ATOM      5  C   UNL     1       1.700   9.000  18.395  0.00  0.00    +0.000 A 
ATOM      6  C   UNL     1       0.875   9.723  19.266  0.00  0.00    +0.000 A 
ENDROOT
BRANCH   4   7
ATOM      7  C   UNL     1       3.283   7.174  17.885  0.00  0.00    +0.000 C 
ATOM      8  C   UNL     1       3.520   5.882  17.598  0.00  0.00    +0.000 C 
ATOM      9  C   UNL     1       2.860   4.613  18.089  0.00  0.00    +0.000 C 
ATOM     10  O   UNL     1       1.930   4.475  18.859  0.00  0.00    +0.000 OA
ATOM     11  N   UNL     1       3.546   3.582  17.460  0.00  0.00    +0.000 N 
ATOM     12  C   UNL     1       4.539   4.069  16.618  0.00  0.00    +0.000 A 
ATOM     13  C   UNL     1       5.398   3.330  15.830  0.00  0.00    +0.000 A 
ATOM     14  C   UNL     1       6.323   4.033  15.053  0.00  0.00    +0.000 A 
ATOM     15  C   UNL     1       6.368   5.436  15.084  0.00  0.00    +0.000 A 
ATOM     16  C   UNL     1       5.489   6.165  15.891  0.00  0.00    +0.000 A 
ATOM     17  C   UNL     1       4.573   5.463  16.656  0.00  0.00    +0.000 A 
ATOM     18  H   UNL     1       3.317   2.611  17.602  0.00  0.00    +0.000 HD
ENDBRANCH   4   7
BRANCH   1  21
ATOM     19  N   UNL     1      -1.414  11.561  22.362  0.00  0.00    +0.000 N 
ATOM     20  C   UNL     1      -0.884  11.120  21.179  0.00  0.00    +0.000 A 
ATOM     21  C   UNL     1      -0.102  10.041  21.516  0.00  0.00    +0.000 A 
ATOM     22  N   UNL     1      -0.207   9.813  22.857  0.00  0.00    +0.000 NA
ATOM     23  N   UNL     1      -0.994  10.754  23.371  0.00  0.00    +0.000 NA
BRANCH  19  29
ATOM     24  C   UNL     1      -5.661  13.917  21.371  0.00  0.00    +0.000 C 
ATOM     25  C   UNL     1      -4.344  13.862  22.089  0.00  0.00    +0.000 A 
ATOM     26  C   UNL     1      -3.946  14.880  22.959  0.00  0.00    +0.000 A 
ATOM     27  C   UNL     1      -2.724  14.800  23.630  0.00  0.00    +0.000 A 
ATOM     28  C   UNL     1      -1.884  13.700  23.441  0.00  0.00    +0.000 A 
ATOM     29  C   UNL     1      -2.265  12.677  22.566  0.00  0.00    +0.000 A 
ATOM     30  C   UNL     1      -3.495  12.765  21.891  0.00  0.00    +0.000 A 
ENDBRANCH  19  29
ENDBRANCH   1  21
TORSDOF 3
ENDMDL
MODEL 2
REMARK VINA RESULT:      -9.1      2.262     11.177
REMARK  Name = 
REMARK  4 active torsions:
REMARK  status: ('A' for Active; 'I' for Inactive)
REMARK    1  A    between atoms: C_1  and  C_2
REMARK    2  A    between atoms: C_6  and  N_7
REMARK    3  A    between atoms: C_9  and  C_10
REMARK    4  A    between atoms: C_13  and  C_14
REMARK                            x       y       z     vdW  Elec       q    Type
REMARK                         _______ _______ _______ _____ _____    ______ ____
ROOT
ATOM      1  C   UNL     1       3.287   6.883  18.162  0.00  0.00    +0.000 A 
ATOM      2  C   UNL     1       2.905   8.106  17.595  0.00  0.00    +0.000 A 
ATOM      3  C   UNL     1       2.070   8.989  18.283  0.00  0.00    +0.000 A 
ATOM      4  C   UNL     1       1.561   8.653  19.535  0.00  0.00    +0.000 A 
ATOM      5  C   UNL     1       1.933   7.418  20.096  0.00  0.00    +0.000 A 
ATOM      6  C   UNL     1       2.784   6.536  19.417  0.00  0.00    +0.000 A 
ENDROOT
BRANCH   4   7
ATOM      7  C   UNL     1       0.773   9.583  20.354  0.00  0.00    +0.000 C 
ATOM      8  C   UNL     1      -0.262  10.385  20.050  0.00  0.00    +0.000 C 
ATOM      9  C   UNL     1      -1.021  10.590  18.759  0.00  0.00    +0.000 C 
ATOM     10  O   UNL     1      -0.873  10.045  17.682  0.00  0.00    +0.000 OA
ATOM     11  N   UNL     1      -1.971  11.561  19.048  0.00  0.00    +0.000 N 
ATOM     12  C   UNL     1      -1.902  11.964  20.376  0.00  0.00    +0.000 A 
ATOM     13  C   UNL     1      -2.701  12.897  21.006  0.00  0.00    +0.000 A 
ATOM     14  C   UNL     1      -2.456  13.144  22.360  0.00  0.00    +0.000 A 
ATOM     15  C   UNL     1      -1.431  12.466  23.040  0.00  0.00    +0.000 A 
ATOM     16  C   UNL     1      -0.632  11.527  22.381  0.00  0.00    +0.000 A 
ATOM     17  C   UNL     1      -0.882  11.282  21.042  0.00  0.00    +0.000 A 
ATOM     18  H   UNL     1      -2.628  11.899  18.362  0.00  0.00    +0.000 HD
ENDBRANCH   4   7
BRANCH   1  21
ATOM     19  N   UNL     1       5.441   5.135  15.900  0.00  0.00    +0.000 N 
ATOM     20  C   UNL     1       4.545   6.142  16.141  0.00  0.00    +0.000 A 
ATOM     21  C   UNL     1       4.229   6.030  17.474  0.00  0.00    +0.000 A 
ATOM     22  N   UNL     1       4.958   5.017  18.023  0.00  0.00    +0.000 NA
ATOM     23  N   UNL     1       5.683   4.462  17.055  0.00  0.00    +0.000 NA
BRANCH  19  29
ATOM     24  C   UNL     1       5.332   2.559  11.667  0.00  0.00    +0.000 C 
ATOM     25  C   UNL     1       6.024   3.531  12.577  0.00  0.00    +0.000 A 
ATOM     26  C   UNL     1       7.245   4.114  12.228  0.00  0.00    +0.000 A 
ATOM     27  C   UNL     1       7.862   5.030  13.082  0.00  0.00    +0.000 A 
ATOM     28  C   UNL     1       7.266   5.376  14.296  0.00  0.00    +0.000 A 
ATOM     29  C   UNL     1       6.048   4.795  14.665  0.00  0.00    +0.000 A 
ATOM     30  C   UNL     1       5.434   3.871  13.801  0.00  0.00    +0.000 A 
ENDBRANCH  19  29
ENDBRANCH   1  21
TORSDOF 3
ENDMDL
MODEL 3
REMARK VINA RESULT:      -9.1      0.636      1.328
REMARK  Name = 
REMARK  4 active torsions:
REMARK  status: ('A' for Active; 'I' for Inactive)
REMARK    1  A    between atoms: C_1  and  C_2
REMARK    2  A    between atoms: C_6  and  N_7
REMARK    3  A    between atoms: C_9  and  C_10
REMARK    4  A    between atoms: C_13  and  C_14
REMARK                            x       y       z     vdW  Elec       q    Type
REMARK                         _______ _______ _______ _____ _____    ______ ____
ROOT
ATOM      1  C   UNL     1       0.429   9.677  20.660  0.00  0.00    +0.000 A 
ATOM      2  C   UNL     1       1.103   8.546  21.139  0.00  0.00    +0.000 A 
ATOM      3  C   UNL     1       1.929   7.793  20.303  0.00  0.00    +0.000 A 
ATOM      4  C   UNL     1       2.070   8.126  18.958  0.00  0.00    +0.000 A 
ATOM      5  C   UNL     1       1.381   9.253  18.475  0.00  0.00    +0.000 A 
ATOM      6  C   UNL     1       0.563  10.021  19.314  0.00  0.00    +0.000 A 
ENDROOT
BRANCH   4   7
ATOM      7  C   UNL     1       3.009   7.443  18.058  0.00  0.00    +0.000 C 
ATOM      8  C   UNL     1       3.266   6.139  17.856  0.00  0.00    +0.000 C 
ATOM      9  C   UNL     1       2.646   4.895  18.453  0.00  0.00    +0.000 C 
ATOM     10  O   UNL     1       1.740   4.794  19.257  0.00  0.00    +0.000 OA
ATOM     11  N   UNL     1       3.337   3.836  17.878  0.00  0.00    +0.000 N 
ATOM     12  C   UNL     1       4.297   4.282  16.976  0.00  0.00    +0.000 A 
ATOM     13  C   UNL     1       5.149   3.506  16.218  0.00  0.00    +0.000 A 
ATOM     14  C   UNL     1       6.037   4.170  15.367  0.00  0.00    +0.000 A 
ATOM     15  C   UNL     1       6.053   5.573  15.299  0.00  0.00    +0.000 A 
ATOM     16  C   UNL     1       5.181   6.340  16.078  0.00  0.00    +0.000 A 
ATOM     17  C   UNL     1       4.301   5.676  16.915  0.00  0.00    +0.000 A 
ATOM     18  H   UNL     1       3.132   2.873  18.094  0.00  0.00    +0.000 HD
ENDBRANCH   4   7
BRANCH   1  21
ATOM     19  N   UNL     1      -1.771  11.954  22.330  0.00  0.00    +0.000 N 
ATOM     20  C   UNL     1      -1.326  11.372  21.173  0.00  0.00    +0.000 A 
ATOM     21  C   UNL     1      -0.343  10.497  21.567  0.00  0.00    +0.000 A 
ATOM     22  N   UNL     1      -0.242  10.518  22.926  0.00  0.00    +0.000 NA
ATOM     23  N   UNL     1      -1.103  11.422  23.386  0.00  0.00    +0.000 NA
BRANCH  19  29
ATOM     24  C   UNL     1      -3.598  15.819  24.838  0.00  0.00    +0.000 C 
ATOM     25  C   UNL     1      -3.687  14.859  23.688  0.00  0.00    +0.000 A 
ATOM     26  C   UNL     1      -4.716  14.944  22.746  0.00  0.00    +0.000 A 
ATOM     27  C   UNL     1      -4.768  14.052  21.674  0.00  0.00    +0.000 A 
ATOM     28  C   UNL     1      -3.793  13.063  21.528  0.00  0.00    +0.000 A 
ATOM     29  C   UNL     1      -2.761  12.960  22.467  0.00  0.00    +0.000 A 
ATOM     30  C   UNL     1      -2.715  13.860  23.546  0.00  0.00    +0.000 A 
ENDBRANCH  19  29
ENDBRANCH   1  21
TORSDOF 3
ENDMDL
MODEL 4
REMARK VINA RESULT:      -9.0      2.196     11.114
REMARK  Name = 
REMARK  4 active torsions:
REMARK  status: ('A' for Active; 'I' for Inactive)
REMARK    1  A    between atoms: C_1  and  C_2
REMARK    2  A    between atoms: C_6  and  N_7
REMARK    3  A    between atoms: C_9  and  C_10
REMARK    4  A    between atoms: C_13  and  C_14
REMARK                            x       y       z     vdW  Elec       q    Type
REMARK                         _______ _______ _______ _____ _____    ______ ____
ROOT
ATOM      1  C   UNL     1       3.266   6.580  18.267  0.00  0.00    +0.000 A 
ATOM      2  C   UNL     1       2.758   6.188  19.512  0.00  0.00    +0.000 A 
ATOM      3  C   UNL     1       1.996   7.065  20.287  0.00  0.00    +0.000 A 
ATOM      4  C   UNL     1       1.759   8.368  19.857  0.00  0.00    +0.000 A 
ATOM      5  C   UNL     1       2.283   8.765  18.613  0.00  0.00    +0.000 A 
ATOM      6  C   UNL     1       3.034   7.883  17.825  0.00  0.00    +0.000 A 
ENDROOT
BRANCH   4   7
ATOM      7  C   UNL     1       0.874   9.299  20.571  0.00  0.00    +0.000 C 
ATOM      8  C   UNL     1      -0.100  10.116  20.136  0.00  0.00    +0.000 C 
ATOM      9  C   UNL     1      -0.671  10.343  18.755  0.00  0.00    +0.000 C 
ATOM     10  O   UNL     1      -0.382   9.808  17.703  0.00  0.00    +0.000 OA
ATOM     11  N   UNL     1      -1.642  11.323  18.922  0.00  0.00    +0.000 N 
ATOM     12  C   UNL     1      -1.752  11.711  20.252  0.00  0.00    +0.000 A 
ATOM     13  C   UNL     1      -2.621  12.646  20.776  0.00  0.00    +0.000 A 
ATOM     14  C   UNL     1      -2.563  12.877  22.154  0.00  0.00    +0.000 A 
ATOM     15  C   UNL     1      -1.648  12.180  22.961  0.00  0.00    +0.000 A 
ATOM     16  C   UNL     1      -0.776  11.238  22.407  0.00  0.00    +0.000 A 
ATOM     17  C   UNL     1      -0.842  11.010  21.043  0.00  0.00    +0.000 A 
ATOM     18  H   UNL     1      -2.194  11.676  18.156  0.00  0.00    +0.000 HD
ENDBRANCH   4   7
BRANCH   1  21
ATOM     19  N   UNL     1       5.103   4.752  15.798  0.00  0.00    +0.000 N 
ATOM     20  C   UNL     1       4.601   5.939  16.261  0.00  0.00    +0.000 A 
ATOM     21  C   UNL     1       3.968   5.625  17.440  0.00  0.00    +0.000 A 
ATOM     22  N   UNL     1       4.135   4.296  17.698  0.00  0.00    +0.000 NA
ATOM     23  N   UNL     1       4.812   3.765  16.684  0.00  0.00    +0.000 NA
BRANCH  19  29
ATOM     24  C   UNL     1       5.460   2.423  11.437  0.00  0.00    +0.000 C 
ATOM     25  C   UNL     1       6.019   3.386  12.444  0.00  0.00    +0.000 A 
ATOM     26  C   UNL     1       7.215   4.069  12.212  0.00  0.00    +0.000 A 
ATOM     27  C   UNL     1       7.707   4.974  13.155  0.00  0.00    +0.000 A 
ATOM     28  C   UNL     1       7.009   5.208  14.341  0.00  0.00    +0.000 A 
ATOM     29  C   UNL     1       5.813   4.525  14.592  0.00  0.00    +0.000 A 
ATOM     30  C   UNL     1       5.325   3.614  13.639  0.00  0.00    +0.000 A 
ENDBRANCH  19  29
ENDBRANCH   1  21
TORSDOF 3
ENDMDL
MODEL 5
REMARK VINA RESULT:      -8.9      1.286      1.302
REMARK  Name = 
REMARK  4 active torsions:
REMARK  status: ('A' for Active; 'I' for Inactive)
REMARK    1  A    between atoms: C_1  and  C_2
REMARK    2  A    between atoms: C_6  and  N_7
REMARK    3  A    between atoms: C_9  and  C_10
REMARK    4  A    between atoms: C_13  and  C_14
REMARK                            x       y       z     vdW  Elec       q    Type
REMARK                         _______ _______ _______ _____ _____    ______ ____
ROOT
ATOM      1  C   UNL     1       0.937   8.961  20.562  0.00  0.00    +0.000 A 
ATOM      2  C   UNL     1       1.457   7.684  20.810  0.00  0.00    +0.000 A 
ATOM      3  C   UNL     1       2.227   7.021  19.852  0.00  0.00    +0.000 A 
ATOM      4  C   UNL     1       2.460   7.599  18.607  0.00  0.00    +0.000 A 
ATOM      5  C   UNL     1       1.925   8.875  18.354  0.00  0.00    +0.000 A 
ATOM      6  C   UNL     1       1.166   9.550  19.318  0.00  0.00    +0.000 A 
ENDROOT
BRANCH   4   7
ATOM      7  C   UNL     1       3.352   7.004  17.603  0.00  0.00    +0.000 C 
ATOM      8  C   UNL     1       4.340   6.099  17.709  0.00  0.00    +0.000 C 
ATOM      9  C   UNL     1       4.865   5.329  18.900  0.00  0.00    +0.000 C 
ATOM     10  O   UNL     1       4.488   5.343  20.055  0.00  0.00    +0.000 OA
ATOM     11  N   UNL     1       5.909   4.559  18.401  0.00  0.00    +0.000 N 
ATOM     12  C   UNL     1       6.074   4.748  17.034  0.00  0.00    +0.000 A 
ATOM     13  C   UNL     1       7.001   4.135  16.215  0.00  0.00    +0.000 A 
ATOM     14  C   UNL     1       6.984   4.473  14.859  0.00  0.00    +0.000 A 
ATOM     15  C   UNL     1       6.057   5.405  14.362  0.00  0.00    +0.000 A 
ATOM     16  C   UNL     1       5.128   6.015  15.210  0.00  0.00    +0.000 A 
ATOM     17  C   UNL     1       5.146   5.673  16.552  0.00  0.00    +0.000 A 
ATOM     18  H   UNL     1       6.449   3.937  18.980  0.00  0.00    +0.000 HD
ENDBRANCH   4   7
BRANCH   1  21
ATOM     19  N   UNL     1      -0.955  11.171  22.647  0.00  0.00    +0.000 N 
ATOM     20  C   UNL     1      -0.469  10.837  21.411  0.00  0.00    +0.000 A 
ATOM     21  C   UNL     1       0.227   9.667  21.604  0.00  0.00    +0.000 A 
ATOM     22  N   UNL     1       0.112   9.287  22.909  0.00  0.00    +0.000 NA
ATOM     23  N   UNL     1      -0.595  10.218  23.545  0.00  0.00    +0.000 NA
BRANCH  19  29
ATOM     24  C   UNL     1      -5.309  13.178  23.906  0.00  0.00    +0.000 C 
ATOM     25  C   UNL     1      -3.846  13.333  23.609  0.00  0.00    +0.000 A 
ATOM     26  C   UNL     1      -3.216  14.577  23.681  0.00  0.00    +0.000 A 
ATOM     27  C   UNL     1      -1.850  14.695  23.418  0.00  0.00    +0.000 A 
ATOM     28  C   UNL     1      -1.095  13.570  23.081  0.00  0.00    +0.000 A 
ATOM     29  C   UNL     1      -1.713  12.317  22.997  0.00  0.00    +0.000 A 
ATOM     30  C   UNL     1      -3.090  12.206  23.260  0.00  0.00    +0.000 A 
ENDBRANCH  19  29
ENDBRANCH   1  21
TORSDOF 3
ENDMDL
MODEL 6
REMARK VINA RESULT:      -8.8      2.437     11.288
REMARK  Name = 
REMARK  4 active torsions:
REMARK  status: ('A' for Active; 'I' for Inactive)
REMARK    1  A    between atoms: C_1  and  C_2
REMARK    2  A    between atoms: C_6  and  N_7
REMARK    3  A    between atoms: C_9  and  C_10
REMARK    4  A    between atoms: C_13  and  C_14
REMARK                            x       y       z     vdW  Elec       q    Type
REMARK                         _______ _______ _______ _____ _____    ______ ____
ROOT
ATOM      1  C   UNL     1       3.565   6.495  18.088  0.00  0.00    +0.000 A 
ATOM      2  C   UNL     1       3.073   7.700  17.568  0.00  0.00    +0.000 A 
ATOM      3  C   UNL     1       2.207   8.505  18.310  0.00  0.00    +0.000 A 
ATOM      4  C   UNL     1       1.777   8.106  19.573  0.00  0.00    +0.000 A 
ATOM      5  C   UNL     1       2.260   6.889  20.088  0.00  0.00    +0.000 A 
ATOM      6  C   UNL     1       3.142   6.086  19.353  0.00  0.00    +0.000 A 
ENDROOT
BRANCH   4   7
ATOM      7  C   UNL     1       0.959   8.958  20.447  0.00  0.00    +0.000 C 
ATOM      8  C   UNL     1       0.725  10.281  20.439  0.00  0.00    +0.000 C 
ATOM      9  C   UNL     1       1.184  11.372  19.497  0.00  0.00    +0.000 C 
ATOM     10  O   UNL     1       1.872  11.289  18.499  0.00  0.00    +0.000 OA
ATOM     11  N   UNL     1       0.642  12.544  20.009  0.00  0.00    +0.000 N 
ATOM     12  C   UNL     1      -0.119  12.300  21.146  0.00  0.00    +0.000 A 
ATOM     13  C   UNL     1      -0.811  13.227  21.899  0.00  0.00    +0.000 A 
ATOM     14  C   UNL     1      -1.520  12.756  23.007  0.00  0.00    +0.000 A 
ATOM     15  C   UNL     1      -1.517  11.389  23.334  0.00  0.00    +0.000 A 
ATOM     16  C   UNL     1      -0.808  10.468  22.558  0.00  0.00    +0.000 A 
ATOM     17  C   UNL     1      -0.111  10.940  21.459  0.00  0.00    +0.000 A 
ATOM     18  H   UNL     1       0.786  13.442  19.577  0.00  0.00    +0.000 HD
ENDBRANCH   4   7
BRANCH   1  21
ATOM     19  N   UNL     1       5.723   4.939  15.693  0.00  0.00    +0.000 N 
ATOM     20  C   UNL     1       4.757   5.862  15.991  0.00  0.00    +0.000 A 
ATOM     21  C   UNL     1       4.536   5.728  17.341  0.00  0.00    +0.000 A 
ATOM     22  N   UNL     1       5.386   4.787  17.843  0.00  0.00    +0.000 NA
ATOM     23  N   UNL     1       6.096   4.296  16.830  0.00  0.00    +0.000 NA
BRANCH  19  29
ATOM     24  C   UNL     1       5.593   2.334  11.479  0.00  0.00    +0.000 C 
ATOM     25  C   UNL     1       6.245   3.375  12.342  0.00  0.00    +0.000 A 
ATOM     26  C   UNL     1       7.379   4.069  11.914  0.00  0.00    +0.000 A 
ATOM     27  C   UNL     1       7.958   5.046  12.726  0.00  0.00    +0.000 A 
ATOM     28  C   UNL     1       7.411   5.343  13.976  0.00  0.00    +0.000 A 
ATOM     29  C   UNL     1       6.280   4.650  14.422  0.00  0.00    +0.000 A 
ATOM     30  C   UNL     1       5.704   3.665  13.601  0.00  0.00    +0.000 A 
ENDBRANCH  19  29
ENDBRANCH   1  21
TORSDOF 3
ENDMDL
MODEL 7
REMARK VINA RESULT:      -8.7      1.366      2.043
REMARK  Name = 
REMARK  4 active torsions:
REMARK  status: ('A' for Active; 'I' for Inactive)
REMARK    1  A    between atoms: C_1  and  C_2
REMARK    2  A    between atoms: C_6  and  N_7
REMARK    3  A    between atoms: C_9  and  C_10
REMARK    4  A    between atoms: C_13  and  C_14
REMARK                            x       y       z     vdW  Elec       q    Type
REMARK                         _______ _______ _______ _____ _____    ______ ____
ROOT
ATOM      1  C   UNL     1       0.082  10.084  19.555  0.00  0.00    +0.000 A 
ATOM      2  C   UNL     1       0.837   9.230  20.369  0.00  0.00    +0.000 A 
ATOM      3  C   UNL     1       1.835   8.416  19.829  0.00  0.00    +0.000 A 
ATOM      4  C   UNL     1       2.074   8.403  18.457  0.00  0.00    +0.000 A 
ATOM      5  C   UNL     1       1.305   9.250  17.639  0.00  0.00    +0.000 A 
ATOM      6  C   UNL     1       0.314  10.080  18.179  0.00  0.00    +0.000 A 
ENDROOT
BRANCH   4   7
ATOM      7  C   UNL     1       3.181   7.657  17.844  0.00  0.00    +0.000 C 
ATOM      8  C   UNL     1       3.373   6.341  17.652  0.00  0.00    +0.000 C 
ATOM      9  C   UNL     1       2.495   5.148  17.958  0.00  0.00    +0.000 C 
ATOM     10  O   UNL     1       1.381   5.114  18.443  0.00  0.00    +0.000 OA
ATOM     11  N   UNL     1       3.234   4.042  17.557  0.00  0.00    +0.000 N 
ATOM     12  C   UNL     1       4.459   4.416  17.016  0.00  0.00    +0.000 A 
ATOM     13  C   UNL     1       5.432   3.581  16.506  0.00  0.00    +0.000 A 
ATOM     14  C   UNL     1       6.592   4.178  16.005  0.00  0.00    +0.000 A 
ATOM     15  C   UNL     1       6.750   5.574  16.028  0.00  0.00    +0.000 A 
ATOM     16  C   UNL     1       5.751   6.400  16.552  0.00  0.00    +0.000 A 
ATOM     17  C   UNL     1       4.602   5.804  17.043  0.00  0.00    +0.000 A 
ATOM     18  H   UNL     1       2.890   3.099  17.644  0.00  0.00    +0.000 HD
ENDBRANCH   4   7
BRANCH   1  21
ATOM     19  N   UNL     1      -1.912  12.247  21.593  0.00  0.00    +0.000 N 
ATOM     20  C   UNL     1      -0.806  11.456  21.438  0.00  0.00    +0.000 A 
ATOM     21  C   UNL     1      -0.878  10.987  20.148  0.00  0.00    +0.000 A 
ATOM     22  N   UNL     1      -1.969  11.528  19.535  0.00  0.00    +0.000 NA
ATOM     23  N   UNL     1      -2.608  12.281  20.427  0.00  0.00    +0.000 NA
BRANCH  19  29
ATOM     24  C   UNL     1      -1.030  15.716  25.022  0.00  0.00    +0.000 C 
ATOM     25  C   UNL     1      -1.910  14.634  24.466  0.00  0.00    +0.000 A 
ATOM     26  C   UNL     1      -3.127  14.305  25.068  0.00  0.00    +0.000 A 
ATOM     27  C   UNL     1      -3.938  13.307  24.524  0.00  0.00    +0.000 A 
ATOM     28  C   UNL     1      -3.544  12.626  23.370  0.00  0.00    +0.000 A 
ATOM     29  C   UNL     1      -2.324  12.939  22.760  0.00  0.00    +0.000 A 
ATOM     30  C   UNL     1      -1.510  13.943  23.315  0.00  0.00    +0.000 A 
ENDBRANCH  19  29
ENDBRANCH   1  21
TORSDOF 3
ENDMDL
MODEL 8
REMARK VINA RESULT:      -8.6      1.195      1.730
REMARK  Name = 
REMARK  4 active torsions:
REMARK  status: ('A' for Active; 'I' for Inactive)
REMARK    1  A    between atoms: C_1  and  C_2
REMARK    2  A    between atoms: C_6  and  N_7
REMARK    3  A    between atoms: C_9  and  C_10
REMARK    4  A    between atoms: C_13  and  C_14
REMARK                            x       y       z     vdW  Elec       q    Type
REMARK                         _______ _______ _______ _____ _____    ______ ____
ROOT
ATOM      1  C   UNL     1       0.980   9.108  20.521  0.00  0.00    +0.000 A 
ATOM      2  C   UNL     1       1.459   7.816  20.779  0.00  0.00    +0.000 A 
ATOM      3  C   UNL     1       2.210   7.123  19.828  0.00  0.00    +0.000 A 
ATOM      4  C   UNL     1       2.465   7.685  18.580  0.00  0.00    +0.000 A 
ATOM      5  C   UNL     1       1.972   8.976  18.316  0.00  0.00    +0.000 A 
ATOM      6  C   UNL     1       1.231   9.681  19.273  0.00  0.00    +0.000 A 
ENDROOT
BRANCH   4   7
ATOM      7  C   UNL     1       3.341   7.055  17.582  0.00  0.00    +0.000 C 
ATOM      8  C   UNL     1       4.305   6.126  17.699  0.00  0.00    +0.000 C 
ATOM      9  C   UNL     1       4.809   5.355  18.898  0.00  0.00    +0.000 C 
ATOM     10  O   UNL     1       4.432   5.391  20.053  0.00  0.00    +0.000 OA
ATOM     11  N   UNL     1       5.831   4.552  18.408  0.00  0.00    +0.000 N 
ATOM     12  C   UNL     1       6.002   4.721  17.039  0.00  0.00    +0.000 A 
ATOM     13  C   UNL     1       6.912   4.075  16.228  0.00  0.00    +0.000 A 
ATOM     14  C   UNL     1       6.905   4.399  14.868  0.00  0.00    +0.000 A 
ATOM     15  C   UNL     1       6.003   5.349  14.361  0.00  0.00    +0.000 A 
ATOM     16  C   UNL     1       5.091   5.993  15.202  0.00  0.00    +0.000 A 
ATOM     17  C   UNL     1       5.100   5.665  16.547  0.00  0.00    +0.000 A 
ATOM     18  H   UNL     1       6.355   3.922  18.995  0.00  0.00    +0.000 HD
ENDBRANCH   4   7
BRANCH   1  21
ATOM     19  N   UNL     1      -0.943  11.330  22.564  0.00  0.00    +0.000 N 
ATOM     20  C   UNL     1      -0.522  10.928  21.324  0.00  0.00    +0.000 A 
ATOM     21  C   UNL     1       0.289   9.843  21.555  0.00  0.00    +0.000 A 
ATOM     22  N   UNL     1       0.308   9.574  22.892  0.00  0.00    +0.000 NA
ATOM     23  N   UNL     1      -0.431  10.496  23.505  0.00  0.00    +0.000 NA
BRANCH  19  29
ATOM     24  C   UNL     1      -1.387  16.035  24.057  0.00  0.00    +0.000 C 
ATOM     25  C   UNL     1      -2.021  14.747  23.620  0.00  0.00    +0.000 A 
ATOM     26  C   UNL     1      -3.408  14.619  23.508  0.00  0.00    +0.000 A 
ATOM     27  C   UNL     1      -3.975  13.416  23.082  0.00  0.00    +0.000 A 
ATOM     28  C   UNL     1      -3.163  12.326  22.763  0.00  0.00    +0.000 A 
ATOM     29  C   UNL     1      -1.773  12.435  22.879  0.00  0.00    +0.000 A 
ATOM     30  C   UNL     1      -1.209  13.648  23.310  0.00  0.00    +0.000 A 
ENDBRANCH  19  29
ENDBRANCH   1  21
TORSDOF 3
ENDMDL
MODEL 9
REMARK VINA RESULT:      -8.6      2.448      3.367
REMARK  Name = 
REMARK  4 active torsions:
REMARK  status: ('A' for Active; 'I' for Inactive)
REMARK    1  A    between atoms: C_1  and  C_2
REMARK    2  A    between atoms: C_6  and  N_7
REMARK    3  A    between atoms: C_9  and  C_10
REMARK    4  A    between atoms: C_13  and  C_14
REMARK                            x       y       z     vdW  Elec       q    Type
REMARK                         _______ _______ _______ _____ _____    ______ ____
ROOT
ATOM      1  C   UNL     1      -0.826  11.451  19.217  0.00  0.00    +0.000 A 
ATOM      2  C   UNL     1      -1.175  10.445  18.307  0.00  0.00    +0.000 A 
ATOM      3  C   UNL     1      -0.220   9.547  17.826  0.00  0.00    +0.000 A 
ATOM      4  C   UNL     1       1.114   9.658  18.209  0.00  0.00    +0.000 A 
ATOM      5  C   UNL     1       1.466  10.678  19.111  0.00  0.00    +0.000 A 
ATOM      6  C   UNL     1       0.508  11.572  19.608  0.00  0.00    +0.000 A 
ENDROOT
BRANCH   4   7
ATOM      7  C   UNL     1       2.141   8.679  17.828  0.00  0.00    +0.000 C 
ATOM      8  C   UNL     1       2.645   7.614  18.475  0.00  0.00    +0.000 C 
ATOM      9  C   UNL     1       2.304   7.009  19.819  0.00  0.00    +0.000 C 
ATOM     10  O   UNL     1       1.462   7.350  20.627  0.00  0.00    +0.000 OA
ATOM     11  N   UNL     1       3.173   5.935  19.962  0.00  0.00    +0.000 N 
ATOM     12  C   UNL     1       3.995   5.791  18.851  0.00  0.00    +0.000 A 
ATOM     13  C   UNL     1       4.960   4.826  18.649  0.00  0.00    +0.000 A 
ATOM     14  C   UNL     1       5.671   4.868  17.446  0.00  0.00    +0.000 A 
ATOM     15  C   UNL     1       5.406   5.863  16.490  0.00  0.00    +0.000 A 
ATOM     16  C   UNL     1       4.424   6.833  16.716  0.00  0.00    +0.000 A 
ATOM     17  C   UNL     1       3.721   6.782  17.908  0.00  0.00    +0.000 A 
ATOM     18  H   UNL     1       3.170   5.340  20.775  0.00  0.00    +0.000 HD
ENDBRANCH   4   7
BRANCH   1  21
ATOM     19  N   UNL     1      -3.793  13.087  20.374  0.00  0.00    +0.000 N 
ATOM     20  C   UNL     1      -3.189  12.007  19.787  0.00  0.00    +0.000 A 
ATOM     21  C   UNL     1      -1.848  12.307  19.775  0.00  0.00    +0.000 A 
ATOM     22  N   UNL     1      -1.653  13.510  20.387  0.00  0.00    +0.000 NA
ATOM     23  N   UNL     1      -2.845  13.990  20.734  0.00  0.00    +0.000 NA
BRANCH  19  29
ATOM     24  C   UNL     1      -7.842  12.255  23.109  0.00  0.00    +0.000 C 
ATOM     25  C   UNL     1      -7.190  12.889  21.915  0.00  0.00    +0.000 A 
ATOM     26  C   UNL     1      -7.916  13.682  21.023  0.00  0.00    +0.000 A 
ATOM     27  C   UNL     1      -7.285  14.277  19.929  0.00  0.00    +0.000 A 
ATOM     28  C   UNL     1      -5.919  14.088  19.712  0.00  0.00    +0.000 A 
ATOM     29  C   UNL     1      -5.179  13.290  20.592  0.00  0.00    +0.000 A 
ATOM     30  C   UNL     1      -5.821  12.691  21.690  0.00  0.00    +0.000 A 
ENDBRANCH  19  29
ENDBRANCH   1  21
TORSDOF 3
ENDMDL
