MODEL 1
REMARK VINA RESULT:      -7.1      0.000      0.000
REMARK  Name = 
REMARK  11 active torsions:
REMARK  status: ('A' for Active; 'I' for Inactive)
REMARK    1  A    between atoms: C_1  and  C_2
REMARK    2  A    between atoms: C_2  and  C_3
REMARK    3  A    between atoms: C_2  and  C_13
REMARK    4  A    between atoms: C_3  and  C_4
REMARK    5  A    between atoms: C_6  and  O_7
REMARK    6  A    between atoms: C_8  and  O_9
REMARK    7  A    between atoms: C_13  and  C_14
REMARK    8  A    between atoms: C_13  and  C_15
REMARK    9  A    between atoms: C_15  and  C_16
REMARK   10  A    between atoms: C_18  and  O_19
REMARK   11  A    between atoms: C_20  and  O_21
REMARK                            x       y       z     vdW  Elec       q    Type
REMARK                         _______ _______ _______ _____ _____    ______ ____
ROOT
ATOM      1  C   UNL     1       2.424   9.200  17.838  0.00  0.00    +0.000 C 
ATOM      2  C   UNL     1       1.210   8.975  18.745  0.00  0.00    +0.000 C 
ENDROOT
BRANCH   2   3
ATOM      3  C   UNL     1       1.427   7.951  19.914  0.00  0.00    +0.000 C 
ATOM      4  C   UNL     1       1.308   8.577  21.304  0.00  0.00    +0.000 C 
BRANCH   3   5
ATOM      5  C   UNL     1       2.666   7.000  19.777  0.00  0.00    +0.000 C 
BRANCH   5   6
ATOM      6  C   UNL     1       2.445   5.526  19.479  0.00  0.00    +0.000 A 
ATOM      7  C   UNL     1       1.682   4.768  20.389  0.00  0.00    +0.000 A 
ATOM      8  C   UNL     1       1.335   3.452  20.097  0.00  0.00    +0.000 A 
ATOM      9  C   UNL     1       1.731   2.871  18.901  0.00  0.00    +0.000 A 
ATOM     10  C   UNL     1       2.565   3.553  18.034  0.00  0.00    +0.000 A 
ATOM     11  C   UNL     1       2.965   4.859  18.349  0.00  0.00    +0.000 A 
ATOM     12 BR   UNL     1       4.335   5.594  17.252  0.00  0.00    +0.000 Br
BRANCH   8  13
ATOM     13  O   UNL     1       0.599   2.691  20.961  0.00  0.00    +0.000 OA
ATOM     14  H   UNL     1       1.146   1.936  21.238  0.00  0.00    +0.000 HD
ENDBRANCH   8  13
BRANCH   9  15
ATOM     15  O   UNL     1       1.335   1.603  18.591  0.00  0.00    +0.000 OA
ATOM     16  H   UNL     1       2.167   1.092  18.523  0.00  0.00    +0.000 HD
ENDBRANCH   9  15
ENDBRANCH   5   6
ENDBRANCH   3   5
ENDBRANCH   2   3
BRANCH   2  17
ATOM     17  C   UNL     1       0.720  10.361  19.285  0.00  0.00    +0.000 C 
BRANCH  17  18
ATOM     18  C   UNL     1      -0.671  10.736  18.799  0.00  0.00    +0.000 A 
ATOM     19  C   UNL     1      -1.109  10.174  17.580  0.00  0.00    +0.000 A 
ATOM     20  C   UNL     1      -2.301  10.600  17.003  0.00  0.00    +0.000 A 
ATOM     21  C   UNL     1      -3.095  11.540  17.638  0.00  0.00    +0.000 A 
ATOM     22  C   UNL     1      -2.728  12.060  18.871  0.00  0.00    +0.000 A 
ATOM     23  C   UNL     1      -1.516  11.661  19.450  0.00  0.00    +0.000 A 
ATOM     24 BR   UNL     1      -1.082  12.454  21.124  0.00  0.00    +0.000 Br
BRANCH  20  25
ATOM     25  O   UNL     1      -2.706  10.140  15.777  0.00  0.00    +0.000 OA
ATOM     26  H   UNL     1      -3.647   9.908  15.834  0.00  0.00    +0.000 HD
ENDBRANCH  20  25
BRANCH  21  27
ATOM     27  O   UNL     1      -4.246  11.978  17.044  0.00  0.00    +0.000 OA
ATOM     28  H   UNL     1      -4.233  11.573  16.154  0.00  0.00    +0.000 HD
ENDBRANCH  21  27
ENDBRANCH  17  18
ENDBRANCH   2  17
TORSDOF 9
ENDMDL
MODEL 2
REMARK VINA RESULT:      -7.0      1.340      8.116
REMARK  Name = 
REMARK  11 active torsions:
REMARK  status: ('A' for Active; 'I' for Inactive)
REMARK    1  A    between atoms: C_1  and  C_2
REMARK    2  A    between atoms: C_2  and  C_3
REMARK    3  A    between atoms: C_2  and  C_13
REMARK    4  A    between atoms: C_3  and  C_4
REMARK    5  A    between atoms: C_6  and  O_7
REMARK    6  A    between atoms: C_8  and  O_9
REMARK    7  A    between atoms: C_13  and  C_14
REMARK    8  A    between atoms: C_13  and  C_15
REMARK    9  A    between atoms: C_15  and  C_16
REMARK   10  A    between atoms: C_18  and  O_19
REMARK   11  A    between atoms: C_20  and  O_21
REMARK                            x       y       z     vdW  Elec       q    Type
REMARK                         _______ _______ _______ _____ _____    ______ ____
ROOT
ATOM      1  C   UNL     1       1.810   7.868  20.350  0.00  0.00    +0.000 C 
ATOM      2  C   UNL     1       1.623   7.904  18.830  0.00  0.00    +0.000 C 
ENDROOT
BRANCH   2   3
ATOM      3  C   UNL     1       1.122   9.272  18.248  0.00  0.00    +0.000 C 
ATOM      4  C   UNL     1       2.256  10.211  17.832  0.00  0.00    +0.000 C 
BRANCH   3   5
ATOM      5  C   UNL     1      -0.003   9.999  19.065  0.00  0.00    +0.000 C 
BRANCH   5   6
ATOM      6  C   UNL     1      -1.270  10.443  18.355  0.00  0.00    +0.000 A 
ATOM      7  C   UNL     1      -1.579   9.858  17.110  0.00  0.00    +0.000 A 
ATOM      8  C   UNL     1      -2.793  10.127  16.484  0.00  0.00    +0.000 A 
ATOM      9  C   UNL     1      -3.719  10.971  17.081  0.00  0.00    +0.000 A 
ATOM     10  C   UNL     1      -3.403  11.640  18.250  0.00  0.00    +0.000 A 
ATOM     11  C   UNL     1      -2.160  11.417  18.857  0.00  0.00    +0.000 A 
ATOM     12 BR   UNL     1      -1.710  12.595  20.281  0.00  0.00    +0.000 Br
BRANCH   8  13
ATOM     13  O   UNL     1      -3.119   9.577  15.276  0.00  0.00    +0.000 OA
ATOM     14  H   UNL     1      -4.048   9.291  15.317  0.00  0.00    +0.000 HD
ENDBRANCH   8  13
BRANCH   9  15
ATOM     15  O   UNL     1      -4.932  11.181  16.495  0.00  0.00    +0.000 OA
ATOM     16  H   UNL     1      -4.731  11.309  15.546  0.00  0.00    +0.000 HD
ENDBRANCH   9  15
ENDBRANCH   5   6
ENDBRANCH   3   5
ENDBRANCH   2   3
BRANCH   2  17
ATOM     17  C   UNL     1       2.957   7.448  18.147  0.00  0.00    +0.000 C 
BRANCH  17  18
ATOM     18  C   UNL     1       3.016   5.951  17.888  0.00  0.00    +0.000 A 
ATOM     19  C   UNL     1       1.821   5.216  18.040  0.00  0.00    +0.000 A 
ATOM     20  C   UNL     1       1.842   3.826  17.975  0.00  0.00    +0.000 A 
ATOM     21  C   UNL     1       3.022   3.152  17.711  0.00  0.00    +0.000 A 
ATOM     22  C   UNL     1       4.201   3.848  17.487  0.00  0.00    +0.000 A 
ATOM     23  C   UNL     1       4.200   5.245  17.578  0.00  0.00    +0.000 A 
ATOM     24 BR   UNL     1       5.869   6.110  17.289  0.00  0.00    +0.000 Br
BRANCH  20  25
ATOM     25  O   UNL     1       0.715   3.083  18.209  0.00  0.00    +0.000 OA
ATOM     26  H   UNL     1       0.943   2.144  18.112  0.00  0.00    +0.000 HD
ENDBRANCH  20  25
BRANCH  21  27
ATOM     27  O   UNL     1       3.038   1.784  17.686  0.00  0.00    +0.000 OA
ATOM     28  H   UNL     1       3.513   1.560  16.862  0.00  0.00    +0.000 HD
ENDBRANCH  21  27
ENDBRANCH  17  18
ENDBRANCH   2  17
TORSDOF 9
ENDMDL
MODEL 3
REMARK VINA RESULT:      -7.0      1.157      1.334
REMARK  Name = 
REMARK  11 active torsions:
REMARK  status: ('A' for Active; 'I' for Inactive)
REMARK    1  A    between atoms: C_1  and  C_2
REMARK    2  A    between atoms: C_2  and  C_3
REMARK    3  A    between atoms: C_2  and  C_13
REMARK    4  A    between atoms: C_3  and  C_4
REMARK    5  A    between atoms: C_6  and  O_7
REMARK    6  A    between atoms: C_8  and  O_9
REMARK    7  A    between atoms: C_13  and  C_14
REMARK    8  A    between atoms: C_13  and  C_15
REMARK    9  A    between atoms: C_15  and  C_16
REMARK   10  A    between atoms: C_18  and  O_19
REMARK   11  A    between atoms: C_20  and  O_21
REMARK                            x       y       z     vdW  Elec       q    Type
REMARK                         _______ _______ _______ _____ _____    ______ ____
ROOT
ATOM      1  C   UNL     1       2.398  10.153  17.830  0.00  0.00    +0.000 C 
ATOM      2  C   UNL     1       1.263   9.210  18.242  0.00  0.00    +0.000 C 
ENDROOT
BRANCH   2   3
ATOM      3  C   UNL     1       1.717   7.812  18.790  0.00  0.00    +0.000 C 
ATOM      4  C   UNL     1       1.912   7.784  20.307  0.00  0.00    +0.000 C 
BRANCH   3   5
ATOM      5  C   UNL     1       2.885   7.112  18.012  0.00  0.00    +0.000 C 
BRANCH   5   6
ATOM      6  C   UNL     1       3.015   5.600  18.066  0.00  0.00    +0.000 A 
ATOM      7  C   UNL     1       1.844   4.833  18.233  0.00  0.00    +0.000 A 
ATOM      8  C   UNL     1       1.890   3.444  18.152  0.00  0.00    +0.000 A 
ATOM      9  C   UNL     1       3.090   2.795  17.900  0.00  0.00    +0.000 A 
ATOM     10  C   UNL     1       4.272   3.511  17.834  0.00  0.00    +0.000 A 
ATOM     11  C   UNL     1       4.241   4.905  17.970  0.00  0.00    +0.000 A 
ATOM     12 BR   UNL     1       5.931   5.758  18.160  0.00  0.00    +0.000 Br
BRANCH   8  13
ATOM     13  O   UNL     1       0.772   2.675  18.312  0.00  0.00    +0.000 OA
ATOM     14  H   UNL     1       0.189   3.122  18.950  0.00  0.00    +0.000 HD
ENDBRANCH   8  13
BRANCH   9  15
ATOM     15  O   UNL     1       3.119   1.439  17.759  0.00  0.00    +0.000 OA
ATOM     16  H   UNL     1       3.085   1.093  18.673  0.00  0.00    +0.000 HD
ENDBRANCH   9  15
ENDBRANCH   5   6
ENDBRANCH   3   5
ENDBRANCH   2   3
BRANCH   2  17
ATOM     17  C   UNL     1       0.340   9.952  19.267  0.00  0.00    +0.000 C 
BRANCH  17  18
ATOM     18  C   UNL     1      -0.968  10.432  18.657  0.00  0.00    +0.000 A 
ATOM     19  C   UNL     1      -1.323   9.921  17.390  0.00  0.00    +0.000 A 
ATOM     20  C   UNL     1      -2.420  10.439  16.710  0.00  0.00    +0.000 A 
ATOM     21  C   UNL     1      -3.204  11.423  17.285  0.00  0.00    +0.000 A 
ATOM     22  C   UNL     1      -2.925  11.898  18.560  0.00  0.00    +0.000 A 
ATOM     23  C   UNL     1      -1.807  11.406  19.243  0.00  0.00    +0.000 A 
ATOM     24 BR   UNL     1      -1.484  12.141  20.968  0.00  0.00    +0.000 Br
BRANCH  20  25
ATOM     25  O   UNL     1      -2.734  10.026  15.441  0.00  0.00    +0.000 OA
ATOM     26  H   UNL     1      -3.469  10.571  15.116  0.00  0.00    +0.000 HD
ENDBRANCH  20  25
BRANCH  21  27
ATOM     27  O   UNL     1      -4.259  11.951  16.592  0.00  0.00    +0.000 OA
ATOM     28  H   UNL     1      -3.964  11.953  15.661  0.00  0.00    +0.000 HD
ENDBRANCH  21  27
ENDBRANCH  17  18
ENDBRANCH   2  17
TORSDOF 9
ENDMDL
MODEL 4
REMARK VINA RESULT:      -7.0      3.928      5.980
REMARK  Name = 
REMARK  11 active torsions:
REMARK  status: ('A' for Active; 'I' for Inactive)
REMARK    1  A    between atoms: C_1  and  C_2
REMARK    2  A    between atoms: C_2  and  C_3
REMARK    3  A    between atoms: C_2  and  C_13
REMARK    4  A    between atoms: C_3  and  C_4
REMARK    5  A    between atoms: C_6  and  O_7
REMARK    6  A    between atoms: C_8  and  O_9
REMARK    7  A    between atoms: C_13  and  C_14
REMARK    8  A    between atoms: C_13  and  C_15
REMARK    9  A    between atoms: C_15  and  C_16
REMARK   10  A    between atoms: C_18  and  O_19
REMARK   11  A    between atoms: C_20  and  O_21
REMARK                            x       y       z     vdW  Elec       q    Type
REMARK                         _______ _______ _______ _____ _____    ______ ____
ROOT
ATOM      1  C   UNL     1       1.167   4.330  17.200  0.00  0.00    +0.000 C 
ATOM      2  C   UNL     1       2.413   4.419  18.087  0.00  0.00    +0.000 C 
ENDROOT
BRANCH   2   3
ATOM      3  C   UNL     1       3.446   3.251  17.912  0.00  0.00    +0.000 C 
ATOM      4  C   UNL     1       3.008   1.943  18.574  0.00  0.00    +0.000 C 
BRANCH   3   5
ATOM      5  C   UNL     1       4.946   3.607  18.199  0.00  0.00    +0.000 C 
BRANCH   5   6
ATOM      6  C   UNL     1       5.829   4.086  17.060  0.00  0.00    +0.000 A 
ATOM      7  C   UNL     1       5.686   3.473  15.799  0.00  0.00    +0.000 A 
ATOM      8  C   UNL     1       6.370   3.965  14.691  0.00  0.00    +0.000 A 
ATOM      9  C   UNL     1       7.200   5.070  14.813  0.00  0.00    +0.000 A 
ATOM     10  C   UNL     1       7.442   5.630  16.054  0.00  0.00    +0.000 A 
ATOM     11  C   UNL     1       6.799   5.105  17.183  0.00  0.00    +0.000 A 
ATOM     12 BR   UNL     1       7.420   5.746  18.864  0.00  0.00    +0.000 Br
BRANCH   8  13
ATOM     13  O   UNL     1       6.252   3.390  13.457  0.00  0.00    +0.000 OA
ATOM     14  H   UNL     1       7.057   3.597  12.951  0.00  0.00    +0.000 HD
ENDBRANCH   8  13
BRANCH   9  15
ATOM     15  O   UNL     1       7.819   5.587  13.712  0.00  0.00    +0.000 OA
ATOM     16  H   UNL     1       7.920   6.540  13.909  0.00  0.00    +0.000 HD
ENDBRANCH   9  15
ENDBRANCH   5   6
ENDBRANCH   3   5
ENDBRANCH   2   3
BRANCH   2  17
ATOM     17  C   UNL     1       3.089   5.815  17.867  0.00  0.00    +0.000 C 
BRANCH  17  18
ATOM     18  C   UNL     1       2.369   6.947  18.583  0.00  0.00    +0.000 A 
ATOM     19  C   UNL     1       2.152   8.141  17.861  0.00  0.00    +0.000 A 
ATOM     20  C   UNL     1       1.646   9.265  18.505  0.00  0.00    +0.000 A 
ATOM     21  C   UNL     1       1.304   9.214  19.846  0.00  0.00    +0.000 A 
ATOM     22  C   UNL     1       1.440   8.036  20.568  0.00  0.00    +0.000 A 
ATOM     23  C   UNL     1       1.975   6.905  19.939  0.00  0.00    +0.000 A 
ATOM     24 BR   UNL     1       2.155   5.348  21.017  0.00  0.00    +0.000 Br
BRANCH  20  25
ATOM     25  O   UNL     1       1.509  10.462  17.853  0.00  0.00    +0.000 OA
ATOM     26  H   UNL     1       2.134  10.477  17.110  0.00  0.00    +0.000 HD
ENDBRANCH  20  25
BRANCH  21  27
ATOM     27  O   UNL     1       0.842  10.335  20.478  0.00  0.00    +0.000 OA
ATOM     28  H   UNL     1       1.643  10.754  20.851  0.00  0.00    +0.000 HD
ENDBRANCH  21  27
ENDBRANCH  17  18
ENDBRANCH   2  17
TORSDOF 9
ENDMDL
MODEL 5
REMARK VINA RESULT:      -7.0      3.630      7.952
REMARK  Name = 
REMARK  11 active torsions:
REMARK  status: ('A' for Active; 'I' for Inactive)
REMARK    1  A    between atoms: C_1  and  C_2
REMARK    2  A    between atoms: C_2  and  C_3
REMARK    3  A    between atoms: C_2  and  C_13
REMARK    4  A    between atoms: C_3  and  C_4
REMARK    5  A    between atoms: C_6  and  O_7
REMARK    6  A    between atoms: C_8  and  O_9
REMARK    7  A    between atoms: C_13  and  C_14
REMARK    8  A    between atoms: C_13  and  C_15
REMARK    9  A    between atoms: C_15  and  C_16
REMARK   10  A    between atoms: C_18  and  O_19
REMARK   11  A    between atoms: C_20  and  O_21
REMARK                            x       y       z     vdW  Elec       q    Type
REMARK                         _______ _______ _______ _____ _____    ______ ____
ROOT
ATOM      1  C   UNL     1       1.803   3.271  17.555  0.00  0.00    +0.000 C 
ATOM      2  C   UNL     1       2.836   4.134  18.288  0.00  0.00    +0.000 C 
ENDROOT
BRANCH   2   3
ATOM      3  C   UNL     1       2.488   4.476  19.779  0.00  0.00    +0.000 C 
ATOM      4  C   UNL     1       1.028   4.202  20.144  0.00  0.00    +0.000 C 
BRANCH   3   5
ATOM      5  C   UNL     1       2.999   5.861  20.307  0.00  0.00    +0.000 C 
BRANCH   5   6
ATOM      6  C   UNL     1       2.124   7.091  20.138  0.00  0.00    +0.000 A 
ATOM      7  C   UNL     1       1.170   7.375  21.135  0.00  0.00    +0.000 A 
ATOM      8  C   UNL     1       0.440   8.560  21.099  0.00  0.00    +0.000 A 
ATOM      9  C   UNL     1       0.647   9.481  20.082  0.00  0.00    +0.000 A 
ATOM     10  C   UNL     1       1.501   9.186  19.034  0.00  0.00    +0.000 A 
ATOM     11  C   UNL     1       2.197   7.971  19.035  0.00  0.00    +0.000 A 
ATOM     12 BR   UNL     1       3.107   7.535  17.422  0.00  0.00    +0.000 Br
BRANCH   8  13
ATOM     13  O   UNL     1      -0.494   8.861  22.050  0.00  0.00    +0.000 OA
ATOM     14  H   UNL     1      -0.163   9.615  22.568  0.00  0.00    +0.000 HD
ENDBRANCH   8  13
BRANCH   9  15
ATOM     15  O   UNL     1      -0.025  10.668  20.086  0.00  0.00    +0.000 OA
ATOM     16  H   UNL     1      -0.970  10.419  20.125  0.00  0.00    +0.000 HD
ENDBRANCH   9  15
ENDBRANCH   5   6
ENDBRANCH   3   5
ENDBRANCH   2   3
BRANCH   2  17
ATOM     17  C   UNL     1       4.238   3.447  18.173  0.00  0.00    +0.000 C 
BRANCH  17  18
ATOM     18  C   UNL     1       5.150   4.113  17.153  0.00  0.00    +0.000 A 
ATOM     19  C   UNL     1       4.930   3.817  15.791  0.00  0.00    +0.000 A 
ATOM     20  C   UNL     1       5.825   4.265  14.825  0.00  0.00    +0.000 A 
ATOM     21  C   UNL     1       6.912   5.045  15.180  0.00  0.00    +0.000 A 
ATOM     22  C   UNL     1       7.118   5.413  16.503  0.00  0.00    +0.000 A 
ATOM     23  C   UNL     1       6.241   4.945  17.489  0.00  0.00    +0.000 A 
ATOM     24 BR   UNL     1       6.624   5.472  19.276  0.00  0.00    +0.000 Br
BRANCH  20  25
ATOM     25  O   UNL     1       5.687   3.917  13.507  0.00  0.00    +0.000 OA
ATOM     26  H   UNL     1       6.445   4.273  13.016  0.00  0.00    +0.000 HD
ENDBRANCH  20  25
BRANCH  21  27
ATOM     27  O   UNL     1       7.806   5.448  14.228  0.00  0.00    +0.000 OA
ATOM     28  H   UNL     1       8.676   5.166  14.572  0.00  0.00    +0.000 HD
ENDBRANCH  21  27
ENDBRANCH  17  18
ENDBRANCH   2  17
TORSDOF 9
ENDMDL
MODEL 6
REMARK VINA RESULT:      -7.0      0.605      8.029
REMARK  Name = 
REMARK  11 active torsions:
REMARK  status: ('A' for Active; 'I' for Inactive)
REMARK    1  A    between atoms: C_1  and  C_2
REMARK    2  A    between atoms: C_2  and  C_3
REMARK    3  A    between atoms: C_2  and  C_13
REMARK    4  A    between atoms: C_3  and  C_4
REMARK    5  A    between atoms: C_6  and  O_7
REMARK    6  A    between atoms: C_8  and  O_9
REMARK    7  A    between atoms: C_13  and  C_14
REMARK    8  A    between atoms: C_13  and  C_15
REMARK    9  A    between atoms: C_15  and  C_16
REMARK   10  A    between atoms: C_18  and  O_19
REMARK   11  A    between atoms: C_20  and  O_21
REMARK                            x       y       z     vdW  Elec       q    Type
REMARK                         _______ _______ _______ _____ _____    ______ ____
ROOT
ATOM      1  C   UNL     1       1.275   8.613  21.290  0.00  0.00    +0.000 C 
ATOM      2  C   UNL     1       1.254   8.024  19.875  0.00  0.00    +0.000 C 
ENDROOT
BRANCH   2   3
ATOM      3  C   UNL     1       0.963   9.051  18.725  0.00  0.00    +0.000 C 
ATOM      4  C   UNL     1       2.182   9.352  17.853  0.00  0.00    +0.000 C 
BRANCH   3   5
ATOM      5  C   UNL     1       0.173  10.342  19.137  0.00  0.00    +0.000 C 
BRANCH   5   6
ATOM      6  C   UNL     1      -1.157  10.646  18.468  0.00  0.00    +0.000 A 
ATOM      7  C   UNL     1      -1.446  10.020  17.239  0.00  0.00    +0.000 A 
ATOM      8  C   UNL     1      -2.701  10.156  16.653  0.00  0.00    +0.000 A 
ATOM      9  C   UNL     1      -3.688  10.906  17.276  0.00  0.00    +0.000 A 
ATOM     10  C   UNL     1      -3.404  11.616  18.429  0.00  0.00    +0.000 A 
ATOM     11  C   UNL     1      -2.125  11.529  18.994  0.00  0.00    +0.000 A 
ATOM     12 BR   UNL     1      -1.751  12.761  20.394  0.00  0.00    +0.000 Br
BRANCH   8  13
ATOM     13  O   UNL     1      -3.009   9.563  15.462  0.00  0.00    +0.000 OA
ATOM     14  H   UNL     1      -3.298  10.258  14.846  0.00  0.00    +0.000 HD
ENDBRANCH   8  13
BRANCH   9  15
ATOM     15  O   UNL     1      -4.936  10.985  16.731  0.00  0.00    +0.000 OA
ATOM     16  H   UNL     1      -5.038  10.155  16.223  0.00  0.00    +0.000 HD
ENDBRANCH   9  15
ENDBRANCH   5   6
ENDBRANCH   3   5
ENDBRANCH   2   3
BRANCH   2  17
ATOM     17  C   UNL     1       2.598   7.258  19.629  0.00  0.00    +0.000 C 
BRANCH  17  18
ATOM     18  C   UNL     1       2.396   5.790  19.286  0.00  0.00    +0.000 A 
ATOM     19  C   UNL     1       1.463   5.063  20.057  0.00  0.00    +0.000 A 
ATOM     20  C   UNL     1       1.350   3.685  19.900  0.00  0.00    +0.000 A 
ATOM     21  C   UNL     1       2.112   3.019  18.956  0.00  0.00    +0.000 A 
ATOM     22  C   UNL     1       2.988   3.714  18.133  0.00  0.00    +0.000 A 
ATOM     23  C   UNL     1       3.132   5.097  18.300  0.00  0.00    +0.000 A 
ATOM     24 BR   UNL     1       4.381   5.958  17.151  0.00  0.00    +0.000 Br
BRANCH  20  25
ATOM     25  O   UNL     1       0.520   2.941  20.697  0.00  0.00    +0.000 OA
ATOM     26  H   UNL     1      -0.174   3.525  21.044  0.00  0.00    +0.000 HD
ENDBRANCH  20  25
BRANCH  21  27
ATOM     27  O   UNL     1       2.020   1.660  18.836  0.00  0.00    +0.000 OA
ATOM     28  H   UNL     1       1.786   1.349  19.732  0.00  0.00    +0.000 HD
ENDBRANCH  21  27
ENDBRANCH  17  18
ENDBRANCH   2  17
TORSDOF 9
ENDMDL
MODEL 7
REMARK VINA RESULT:      -6.8      3.653      8.049
REMARK  Name = 
REMARK  11 active torsions:
REMARK  status: ('A' for Active; 'I' for Inactive)
REMARK    1  A    between atoms: C_1  and  C_2
REMARK    2  A    between atoms: C_2  and  C_3
REMARK    3  A    between atoms: C_2  and  C_13
REMARK    4  A    between atoms: C_3  and  C_4
REMARK    5  A    between atoms: C_6  and  O_7
REMARK    6  A    between atoms: C_8  and  O_9
REMARK    7  A    between atoms: C_13  and  C_14
REMARK    8  A    between atoms: C_13  and  C_15
REMARK    9  A    between atoms: C_15  and  C_16
REMARK   10  A    between atoms: C_18  and  O_19
REMARK   11  A    between atoms: C_20  and  O_21
REMARK                            x       y       z     vdW  Elec       q    Type
REMARK                         _______ _______ _______ _____ _____    ______ ____
ROOT
ATOM      1  C   UNL     1       2.124   3.151  18.298  0.00  0.00    +0.000 C 
ATOM      2  C   UNL     1       3.102   4.145  18.933  0.00  0.00    +0.000 C 
ENDROOT
BRANCH   2   3
ATOM      3  C   UNL     1       2.796   4.530  20.422  0.00  0.00    +0.000 C 
ATOM      4  C   UNL     1       2.506   3.324  21.317  0.00  0.00    +0.000 C 
BRANCH   3   5
ATOM      5  C   UNL     1       1.781   5.706  20.636  0.00  0.00    +0.000 C 
BRANCH   5   6
ATOM      6  C   UNL     1       1.942   6.985  19.832  0.00  0.00    +0.000 A 
ATOM      7  C   UNL     1       2.707   6.938  18.649  0.00  0.00    +0.000 A 
ATOM      8  C   UNL     1       2.772   8.043  17.805  0.00  0.00    +0.000 A 
ATOM      9  C   UNL     1       2.079   9.205  18.114  0.00  0.00    +0.000 A 
ATOM     10  C   UNL     1       1.404   9.317  19.316  0.00  0.00    +0.000 A 
ATOM     11  C   UNL     1       1.380   8.228  20.197  0.00  0.00    +0.000 A 
ATOM     12 BR   UNL     1       0.685   8.579  21.933  0.00  0.00    +0.000 Br
BRANCH   8  13
ATOM     13  O   UNL     1       3.508   8.028  16.653  0.00  0.00    +0.000 OA
ATOM     14  H   UNL     1       4.073   7.237  16.669  0.00  0.00    +0.000 HD
ENDBRANCH   8  13
BRANCH   9  15
ATOM     15  O   UNL     1       2.095  10.262  17.253  0.00  0.00    +0.000 OA
ATOM     16  H   UNL     1       2.279  11.040  17.818  0.00  0.00    +0.000 HD
ENDBRANCH   9  15
ENDBRANCH   5   6
ENDBRANCH   3   5
ENDBRANCH   2   3
BRANCH   2  17
ATOM     17  C   UNL     1       4.558   3.589  18.775  0.00  0.00    +0.000 C 
BRANCH  17  18
ATOM     18  C   UNL     1       5.325   4.235  17.631  0.00  0.00    +0.000 A 
ATOM     19  C   UNL     1       4.883   3.967  16.318  0.00  0.00    +0.000 A 
ATOM     20  C   UNL     1       5.634   4.394  15.227  0.00  0.00    +0.000 A 
ATOM     21  C   UNL     1       6.794   5.127  15.414  0.00  0.00    +0.000 A 
ATOM     22  C   UNL     1       7.219   5.467  16.691  0.00  0.00    +0.000 A 
ATOM     23  C   UNL     1       6.488   5.019  17.798  0.00  0.00    +0.000 A 
ATOM     24 BR   UNL     1       7.166   5.505  19.508  0.00  0.00    +0.000 Br
BRANCH  20  25
ATOM     25  O   UNL     1       5.278   4.071  13.944  0.00  0.00    +0.000 OA
ATOM     26  H   UNL     1       5.318   4.877  13.404  0.00  0.00    +0.000 HD
ENDBRANCH  20  25
BRANCH  21  27
ATOM     27  O   UNL     1       7.544   5.509  14.337  0.00  0.00    +0.000 OA
ATOM     28  H   UNL     1       7.075   6.287  13.975  0.00  0.00    +0.000 HD
ENDBRANCH  21  27
ENDBRANCH  17  18
ENDBRANCH   2  17
TORSDOF 9
ENDMDL
MODEL 8
REMARK VINA RESULT:      -6.7      3.741      8.185
REMARK  Name = 
REMARK  11 active torsions:
REMARK  status: ('A' for Active; 'I' for Inactive)
REMARK    1  A    between atoms: C_1  and  C_2
REMARK    2  A    between atoms: C_2  and  C_3
REMARK    3  A    between atoms: C_2  and  C_13
REMARK    4  A    between atoms: C_3  and  C_4
REMARK    5  A    between atoms: C_6  and  O_7
REMARK    6  A    between atoms: C_8  and  O_9
REMARK    7  A    between atoms: C_13  and  C_14
REMARK    8  A    between atoms: C_13  and  C_15
REMARK    9  A    between atoms: C_15  and  C_16
REMARK   10  A    between atoms: C_18  and  O_19
REMARK   11  A    between atoms: C_20  and  O_21
REMARK                            x       y       z     vdW  Elec       q    Type
REMARK                         _______ _______ _______ _____ _____    ______ ____
ROOT
ATOM      1  C   UNL     1       1.730   3.387  18.094  0.00  0.00    +0.000 C 
ATOM      2  C   UNL     1       2.907   4.204  18.637  0.00  0.00    +0.000 C 
ENDROOT
BRANCH   2   3
ATOM      3  C   UNL     1       2.862   4.503  20.177  0.00  0.00    +0.000 C 
ATOM      4  C   UNL     1       2.635   3.257  21.034  0.00  0.00    +0.000 C 
BRANCH   3   5
ATOM      5  C   UNL     1       1.975   5.718  20.618  0.00  0.00    +0.000 C 
BRANCH   5   6
ATOM      6  C   UNL     1       2.038   7.013  19.827  0.00  0.00    +0.000 A 
ATOM      7  C   UNL     1       2.787   7.031  18.634  0.00  0.00    +0.000 A 
ATOM      8  C   UNL     1       2.767   8.148  17.803  0.00  0.00    +0.000 A 
ATOM      9  C   UNL     1       2.003   9.257  18.136  0.00  0.00    +0.000 A 
ATOM     10  C   UNL     1       1.340   9.311  19.349  0.00  0.00    +0.000 A 
ATOM     11  C   UNL     1       1.401   8.212  20.216  0.00  0.00    +0.000 A 
ATOM     12 BR   UNL     1       0.711   8.497  21.966  0.00  0.00    +0.000 Br
BRANCH   8  13
ATOM     13  O   UNL     1       3.484   8.195  16.641  0.00  0.00    +0.000 OA
ATOM     14  H   UNL     1       3.600   7.283  16.322  0.00  0.00    +0.000 HD
ENDBRANCH   8  13
BRANCH   9  15
ATOM     15  O   UNL     1       1.936  10.323  17.288  0.00  0.00    +0.000 OA
ATOM     16  H   UNL     1       1.872  11.104  17.875  0.00  0.00    +0.000 HD
ENDBRANCH   9  15
ENDBRANCH   5   6
ENDBRANCH   3   5
ENDBRANCH   2   3
BRANCH   2  17
ATOM     17  C   UNL     1       4.242   3.493  18.233  0.00  0.00    +0.000 C 
BRANCH  17  18
ATOM     18  C   UNL     1       5.445   4.423  18.251  0.00  0.00    +0.000 A 
ATOM     19  C   UNL     1       6.190   4.500  19.447  0.00  0.00    +0.000 A 
ATOM     20  C   UNL     1       7.201   5.447  19.582  0.00  0.00    +0.000 A 
ATOM     21  C   UNL     1       7.520   6.289  18.530  0.00  0.00    +0.000 A 
ATOM     22  C   UNL     1       6.854   6.191  17.316  0.00  0.00    +0.000 A 
ATOM     23  C   UNL     1       5.816   5.262  17.178  0.00  0.00    +0.000 A 
ATOM     24 BR   UNL     1       4.939   5.226  15.490  0.00  0.00    +0.000 Br
BRANCH  20  25
ATOM     25  O   UNL     1       7.879   5.606  20.761  0.00  0.00    +0.000 OA
ATOM     26  H   UNL     1       8.831   5.607  20.569  0.00  0.00    +0.000 HD
ENDBRANCH  20  25
BRANCH  21  27
ATOM     27  O   UNL     1       8.490   7.240  18.685  0.00  0.00    +0.000 OA
ATOM     28  H   UNL     1       9.161   7.021  18.009  0.00  0.00    +0.000 HD
ENDBRANCH  21  27
ENDBRANCH  17  18
ENDBRANCH   2  17
TORSDOF 9
ENDMDL
MODEL 9
REMARK VINA RESULT:      -6.7      3.672      5.878
REMARK  Name = 
REMARK  11 active torsions:
REMARK  status: ('A' for Active; 'I' for Inactive)
REMARK    1  A    between atoms: C_1  and  C_2
REMARK    2  A    between atoms: C_2  and  C_3
REMARK    3  A    between atoms: C_2  and  C_13
REMARK    4  A    between atoms: C_3  and  C_4
REMARK    5  A    between atoms: C_6  and  O_7
REMARK    6  A    between atoms: C_8  and  O_9
REMARK    7  A    between atoms: C_13  and  C_14
REMARK    8  A    between atoms: C_13  and  C_15
REMARK    9  A    between atoms: C_15  and  C_16
REMARK   10  A    between atoms: C_18  and  O_19
REMARK   11  A    between atoms: C_20  and  O_21
REMARK                            x       y       z     vdW  Elec       q    Type
REMARK                         _______ _______ _______ _____ _____    ______ ____
ROOT
ATOM      1  C   UNL     1       1.547   5.108  17.896  0.00  0.00    +0.000 C 
ATOM      2  C   UNL     1       2.524   4.580  18.952  0.00  0.00    +0.000 C 
ENDROOT
BRANCH   2   3
ATOM      3  C   UNL     1       3.498   3.452  18.459  0.00  0.00    +0.000 C 
ATOM      4  C   UNL     1       3.082   2.049  18.904  0.00  0.00    +0.000 C 
BRANCH   3   5
ATOM      5  C   UNL     1       5.028   3.727  18.659  0.00  0.00    +0.000 C 
BRANCH   5   6
ATOM      6  C   UNL     1       5.872   4.145  17.467  0.00  0.00    +0.000 A 
ATOM      7  C   UNL     1       5.629   3.525  16.225  0.00  0.00    +0.000 A 
ATOM      8  C   UNL     1       6.277   3.966  15.075  0.00  0.00    +0.000 A 
ATOM      9  C   UNL     1       7.167   5.028  15.134  0.00  0.00    +0.000 A 
ATOM     10  C   UNL     1       7.505   5.590  16.353  0.00  0.00    +0.000 A 
ATOM     11  C   UNL     1       6.898   5.113  17.522  0.00  0.00    +0.000 A 
ATOM     12 BR   UNL     1       7.642   5.742  19.157  0.00  0.00    +0.000 Br
BRANCH   8  13
ATOM     13  O   UNL     1       6.062   3.382  13.858  0.00  0.00    +0.000 OA
ATOM     14  H   UNL     1       5.747   4.070  13.246  0.00  0.00    +0.000 HD
ENDBRANCH   8  13
BRANCH   9  15
ATOM     15  O   UNL     1       7.751   5.498  13.995  0.00  0.00    +0.000 OA
ATOM     16  H   UNL     1       7.368   4.954  13.277  0.00  0.00    +0.000 HD
ENDBRANCH   9  15
ENDBRANCH   5   6
ENDBRANCH   3   5
ENDBRANCH   2   3
BRANCH   2  17
ATOM     17  C   UNL     1       3.312   5.789  19.558  0.00  0.00    +0.000 C 
BRANCH  17  18
ATOM     18  C   UNL     1       2.693   7.137  19.223  0.00  0.00    +0.000 A 
ATOM     19  C   UNL     1       1.772   7.679  20.145  0.00  0.00    +0.000 A 
ATOM     20  C   UNL     1       1.052   8.825  19.824  0.00  0.00    +0.000 A 
ATOM     21  C   UNL     1       1.265   9.474  18.620  0.00  0.00    +0.000 A 
ATOM     22  C   UNL     1       2.214   9.008  17.720  0.00  0.00    +0.000 A 
ATOM     23  C   UNL     1       2.924   7.839  18.020  0.00  0.00    +0.000 A 
ATOM     24 BR   UNL     1       4.177   7.258  16.712  0.00  0.00    +0.000 Br
BRANCH  20  25
ATOM     25  O   UNL     1       0.087   9.321  20.660  0.00  0.00    +0.000 OA
ATOM     26  H   UNL     1       0.524   9.825  21.365  0.00  0.00    +0.000 HD
ENDBRANCH  20  25
BRANCH  21  27
ATOM     27  O   UNL     1       0.525  10.579  18.298  0.00  0.00    +0.000 OA
ATOM     28  H   UNL     1       1.049  11.332  18.636  0.00  0.00    +0.000 HD
ENDBRANCH  21  27
ENDBRANCH  17  18
ENDBRANCH   2  17
TORSDOF 9
ENDMDL
