MODEL 1
REMARK VINA RESULT:      -8.0      0.000      0.000
REMARK  Name = 
REMARK  3 active torsions:
REMARK  status: ('A' for Active; 'I' for Inactive)
REMARK    1  A    between atoms: C_6  and  O_8
REMARK    2  A    between atoms: O_8  and  C_9
REMARK    3  A    between atoms: C_9  and  C_10
REMARK                            x       y       z     vdW  Elec       q    Type
REMARK                         _______ _______ _______ _____ _____    ______ ____
ROOT
ATOM      1  O   UNL     1       2.161   7.325  20.020  0.00  0.00    +0.000 OA
ATOM      2  C   UNL     1       2.548   6.336  19.441  0.00  0.00    +0.000 C 
ATOM      3  C   UNL     1       3.405   6.280  18.170  0.00  0.00    +0.000 C 
ATOM      4  O   UNL     1       3.815   7.280  17.612  0.00  0.00    +0.000 OA
ATOM      5  N   UNL     1       3.579   4.922  17.892  0.00  0.00    +0.000 N 
ATOM      6  C   UNL     1       4.326   4.413  16.835  0.00  0.00    +0.000 C 
ATOM      7  O   UNL     1       4.544   3.223  16.643  0.00  0.00    +0.000 OA
ATOM      8  C   UNL     1       2.944   4.142  18.894  0.00  0.00    +0.000 A 
ATOM      9  C   UNL     1       2.889   2.765  19.062  0.00  0.00    +0.000 A 
ATOM     10  C   UNL     1       2.161   2.253  20.149  0.00  0.00    +0.000 A 
ATOM     11  C   UNL     1       1.513   3.110  21.051  0.00  0.00    +0.000 A 
ATOM     12  F   UNL     1       0.816   2.588  22.068  0.00  0.00    +0.000 F 
ATOM     13  C   UNL     1       1.582   4.486  20.909  0.00  0.00    +0.000 A 
ATOM     14  C   UNL     1       2.301   4.958  19.827  0.00  0.00    +0.000 A 
ENDROOT
BRANCH   6  15
ATOM     15  O   UNL     1       4.849   5.399  16.057  0.00  0.00    +0.000 OA
BRANCH  15  16
ATOM     16  C   UNL     1       6.261   5.368  15.817  0.00  0.00    +0.000 C 
BRANCH  16  17
ATOM     17  C   UNL     1       7.043   6.029  16.922  0.00  0.00    +0.000 A 
ATOM     18  C   UNL     1       7.361   7.395  16.868  0.00  0.00    +0.000 A 
ATOM     19  C   UNL     1       8.039   8.007  17.927  0.00  0.00    +0.000 A 
ATOM     20  C   UNL     1       8.397   7.265  19.052  0.00  0.00    +0.000 A 
ATOM     21  C   UNL     1       8.080   5.910  19.119  0.00  0.00    +0.000 A 
ATOM     22  C   UNL     1       7.410   5.295  18.059  0.00  0.00    +0.000 A 
ENDBRANCH  16  17
ENDBRANCH  15  16
ENDBRANCH   6  15
TORSDOF 3
ENDMDL
MODEL 2
REMARK VINA RESULT:      -8.0      0.064      1.031
REMARK  Name = 
REMARK  3 active torsions:
REMARK  status: ('A' for Active; 'I' for Inactive)
REMARK    1  A    between atoms: C_6  and  O_8
REMARK    2  A    between atoms: O_8  and  C_9
REMARK    3  A    between atoms: C_9  and  C_10
REMARK                            x       y       z     vdW  Elec       q    Type
REMARK                         _______ _______ _______ _____ _____    ______ ____
ROOT
ATOM      1  O   UNL     1       2.160   7.350  19.971  0.00  0.00    +0.000 OA
ATOM      2  C   UNL     1       2.550   6.354  19.406  0.00  0.00    +0.000 C 
ATOM      3  C   UNL     1       3.390   6.283  18.124  0.00  0.00    +0.000 C 
ATOM      4  O   UNL     1       3.780   7.276  17.541  0.00  0.00    +0.000 OA
ATOM      5  N   UNL     1       3.577   4.921  17.871  0.00  0.00    +0.000 N 
ATOM      6  C   UNL     1       4.315   4.401  16.815  0.00  0.00    +0.000 C 
ATOM      7  O   UNL     1       4.545   3.209  16.643  0.00  0.00    +0.000 OA
ATOM      8  C   UNL     1       2.965   4.155  18.898  0.00  0.00    +0.000 A 
ATOM      9  C   UNL     1       2.930   2.781  19.094  0.00  0.00    +0.000 A 
ATOM     10  C   UNL     1       2.223   2.281  20.201  0.00  0.00    +0.000 A 
ATOM     11  C   UNL     1       1.577   3.149  21.094  0.00  0.00    +0.000 A 
ATOM     12  F   UNL     1       0.901   2.639  22.132  0.00  0.00    +0.000 F 
ATOM     13  C   UNL     1       1.627   4.523  20.924  0.00  0.00    +0.000 A 
ATOM     14  C   UNL     1       2.325   4.981  19.823  0.00  0.00    +0.000 A 
ENDROOT
BRANCH   6  15
ATOM     15  O   UNL     1       4.816   5.377  16.009  0.00  0.00    +0.000 OA
BRANCH  15  16
ATOM     16  C   UNL     1       6.235   5.405  15.815  0.00  0.00    +0.000 C 
BRANCH  16  17
ATOM     17  C   UNL     1       6.955   6.072  16.958  0.00  0.00    +0.000 A 
ATOM     18  C   UNL     1       7.369   5.339  18.080  0.00  0.00    +0.000 A 
ATOM     19  C   UNL     1       8.087   5.960  19.107  0.00  0.00    +0.000 A 
ATOM     20  C   UNL     1       8.404   7.315  19.020  0.00  0.00    +0.000 A 
ATOM     21  C   UNL     1       8.002   8.051  17.907  0.00  0.00    +0.000 A 
ATOM     22  C   UNL     1       7.280   7.434  16.884  0.00  0.00    +0.000 A 
ENDBRANCH  16  17
ENDBRANCH  15  16
ENDBRANCH   6  15
TORSDOF 3
ENDMDL
MODEL 3
REMARK VINA RESULT:      -7.9      1.756      3.099
REMARK  Name = 
REMARK  3 active torsions:
REMARK  status: ('A' for Active; 'I' for Inactive)
REMARK    1  A    between atoms: C_6  and  O_8
REMARK    2  A    between atoms: O_8  and  C_9
REMARK    3  A    between atoms: C_9  and  C_10
REMARK                            x       y       z     vdW  Elec       q    Type
REMARK                         _______ _______ _______ _____ _____    ______ ____
ROOT
ATOM      1  O   UNL     1       2.130   7.396  19.818  0.00  0.00    +0.000 OA
ATOM      2  C   UNL     1       2.589   6.387  19.334  0.00  0.00    +0.000 C 
ATOM      3  C   UNL     1       3.533   6.281  18.129  0.00  0.00    +0.000 C 
ATOM      4  O   UNL     1       3.946   7.257  17.533  0.00  0.00    +0.000 OA
ATOM      5  N   UNL     1       3.773   4.915  17.957  0.00  0.00    +0.000 N 
ATOM      6  C   UNL     1       4.608   4.368  16.990  0.00  0.00    +0.000 C 
ATOM      7  O   UNL     1       4.879   3.176  16.893  0.00  0.00    +0.000 OA
ATOM      8  C   UNL     1       3.097   4.179  18.966  0.00  0.00    +0.000 A 
ATOM      9  C   UNL     1       3.078   2.815  19.223  0.00  0.00    +0.000 A 
ATOM     10  C   UNL     1       2.295   2.346  20.291  0.00  0.00    +0.000 A 
ATOM     11  C   UNL     1       1.557   3.236  21.087  0.00  0.00    +0.000 A 
ATOM     12  F   UNL     1       0.810   2.754  22.090  0.00  0.00    +0.000 F 
ATOM     13  C   UNL     1       1.588   4.601  20.857  0.00  0.00    +0.000 A 
ATOM     14  C   UNL     1       2.363   5.028  19.796  0.00  0.00    +0.000 A 
ENDROOT
BRANCH   6  15
ATOM     15  O   UNL     1       5.149   5.320  16.182  0.00  0.00    +0.000 OA
BRANCH  15  16
ATOM     16  C   UNL     1       6.519   5.155  15.799  0.00  0.00    +0.000 C 
BRANCH  16  17
ATOM     17  C   UNL     1       6.666   4.789  14.344  0.00  0.00    +0.000 A 
ATOM     18  C   UNL     1       7.656   5.379  13.544  0.00  0.00    +0.000 A 
ATOM     19  C   UNL     1       7.816   4.989  12.211  0.00  0.00    +0.000 A 
ATOM     20  C   UNL     1       6.996   4.001  11.668  0.00  0.00    +0.000 A 
ATOM     21  C   UNL     1       6.014   3.404  12.455  0.00  0.00    +0.000 A 
ATOM     22  C   UNL     1       5.848   3.798  13.784  0.00  0.00    +0.000 A 
ENDBRANCH  16  17
ENDBRANCH  15  16
ENDBRANCH   6  15
TORSDOF 3
ENDMDL
MODEL 4
REMARK VINA RESULT:      -7.9      1.720      3.162
REMARK  Name = 
REMARK  3 active torsions:
REMARK  status: ('A' for Active; 'I' for Inactive)
REMARK    1  A    between atoms: C_6  and  O_8
REMARK    2  A    between atoms: O_8  and  C_9
REMARK    3  A    between atoms: C_9  and  C_10
REMARK                            x       y       z     vdW  Elec       q    Type
REMARK                         _______ _______ _______ _____ _____    ______ ____
ROOT
ATOM      1  O   UNL     1       2.105   7.325  19.880  0.00  0.00    +0.000 OA
ATOM      2  C   UNL     1       2.528   6.314  19.368  0.00  0.00    +0.000 C 
ATOM      3  C   UNL     1       3.435   6.207  18.135  0.00  0.00    +0.000 C 
ATOM      4  O   UNL     1       3.852   7.184  17.542  0.00  0.00    +0.000 OA
ATOM      5  N   UNL     1       3.640   4.839  17.935  0.00  0.00    +0.000 N 
ATOM      6  C   UNL     1       4.434   4.290  16.936  0.00  0.00    +0.000 C 
ATOM      7  O   UNL     1       4.677   3.094  16.813  0.00  0.00    +0.000 OA
ATOM      8  C   UNL     1       2.977   4.102  18.951  0.00  0.00    +0.000 A 
ATOM      9  C   UNL     1       2.936   2.734  19.188  0.00  0.00    +0.000 A 
ATOM     10  C   UNL     1       2.173   2.266  20.272  0.00  0.00    +0.000 A 
ATOM     11  C   UNL     1       1.478   3.158  21.102  0.00  0.00    +0.000 A 
ATOM     12  F   UNL     1       0.750   2.677  22.118  0.00  0.00    +0.000 F 
ATOM     13  C   UNL     1       1.533   4.526  20.892  0.00  0.00    +0.000 A 
ATOM     14  C   UNL     1       2.286   4.953  19.816  0.00  0.00    +0.000 A 
ENDROOT
BRANCH   6  15
ATOM     15  O   UNL     1       4.973   5.243  16.127  0.00  0.00    +0.000 OA
BRANCH  15  16
ATOM     16  C   UNL     1       6.373   5.148  15.843  0.00  0.00    +0.000 C 
BRANCH  16  17
ATOM     17  C   UNL     1       6.640   4.760  14.411  0.00  0.00    +0.000 A 
ATOM     18  C   UNL     1       5.903   3.744  13.785  0.00  0.00    +0.000 A 
ATOM     19  C   UNL     1       6.123   3.434  12.440  0.00  0.00    +0.000 A 
ATOM     20  C   UNL     1       7.074   4.141  11.705  0.00  0.00    +0.000 A 
ATOM     21  C   UNL     1       7.808   5.157  12.315  0.00  0.00    +0.000 A 
ATOM     22  C   UNL     1       7.594   5.462  13.660  0.00  0.00    +0.000 A 
ENDBRANCH  16  17
ENDBRANCH  15  16
ENDBRANCH   6  15
TORSDOF 3
ENDMDL
MODEL 5
REMARK VINA RESULT:      -7.6      3.795      6.649
REMARK  Name = 
REMARK  3 active torsions:
REMARK  status: ('A' for Active; 'I' for Inactive)
REMARK    1  A    between atoms: C_6  and  O_8
REMARK    2  A    between atoms: O_8  and  C_9
REMARK    3  A    between atoms: C_9  and  C_10
REMARK                            x       y       z     vdW  Elec       q    Type
REMARK                         _______ _______ _______ _____ _____    ______ ____
ROOT
ATOM      1  O   UNL     1       3.350   3.487  19.744  0.00  0.00    +0.000 OA
ATOM      2  C   UNL     1       3.362   4.526  19.127  0.00  0.00    +0.000 C 
ATOM      3  C   UNL     1       2.586   5.809  19.454  0.00  0.00    +0.000 C 
ATOM      4  O   UNL     1       1.867   5.909  20.430  0.00  0.00    +0.000 OA
ATOM      5  N   UNL     1       2.925   6.721  18.451  0.00  0.00    +0.000 N 
ATOM      6  C   UNL     1       2.468   8.032  18.377  0.00  0.00    +0.000 C 
ATOM      7  O   UNL     1       2.831   8.853  17.542  0.00  0.00    +0.000 OA
ATOM      8  C   UNL     1       3.864   6.131  17.564  0.00  0.00    +0.000 A 
ATOM      9  C   UNL     1       4.514   6.663  16.459  0.00  0.00    +0.000 A 
ATOM     10  C   UNL     1       5.393   5.837  15.738  0.00  0.00    +0.000 A 
ATOM     11  C   UNL     1       5.618   4.509  16.131  0.00  0.00    +0.000 A 
ATOM     12  F   UNL     1       6.451   3.744  15.413  0.00  0.00    +0.000 F 
ATOM     13  C   UNL     1       4.996   3.974  17.247  0.00  0.00    +0.000 A 
ATOM     14  C   UNL     1       4.134   4.811  17.930  0.00  0.00    +0.000 A 
ENDROOT
BRANCH   6  15
ATOM     15  O   UNL     1       1.604   8.330  19.385  0.00  0.00    +0.000 OA
BRANCH  15  16
ATOM     16  C   UNL     1       0.968   9.613  19.346  0.00  0.00    +0.000 C 
BRANCH  16  17
ATOM     17  C   UNL     1       0.338   9.979  20.666  0.00  0.00    +0.000 A 
ATOM     18  C   UNL     1      -0.303  11.213  20.846  0.00  0.00    +0.000 A 
ATOM     19  C   UNL     1      -0.932  11.516  22.058  0.00  0.00    +0.000 A 
ATOM     20  C   UNL     1      -0.934  10.586  23.097  0.00  0.00    +0.000 A 
ATOM     21  C   UNL     1      -0.306   9.354  22.926  0.00  0.00    +0.000 A 
ATOM     22  C   UNL     1       0.329   9.053  21.720  0.00  0.00    +0.000 A 
ENDBRANCH  16  17
ENDBRANCH  15  16
ENDBRANCH   6  15
TORSDOF 3
ENDMDL
MODEL 6
REMARK VINA RESULT:      -7.5      3.837      6.756
REMARK  Name = 
REMARK  3 active torsions:
REMARK  status: ('A' for Active; 'I' for Inactive)
REMARK    1  A    between atoms: C_6  and  O_8
REMARK    2  A    between atoms: O_8  and  C_9
REMARK    3  A    between atoms: C_9  and  C_10
REMARK                            x       y       z     vdW  Elec       q    Type
REMARK                         _______ _______ _______ _____ _____    ______ ____
ROOT
ATOM      1  O   UNL     1       3.426   3.592  19.961  0.00  0.00    +0.000 OA
ATOM      2  C   UNL     1       3.400   4.604  19.301  0.00  0.00    +0.000 C 
ATOM      3  C   UNL     1       2.586   5.875  19.582  0.00  0.00    +0.000 C 
ATOM      4  O   UNL     1       1.873   5.993  20.560  0.00  0.00    +0.000 OA
ATOM      5  N   UNL     1       2.886   6.754  18.537  0.00  0.00    +0.000 N 
ATOM      6  C   UNL     1       2.387   8.045  18.413  0.00  0.00    +0.000 C 
ATOM      7  O   UNL     1       2.716   8.841  17.541  0.00  0.00    +0.000 OA
ATOM      8  C   UNL     1       3.836   6.156  17.667  0.00  0.00    +0.000 A 
ATOM      9  C   UNL     1       4.458   6.662  16.533  0.00  0.00    +0.000 A 
ATOM     10  C   UNL     1       5.356   5.833  15.838  0.00  0.00    +0.000 A 
ATOM     11  C   UNL     1       5.627   4.531  16.284  0.00  0.00    +0.000 A 
ATOM     12  F   UNL     1       6.477   3.763  15.590  0.00  0.00    +0.000 F 
ATOM     13  C   UNL     1       5.032   4.025  17.428  0.00  0.00    +0.000 A 
ATOM     14  C   UNL     1       4.151   4.862  18.085  0.00  0.00    +0.000 A 
ENDROOT
BRANCH   6  15
ATOM     15  O   UNL     1       1.523   8.359  19.417  0.00  0.00    +0.000 OA
BRANCH  15  16
ATOM     16  C   UNL     1       0.935   9.665  19.394  0.00  0.00    +0.000 C 
BRANCH  16  17
ATOM     17  C   UNL     1       0.214   9.990  20.676  0.00  0.00    +0.000 A 
ATOM     18  C   UNL     1       0.219   9.096  21.758  0.00  0.00    +0.000 A 
ATOM     19  C   UNL     1      -0.407   9.436  22.961  0.00  0.00    +0.000 A 
ATOM     20  C   UNL     1      -1.036  10.672  23.098  0.00  0.00    +0.000 A 
ATOM     21  C   UNL     1      -1.042  11.570  22.032  0.00  0.00    +0.000 A 
ATOM     22  C   UNL     1      -0.424  11.230  20.828  0.00  0.00    +0.000 A 
ENDBRANCH  16  17
ENDBRANCH  15  16
ENDBRANCH   6  15
TORSDOF 3
ENDMDL
MODEL 7
REMARK VINA RESULT:      -7.5      4.907      7.281
REMARK  Name = 
REMARK  3 active torsions:
REMARK  status: ('A' for Active; 'I' for Inactive)
REMARK    1  A    between atoms: C_6  and  O_8
REMARK    2  A    between atoms: O_8  and  C_9
REMARK    3  A    between atoms: C_9  and  C_10
REMARK                            x       y       z     vdW  Elec       q    Type
REMARK                         _______ _______ _______ _____ _____    ______ ____
ROOT
ATOM      1  O   UNL     1      -0.119  10.328  23.280  0.00  0.00    +0.000 OA
ATOM      2  C   UNL     1       0.040  10.222  22.086  0.00  0.00    +0.000 C 
ATOM      3  C   UNL     1       0.966   9.240  21.356  0.00  0.00    +0.000 C 
ATOM      4  O   UNL     1       1.644   8.419  21.944  0.00  0.00    +0.000 OA
ATOM      5  N   UNL     1       0.803   9.509  19.994  0.00  0.00    +0.000 N 
ATOM      6  C   UNL     1       1.436   8.823  18.964  0.00  0.00    +0.000 C 
ATOM      7  O   UNL     1       1.228   9.007  17.771  0.00  0.00    +0.000 OA
ATOM      8  C   UNL     1      -0.164  10.535  19.821  0.00  0.00    +0.000 A 
ATOM      9  C   UNL     1      -0.682  11.095  18.662  0.00  0.00    +0.000 A 
ATOM     10  C   UNL     1      -1.629  12.127  18.783  0.00  0.00    +0.000 A 
ATOM     11  C   UNL     1      -2.050  12.573  20.044  0.00  0.00    +0.000 A 
ATOM     12  F   UNL     1      -2.944  13.568  20.123  0.00  0.00    +0.000 F 
ATOM     13  C   UNL     1      -1.561  12.004  21.208  0.00  0.00    +0.000 A 
ATOM     14  C   UNL     1      -0.628  10.997  21.055  0.00  0.00    +0.000 A 
ENDROOT
BRANCH   6  15
ATOM     15  O   UNL     1       2.283   7.866  19.432  0.00  0.00    +0.000 OA
BRANCH  15  16
ATOM     16  C   UNL     1       2.668   6.829  18.522  0.00  0.00    +0.000 C 
BRANCH  16  17
ATOM     17  C   UNL     1       2.122   5.483  18.925  0.00  0.00    +0.000 A 
ATOM     18  C   UNL     1       1.791   5.206  20.260  0.00  0.00    +0.000 A 
ATOM     19  C   UNL     1       1.232   3.973  20.610  0.00  0.00    +0.000 A 
ATOM     20  C   UNL     1       0.991   3.010  19.631  0.00  0.00    +0.000 A 
ATOM     21  C   UNL     1       1.310   3.278  18.301  0.00  0.00    +0.000 A 
ATOM     22  C   UNL     1       1.874   4.505  17.951  0.00  0.00    +0.000 A 
ENDBRANCH  16  17
ENDBRANCH  15  16
ENDBRANCH   6  15
TORSDOF 3
ENDMDL
MODEL 8
REMARK VINA RESULT:      -7.5      2.698      4.414
REMARK  Name = 
REMARK  3 active torsions:
REMARK  status: ('A' for Active; 'I' for Inactive)
REMARK    1  A    between atoms: C_6  and  O_8
REMARK    2  A    between atoms: O_8  and  C_9
REMARK    3  A    between atoms: C_9  and  C_10
REMARK                            x       y       z     vdW  Elec       q    Type
REMARK                         _______ _______ _______ _____ _____    ______ ____
ROOT
ATOM      1  O   UNL     1       2.520   4.752  20.957  0.00  0.00    +0.000 OA
ATOM      2  C   UNL     1       2.874   5.367  19.978  0.00  0.00    +0.000 C 
ATOM      3  C   UNL     1       3.840   4.894  18.883  0.00  0.00    +0.000 C 
ATOM      4  O   UNL     1       4.347   3.789  18.891  0.00  0.00    +0.000 OA
ATOM      5  N   UNL     1       3.933   5.955  17.978  0.00  0.00    +0.000 N 
ATOM      6  C   UNL     1       4.684   5.942  16.808  0.00  0.00    +0.000 C 
ATOM      7  O   UNL     1       4.698   6.841  15.976  0.00  0.00    +0.000 OA
ATOM      8  C   UNL     1       3.084   7.015  18.393  0.00  0.00    +0.000 A 
ATOM      9  C   UNL     1       2.814   8.238  17.794  0.00  0.00    +0.000 A 
ATOM     10  C   UNL     1       1.936   9.121  18.444  0.00  0.00    +0.000 A 
ATOM     11  C   UNL     1       1.336   8.774  19.664  0.00  0.00    +0.000 A 
ATOM     12  F   UNL     1       0.514   9.645  20.263  0.00  0.00    +0.000 F 
ATOM     13  C   UNL     1       1.577   7.546  20.259  0.00  0.00    +0.000 A 
ATOM     14  C   UNL     1       2.450   6.703  19.597  0.00  0.00    +0.000 A 
ENDROOT
BRANCH   6  15
ATOM     15  O   UNL     1       5.369   4.776  16.653  0.00  0.00    +0.000 OA
BRANCH  15  16
ATOM     16  C   UNL     1       6.706   4.862  16.148  0.00  0.00    +0.000 C 
BRANCH  16  17
ATOM     17  C   UNL     1       6.769   4.650  14.657  0.00  0.00    +0.000 A 
ATOM     18  C   UNL     1       7.680   5.362  13.861  0.00  0.00    +0.000 A 
ATOM     19  C   UNL     1       7.766   5.114  12.488  0.00  0.00    +0.000 A 
ATOM     20  C   UNL     1       6.951   4.148  11.898  0.00  0.00    +0.000 A 
ATOM     21  C   UNL     1       6.047   3.431  12.681  0.00  0.00    +0.000 A 
ATOM     22  C   UNL     1       5.955   3.683  14.050  0.00  0.00    +0.000 A 
ENDBRANCH  16  17
ENDBRANCH  15  16
ENDBRANCH   6  15
TORSDOF 3
ENDMDL
MODEL 9
REMARK VINA RESULT:      -7.4      4.824      7.223
REMARK  Name = 
REMARK  3 active torsions:
REMARK  status: ('A' for Active; 'I' for Inactive)
REMARK    1  A    between atoms: C_6  and  O_8
REMARK    2  A    between atoms: O_8  and  C_9
REMARK    3  A    between atoms: C_9  and  C_10
REMARK                            x       y       z     vdW  Elec       q    Type
REMARK                         _______ _______ _______ _____ _____    ______ ____
ROOT
ATOM      1  O   UNL     1      -0.035  10.147  23.261  0.00  0.00    +0.000 OA
ATOM      2  C   UNL     1       0.154  10.086  22.068  0.00  0.00    +0.000 C 
ATOM      3  C   UNL     1       1.055   9.094  21.320  0.00  0.00    +0.000 C 
ATOM      4  O   UNL     1       1.676   8.216  21.889  0.00  0.00    +0.000 OA
ATOM      5  N   UNL     1       0.946   9.430  19.968  0.00  0.00    +0.000 N 
ATOM      6  C   UNL     1       1.577   8.761  18.926  0.00  0.00    +0.000 C 
ATOM      7  O   UNL     1       1.414   9.007  17.737  0.00  0.00    +0.000 OA
ATOM      8  C   UNL     1       0.034  10.508  19.815  0.00  0.00    +0.000 A 
ATOM      9  C   UNL     1      -0.422  11.143  18.668  0.00  0.00    +0.000 A 
ATOM     10  C   UNL     1      -1.323  12.213  18.809  0.00  0.00    +0.000 A 
ATOM     11  C   UNL     1      -1.761  12.623  20.077  0.00  0.00    +0.000 A 
ATOM     12  F   UNL     1      -2.609  13.655  20.176  0.00  0.00    +0.000 F 
ATOM     13  C   UNL     1      -1.334  11.981  21.227  0.00  0.00    +0.000 A 
ATOM     14  C   UNL     1      -0.445  10.937  21.054  0.00  0.00    +0.000 A 
ENDROOT
BRANCH   6  15
ATOM     15  O   UNL     1       2.364   7.745  19.373  0.00  0.00    +0.000 OA
BRANCH  15  16
ATOM     16  C   UNL     1       2.654   6.686  18.453  0.00  0.00    +0.000 C 
BRANCH  16  17
ATOM     17  C   UNL     1       2.027   5.380  18.868  0.00  0.00    +0.000 A 
ATOM     18  C   UNL     1       1.785   4.362  17.932  0.00  0.00    +0.000 A 
ATOM     19  C   UNL     1       1.254   3.135  18.341  0.00  0.00    +0.000 A 
ATOM     20  C   UNL     1       0.968   2.910  19.687  0.00  0.00    +0.000 A 
ATOM     21  C   UNL     1       1.211   3.911  20.625  0.00  0.00    +0.000 A 
ATOM     22  C   UNL     1       1.734   5.139  20.218  0.00  0.00    +0.000 A 
ENDBRANCH  16  17
ENDBRANCH  15  16
ENDBRANCH   6  15
TORSDOF 3
ENDMDL
