MODEL 1
REMARK VINA RESULT:      -8.4      0.000      0.000
REMARK  Name = 
REMARK  7 active torsions:
REMARK  status: ('A' for Active; 'I' for Inactive)
REMARK    1  A    between atoms: C_2  and  C_3
REMARK    2  A    between atoms: C_3  and  C_4
REMARK    3  A    between atoms: N_14  and  CA_15
REMARK    4  A    between atoms: CA_15  and  CB_16
REMARK    5  A    between atoms: CA_15  and  C_23
REMARK    6  A    between atoms: CB_16  and  CG_17
REMARK    7  A    between atoms: C_23  and  OXT_25
REMARK                            x       y       z     vdW  Elec       q    Type
REMARK                         _______ _______ _______ _____ _____    ______ ____
ROOT
ATOM      1  O   UNK A   0       5.196   6.623  18.501  0.00  0.00    +0.000 OA
ATOM      2  C   UNK A   0       4.204   6.534  17.784  0.00  0.00    +0.000 C 
ATOM      3  N   PHE A   1       3.858   5.372  17.139  0.00  0.00    +0.000 N 
ATOM      4  H   PHE A   1       3.140   5.419  16.415  0.00  0.00    +0.000 HD
ENDROOT
BRANCH   2   5
ATOM      5  C   UNK A   0       3.192   7.657  17.605  0.00  0.00    +0.000 C 
BRANCH   5   6
ATOM      6  C   UNK A   0       2.238   7.945  18.745  0.00  0.00    +0.000 A 
ATOM      7  C   UNK A   0       2.188   7.042  19.817  0.00  0.00    +0.000 A 
ATOM      8  C   UNK A   0       1.476   7.340  20.985  0.00  0.00    +0.000 A 
ATOM      9  C   UNK A   0       0.798   8.554  21.113  0.00  0.00    +0.000 A 
ATOM     10  C   UNK A   0       0.124   8.888  22.304  0.00  0.00    +0.000 A 
ATOM     11  C   UNK A   0      -0.544  10.101  22.431  0.00  0.00    +0.000 A 
ATOM     12  C   UNK A   0      -0.562  10.994  21.366  0.00  0.00    +0.000 A 
ATOM     13  C   UNK A   0       0.102  10.679  20.175  0.00  0.00    +0.000 A 
ATOM     14  C   UNK A   0       0.800   9.466  20.031  0.00  0.00    +0.000 A 
ATOM     15  C   UNK A   0       1.524   9.147  18.860  0.00  0.00    +0.000 A 
ENDBRANCH   5   6
ENDBRANCH   2   5
BRANCH   3  16
ATOM     16  CA  PHE A   1       4.587   4.100  17.211  0.00  0.00    +0.000 C 
BRANCH  16  17
ATOM     17  C   PHE A   1       5.354   3.995  15.879  0.00  0.00    +0.000 C 
ATOM     18  O   PHE A   1       5.381   4.899  15.049  0.00  0.00    +0.000 OA
BRANCH  17  19
ATOM     19  OXT PHE A   1       6.048   2.850  15.697  0.00  0.00    +0.000 OA
ATOM     20  HXT PHE A   1       6.759   2.683  16.340  0.00  0.00    +0.000 HD
ENDBRANCH  17  19
ENDBRANCH  16  17
BRANCH  16  21
ATOM     21  CB  PHE A   1       3.692   2.867  17.475  0.00  0.00    +0.000 C 
BRANCH  21  22
ATOM     22  CG  PHE A   1       2.830   2.989  18.712  0.00  0.00    +0.000 A 
ATOM     23  CD1 PHE A   1       1.456   3.255  18.614  0.00  0.00    +0.000 A 
ATOM     24  CE1 PHE A   1       0.704   3.524  19.758  0.00  0.00    +0.000 A 
ATOM     25  CZ  PHE A   1       1.314   3.509  21.010  0.00  0.00    +0.000 A 
ATOM     26  CE2 PHE A   1       2.664   3.184  21.123  0.00  0.00    +0.000 A 
ATOM     27  CD2 PHE A   1       3.417   2.917  19.981  0.00  0.00    +0.000 A 
ENDBRANCH  21  22
ENDBRANCH  16  21
ENDBRANCH   3  16
TORSDOF 7
ENDMDL
MODEL 2
REMARK VINA RESULT:      -8.4      2.247      5.055
REMARK  Name = 
REMARK  7 active torsions:
REMARK  status: ('A' for Active; 'I' for Inactive)
REMARK    1  A    between atoms: C_2  and  C_3
REMARK    2  A    between atoms: C_3  and  C_4
REMARK    3  A    between atoms: N_14  and  CA_15
REMARK    4  A    between atoms: CA_15  and  CB_16
REMARK    5  A    between atoms: CA_15  and  C_23
REMARK    6  A    between atoms: CB_16  and  CG_17
REMARK    7  A    between atoms: C_23  and  OXT_25
REMARK                            x       y       z     vdW  Elec       q    Type
REMARK                         _______ _______ _______ _____ _____    ______ ____
ROOT
ATOM      1  O   UNK A   0       3.964   2.536  17.799  0.00  0.00    +0.000 OA
ATOM      2  C   UNK A   0       4.235   3.515  18.485  0.00  0.00    +0.000 C 
ATOM      3  N   PHE A   1       5.232   4.400  18.154  0.00  0.00    +0.000 N 
ATOM      4  H   PHE A   1       5.529   5.075  18.859  0.00  0.00    +0.000 HD
ENDROOT
BRANCH   2   5
ATOM      5  C   UNK A   0       3.442   3.922  19.719  0.00  0.00    +0.000 C 
BRANCH   5   6
ATOM      6  C   UNK A   0       2.697   5.240  19.686  0.00  0.00    +0.000 A 
ATOM      7  C   UNK A   0       1.970   5.624  20.823  0.00  0.00    +0.000 A 
ATOM      8  C   UNK A   0       1.421   6.907  20.934  0.00  0.00    +0.000 A 
ATOM      9  C   UNK A   0       1.588   7.843  19.911  0.00  0.00    +0.000 A 
ATOM     10  C   UNK A   0       1.085   9.152  20.035  0.00  0.00    +0.000 A 
ATOM     11  C   UNK A   0       1.260  10.084  19.017  0.00  0.00    +0.000 A 
ATOM     12  C   UNK A   0       1.926   9.718  17.853  0.00  0.00    +0.000 A 
ATOM     13  C   UNK A   0       2.432   8.421  17.713  0.00  0.00    +0.000 A 
ATOM     14  C   UNK A   0       2.283   7.468  18.737  0.00  0.00    +0.000 A 
ATOM     15  C   UNK A   0       2.832   6.169  18.643  0.00  0.00    +0.000 A 
ENDBRANCH   5   6
ENDBRANCH   2   5
BRANCH   3  16
ATOM     16  CA  PHE A   1       6.091   4.320  16.967  0.00  0.00    +0.000 C 
BRANCH  16  17
ATOM     17  C   PHE A   1       7.471   4.824  17.428  0.00  0.00    +0.000 C 
ATOM     18  O   PHE A   1       8.358   4.076  17.828  0.00  0.00    +0.000 OA
BRANCH  17  19
ATOM     19  OXT PHE A   1       7.671   6.157  17.319  0.00  0.00    +0.000 OA
ATOM     20  HXT PHE A   1       6.868   6.706  17.363  0.00  0.00    +0.000 HD
ENDBRANCH  17  19
ENDBRANCH  16  17
BRANCH  16  21
ATOM     21  CB  PHE A   1       5.557   5.100  15.742  0.00  0.00    +0.000 C 
BRANCH  21  22
ATOM     22  CG  PHE A   1       6.134   4.637  14.422  0.00  0.00    +0.000 A 
ATOM     23  CD1 PHE A   1       7.295   5.222  13.894  0.00  0.00    +0.000 A 
ATOM     24  CE1 PHE A   1       7.725   4.901  12.606  0.00  0.00    +0.000 A 
ATOM     25  CZ  PHE A   1       7.013   3.979  11.845  0.00  0.00    +0.000 A 
ATOM     26  CE2 PHE A   1       5.895   3.345  12.384  0.00  0.00    +0.000 A 
ATOM     27  CD2 PHE A   1       5.461   3.666  13.670  0.00  0.00    +0.000 A 
ENDBRANCH  21  22
ENDBRANCH  16  21
ENDBRANCH   3  16
TORSDOF 7
ENDMDL
MODEL 3
REMARK VINA RESULT:      -8.3      2.176      3.909
REMARK  Name = 
REMARK  7 active torsions:
REMARK  status: ('A' for Active; 'I' for Inactive)
REMARK    1  A    between atoms: C_2  and  C_3
REMARK    2  A    between atoms: C_3  and  C_4
REMARK    3  A    between atoms: N_14  and  CA_15
REMARK    4  A    between atoms: CA_15  and  CB_16
REMARK    5  A    between atoms: CA_15  and  C_23
REMARK    6  A    between atoms: CB_16  and  CG_17
REMARK    7  A    between atoms: C_23  and  OXT_25
REMARK                            x       y       z     vdW  Elec       q    Type
REMARK                         _______ _______ _______ _____ _____    ______ ____
ROOT
ATOM      1  O   UNK A   0       1.108   3.683  19.714  0.00  0.00    +0.000 OA
ATOM      2  C   UNK A   0       2.143   4.306  19.928  0.00  0.00    +0.000 C 
ATOM      3  N   PHE A   1       3.320   4.036  19.273  0.00  0.00    +0.000 N 
ATOM      4  H   PHE A   1       4.177   4.456  19.632  0.00  0.00    +0.000 HD
ENDROOT
BRANCH   2   5
ATOM      5  C   UNK A   0       2.224   5.507  20.860  0.00  0.00    +0.000 C 
BRANCH   5   6
ATOM      6  C   UNK A   0       2.018   6.885  20.267  0.00  0.00    +0.000 A 
ATOM      7  C   UNK A   0       2.425   7.109  18.943  0.00  0.00    +0.000 A 
ATOM      8  C   UNK A   0       2.094   8.292  18.272  0.00  0.00    +0.000 A 
ATOM      9  C   UNK A   0       1.341   9.282  18.907  0.00  0.00    +0.000 A 
ATOM     10  C   UNK A   0       0.957  10.452  18.224  0.00  0.00    +0.000 A 
ATOM     11  C   UNK A   0       0.201  11.433  18.857  0.00  0.00    +0.000 A 
ATOM     12  C   UNK A   0      -0.169  11.268  20.187  0.00  0.00    +0.000 A 
ATOM     13  C   UNK A   0       0.204  10.112  20.881  0.00  0.00    +0.000 A 
ATOM     14  C   UNK A   0       0.953   9.098  20.255  0.00  0.00    +0.000 A 
ATOM     15  C   UNK A   0       1.295   7.897  20.916  0.00  0.00    +0.000 A 
ENDBRANCH   5   6
ENDBRANCH   2   5
BRANCH   3  16
ATOM     16  CA  PHE A   1       3.513   3.006  18.246  0.00  0.00    +0.000 C 
BRANCH  16  17
ATOM     17  C   PHE A   1       4.162   1.817  18.980  0.00  0.00    +0.000 C 
ATOM     18  O   PHE A   1       4.745   1.931  20.055  0.00  0.00    +0.000 OA
BRANCH  17  19
ATOM     19  OXT PHE A   1       4.007   0.612  18.388  0.00  0.00    +0.000 OA
ATOM     20  HXT PHE A   1       3.102   0.254  18.396  0.00  0.00    +0.000 HD
ENDBRANCH  17  19
ENDBRANCH  16  17
BRANCH  16  21
ATOM     21  CB  PHE A   1       4.343   3.470  17.026  0.00  0.00    +0.000 C 
BRANCH  21  22
ATOM     22  CG  PHE A   1       5.219   4.671  17.302  0.00  0.00    +0.000 A 
ATOM     23  CD1 PHE A   1       4.946   5.916  16.714  0.00  0.00    +0.000 A 
ATOM     24  CE1 PHE A   1       5.848   6.973  16.846  0.00  0.00    +0.000 A 
ATOM     25  CZ  PHE A   1       7.017   6.802  17.583  0.00  0.00    +0.000 A 
ATOM     26  CE2 PHE A   1       7.266   5.589  18.223  0.00  0.00    +0.000 A 
ATOM     27  CD2 PHE A   1       6.368   4.531  18.090  0.00  0.00    +0.000 A 
ENDBRANCH  21  22
ENDBRANCH  16  21
ENDBRANCH   3  16
TORSDOF 7
ENDMDL
MODEL 4
REMARK VINA RESULT:      -8.3      0.736      1.177
REMARK  Name = 
REMARK  7 active torsions:
REMARK  status: ('A' for Active; 'I' for Inactive)
REMARK    1  A    between atoms: C_2  and  C_3
REMARK    2  A    between atoms: C_3  and  C_4
REMARK    3  A    between atoms: N_14  and  CA_15
REMARK    4  A    between atoms: CA_15  and  CB_16
REMARK    5  A    between atoms: CA_15  and  C_23
REMARK    6  A    between atoms: CB_16  and  CG_17
REMARK    7  A    between atoms: C_23  and  OXT_25
REMARK                            x       y       z     vdW  Elec       q    Type
REMARK                         _______ _______ _______ _____ _____    ______ ____
ROOT
ATOM      1  O   UNK A   0       5.655   6.976  17.955  0.00  0.00    +0.000 OA
ATOM      2  C   UNK A   0       4.590   6.673  17.426  0.00  0.00    +0.000 C 
ATOM      3  N   PHE A   1       4.274   5.382  17.081  0.00  0.00    +0.000 N 
ATOM      4  H   PHE A   1       3.464   5.230  16.478  0.00  0.00    +0.000 HD
ENDROOT
BRANCH   2   5
ATOM      5  C   UNK A   0       3.461   7.665  17.185  0.00  0.00    +0.000 C 
BRANCH   5   6
ATOM      6  C   UNK A   0       2.495   7.937  18.320  0.00  0.00    +0.000 A 
ATOM      7  C   UNK A   0       2.448   7.027  19.387  0.00  0.00    +0.000 A 
ATOM      8  C   UNK A   0       1.725   7.313  20.551  0.00  0.00    +0.000 A 
ATOM      9  C   UNK A   0       1.034   8.519  20.682  0.00  0.00    +0.000 A 
ATOM     10  C   UNK A   0       0.348   8.839  21.869  0.00  0.00    +0.000 A 
ATOM     11  C   UNK A   0      -0.333  10.045  21.998  0.00  0.00    +0.000 A 
ATOM     12  C   UNK A   0      -0.352  10.943  20.938  0.00  0.00    +0.000 A 
ATOM     13  C   UNK A   0       0.323  10.642  19.750  0.00  0.00    +0.000 A 
ATOM     14  C   UNK A   0       1.034   9.436  19.604  0.00  0.00    +0.000 A 
ATOM     15  C   UNK A   0       1.769   9.132  18.437  0.00  0.00    +0.000 A 
ENDBRANCH   5   6
ENDBRANCH   2   5
BRANCH   3  16
ATOM     16  CA  PHE A   1       5.124   4.205  17.291  0.00  0.00    +0.000 C 
BRANCH  16  17
ATOM     17  C   PHE A   1       6.012   4.115  16.036  0.00  0.00    +0.000 C 
ATOM     18  O   PHE A   1       5.584   3.779  14.936  0.00  0.00    +0.000 OA
BRANCH  17  19
ATOM     19  OXT PHE A   1       7.301   4.483  16.208  0.00  0.00    +0.000 OA
ATOM     20  HXT PHE A   1       7.440   5.301  16.718  0.00  0.00    +0.000 HD
ENDBRANCH  17  19
ENDBRANCH  16  17
BRANCH  16  21
ATOM     21  CB  PHE A   1       4.345   2.896  17.557  0.00  0.00    +0.000 C 
BRANCH  21  22
ATOM     22  CG  PHE A   1       3.198   3.051  18.531  0.00  0.00    +0.000 A 
ATOM     23  CD1 PHE A   1       3.429   3.398  19.871  0.00  0.00    +0.000 A 
ATOM     24  CE1 PHE A   1       2.384   3.382  20.796  0.00  0.00    +0.000 A 
ATOM     25  CZ  PHE A   1       1.098   3.040  20.386  0.00  0.00    +0.000 A 
ATOM     26  CE2 PHE A   1       0.847   2.756  19.045  0.00  0.00    +0.000 A 
ATOM     27  CD2 PHE A   1       1.890   2.769  18.120  0.00  0.00    +0.000 A 
ENDBRANCH  21  22
ENDBRANCH  16  21
ENDBRANCH   3  16
TORSDOF 7
ENDMDL
MODEL 5
REMARK VINA RESULT:      -8.3      0.866      1.583
REMARK  Name = 
REMARK  7 active torsions:
REMARK  status: ('A' for Active; 'I' for Inactive)
REMARK    1  A    between atoms: C_2  and  C_3
REMARK    2  A    between atoms: C_3  and  C_4
REMARK    3  A    between atoms: N_14  and  CA_15
REMARK    4  A    between atoms: CA_15  and  CB_16
REMARK    5  A    between atoms: CA_15  and  C_23
REMARK    6  A    between atoms: CB_16  and  CG_17
REMARK    7  A    between atoms: C_23  and  OXT_25
REMARK                            x       y       z     vdW  Elec       q    Type
REMARK                         _______ _______ _______ _____ _____    ______ ____
ROOT
ATOM      1  O   UNK A   0       3.710   6.118  19.510  0.00  0.00    +0.000 OA
ATOM      2  C   UNK A   0       3.563   6.270  18.302  0.00  0.00    +0.000 C 
ATOM      3  N   PHE A   1       4.069   5.390  17.377  0.00  0.00    +0.000 N 
ATOM      4  H   PHE A   1       4.077   5.674  16.397  0.00  0.00    +0.000 HD
ENDROOT
BRANCH   2   5
ATOM      5  C   UNK A   0       2.726   7.385  17.691  0.00  0.00    +0.000 C 
BRANCH   5   6
ATOM      6  C   UNK A   0       2.077   8.384  18.626  0.00  0.00    +0.000 A 
ATOM      7  C   UNK A   0       1.590   9.584  18.086  0.00  0.00    +0.000 A 
ATOM      8  C   UNK A   0       0.813  10.461  18.852  0.00  0.00    +0.000 A 
ATOM      9  C   UNK A   0       0.499  10.159  20.179  0.00  0.00    +0.000 A 
ATOM     10  C   UNK A   0      -0.326  11.009  20.941  0.00  0.00    +0.000 A 
ATOM     11  C   UNK A   0      -0.643  10.701  22.260  0.00  0.00    +0.000 A 
ATOM     12  C   UNK A   0      -0.129   9.549  22.843  0.00  0.00    +0.000 A 
ATOM     13  C   UNK A   0       0.693   8.694  22.100  0.00  0.00    +0.000 A 
ATOM     14  C   UNK A   0       1.011   8.975  20.759  0.00  0.00    +0.000 A 
ATOM     15  C   UNK A   0       1.793   8.101  19.971  0.00  0.00    +0.000 A 
ENDBRANCH   5   6
ENDBRANCH   2   5
BRANCH   3  16
ATOM     16  CA  PHE A   1       4.827   4.170  17.678  0.00  0.00    +0.000 C 
BRANCH  16  17
ATOM     17  C   PHE A   1       5.954   4.123  16.630  0.00  0.00    +0.000 C 
ATOM     18  O   PHE A   1       6.854   4.956  16.577  0.00  0.00    +0.000 OA
BRANCH  17  19
ATOM     19  OXT PHE A   1       5.924   3.065  15.789  0.00  0.00    +0.000 OA
ATOM     20  HXT PHE A   1       6.234   3.240  14.883  0.00  0.00    +0.000 HD
ENDBRANCH  17  19
ENDBRANCH  16  17
BRANCH  16  21
ATOM     21  CB  PHE A   1       3.977   2.878  17.689  0.00  0.00    +0.000 C 
BRANCH  21  22
ATOM     22  CG  PHE A   1       3.010   2.790  18.848  0.00  0.00    +0.000 A 
ATOM     23  CD1 PHE A   1       1.628   2.937  18.651  0.00  0.00    +0.000 A 
ATOM     24  CE1 PHE A   1       0.762   3.014  19.743  0.00  0.00    +0.000 A 
ATOM     25  CZ  PHE A   1       1.267   2.925  21.037  0.00  0.00    +0.000 A 
ATOM     26  CE2 PHE A   1       2.629   2.715  21.241  0.00  0.00    +0.000 A 
ATOM     27  CD2 PHE A   1       3.496   2.640  20.152  0.00  0.00    +0.000 A 
ENDBRANCH  21  22
ENDBRANCH  16  21
ENDBRANCH   3  16
TORSDOF 7
ENDMDL
MODEL 6
REMARK VINA RESULT:      -8.2      2.200      4.765
REMARK  Name = 
REMARK  7 active torsions:
REMARK  status: ('A' for Active; 'I' for Inactive)
REMARK    1  A    between atoms: C_2  and  C_3
REMARK    2  A    between atoms: C_3  and  C_4
REMARK    3  A    between atoms: N_14  and  CA_15
REMARK    4  A    between atoms: CA_15  and  CB_16
REMARK    5  A    between atoms: CA_15  and  C_23
REMARK    6  A    between atoms: CB_16  and  CG_17
REMARK    7  A    between atoms: C_23  and  OXT_25
REMARK                            x       y       z     vdW  Elec       q    Type
REMARK                         _______ _______ _______ _____ _____    ______ ____
ROOT
ATOM      1  O   UNK A   0       3.036   4.080  17.110  0.00  0.00    +0.000 OA
ATOM      2  C   UNK A   0       3.610   4.624  18.047  0.00  0.00    +0.000 C 
ATOM      3  N   PHE A   1       4.948   4.932  18.019  0.00  0.00    +0.000 N 
ATOM      4  H   PHE A   1       5.397   5.204  18.894  0.00  0.00    +0.000 HD
ENDROOT
BRANCH   2   5
ATOM      5  C   UNK A   0       2.896   5.111  19.301  0.00  0.00    +0.000 C 
BRANCH   5   6
ATOM      6  C   UNK A   0       2.475   6.564  19.363  0.00  0.00    +0.000 A 
ATOM      7  C   UNK A   0       2.492   7.314  18.177  0.00  0.00    +0.000 A 
ATOM      8  C   UNK A   0       1.937   8.598  18.123  0.00  0.00    +0.000 A 
ATOM      9  C   UNK A   0       1.345   9.165  19.254  0.00  0.00    +0.000 A 
ATOM     10  C   UNK A   0       0.737  10.434  19.197  0.00  0.00    +0.000 A 
ATOM     11  C   UNK A   0       0.142  10.992  20.323  0.00  0.00    +0.000 A 
ATOM     12  C   UNK A   0       0.159  10.299  21.528  0.00  0.00    +0.000 A 
ATOM     13  C   UNK A   0       0.760   9.038  21.603  0.00  0.00    +0.000 A 
ATOM     14  C   UNK A   0       1.351   8.445  20.472  0.00  0.00    +0.000 A 
ATOM     15  C   UNK A   0       1.915   7.150  20.507  0.00  0.00    +0.000 A 
ENDBRANCH   5   6
ENDBRANCH   2   5
BRANCH   3  16
ATOM     16  CA  PHE A   1       5.864   4.678  16.902  0.00  0.00    +0.000 C 
BRANCH  16  17
ATOM     17  C   PHE A   1       7.263   5.048  17.430  0.00  0.00    +0.000 C 
ATOM     18  O   PHE A   1       7.705   6.193  17.411  0.00  0.00    +0.000 OA
BRANCH  17  19
ATOM     19  OXT PHE A   1       7.968   4.030  17.973  0.00  0.00    +0.000 OA
ATOM     20  HXT PHE A   1       7.632   3.137  17.780  0.00  0.00    +0.000 HD
ENDBRANCH  17  19
ENDBRANCH  16  17
BRANCH  16  21
ATOM     21  CB  PHE A   1       5.507   5.433  15.600  0.00  0.00    +0.000 C 
BRANCH  21  22
ATOM     22  CG  PHE A   1       6.080   4.804  14.350  0.00  0.00    +0.000 A 
ATOM     23  CD1 PHE A   1       7.272   5.280  13.782  0.00  0.00    +0.000 A 
ATOM     24  CE1 PHE A   1       7.706   4.801  12.544  0.00  0.00    +0.000 A 
ATOM     25  CZ  PHE A   1       6.964   3.831  11.876  0.00  0.00    +0.000 A 
ATOM     26  CE2 PHE A   1       5.813   3.307  12.461  0.00  0.00    +0.000 A 
ATOM     27  CD2 PHE A   1       5.377   3.785  13.696  0.00  0.00    +0.000 A 
ENDBRANCH  21  22
ENDBRANCH  16  21
ENDBRANCH   3  16
TORSDOF 7
ENDMDL
MODEL 7
REMARK VINA RESULT:      -8.2      1.245      1.514
REMARK  Name = 
REMARK  7 active torsions:
REMARK  status: ('A' for Active; 'I' for Inactive)
REMARK    1  A    between atoms: C_2  and  C_3
REMARK    2  A    between atoms: C_3  and  C_4
REMARK    3  A    between atoms: N_14  and  CA_15
REMARK    4  A    between atoms: CA_15  and  CB_16
REMARK    5  A    between atoms: CA_15  and  C_23
REMARK    6  A    between atoms: CB_16  and  CG_17
REMARK    7  A    between atoms: C_23  and  OXT_25
REMARK                            x       y       z     vdW  Elec       q    Type
REMARK                         _______ _______ _______ _____ _____    ______ ____
ROOT
ATOM      1  O   UNK A   0       4.210   5.262  16.654  0.00  0.00    +0.000 OA
ATOM      2  C   UNK A   0       4.114   6.012  17.620  0.00  0.00    +0.000 C 
ATOM      3  N   PHE A   1       4.667   5.720  18.842  0.00  0.00    +0.000 N 
ATOM      4  H   PHE A   1       4.390   6.288  19.643  0.00  0.00    +0.000 HD
ENDROOT
BRANCH   2   5
ATOM      5  C   UNK A   0       3.467   7.388  17.554  0.00  0.00    +0.000 C 
BRANCH   5   6
ATOM      6  C   UNK A   0       2.452   7.750  18.618  0.00  0.00    +0.000 A 
ATOM      7  C   UNK A   0       2.294   6.884  19.711  0.00  0.00    +0.000 A 
ATOM      8  C   UNK A   0       1.520   7.248  20.819  0.00  0.00    +0.000 A 
ATOM      9  C   UNK A   0       0.886   8.491  20.866  0.00  0.00    +0.000 A 
ATOM     10  C   UNK A   0       0.150   8.889  21.999  0.00  0.00    +0.000 A 
ATOM     11  C   UNK A   0      -0.474  10.131  22.044  0.00  0.00    +0.000 A 
ATOM     12  C   UNK A   0      -0.385  10.990  20.955  0.00  0.00    +0.000 A 
ATOM     13  C   UNK A   0       0.342  10.611  19.821  0.00  0.00    +0.000 A 
ATOM     14  C   UNK A   0       0.997   9.367  19.760  0.00  0.00    +0.000 A 
ATOM     15  C   UNK A   0       1.783   8.983  18.650  0.00  0.00    +0.000 A 
ENDBRANCH   5   6
ENDBRANCH   2   5
BRANCH   3  16
ATOM     16  CA  PHE A   1       5.439   4.515  19.170  0.00  0.00    +0.000 C 
BRANCH  16  17
ATOM     17  C   PHE A   1       6.764   4.659  18.399  0.00  0.00    +0.000 C 
ATOM     18  O   PHE A   1       7.748   5.232  18.859  0.00  0.00    +0.000 OA
BRANCH  17  19
ATOM     19  OXT PHE A   1       6.799   4.066  17.185  0.00  0.00    +0.000 OA
ATOM     20  HXT PHE A   1       7.592   4.249  16.651  0.00  0.00    +0.000 HD
ENDBRANCH  17  19
ENDBRANCH  16  17
BRANCH  16  21
ATOM     21  CB  PHE A   1       4.713   3.187  18.852  0.00  0.00    +0.000 C 
BRANCH  21  22
ATOM     22  CG  PHE A   1       3.299   3.118  19.384  0.00  0.00    +0.000 A 
ATOM     23  CD1 PHE A   1       2.204   2.987  18.516  0.00  0.00    +0.000 A 
ATOM     24  CE1 PHE A   1       0.900   3.086  19.003  0.00  0.00    +0.000 A 
ATOM     25  CZ  PHE A   1       0.679   3.296  20.362  0.00  0.00    +0.000 A 
ATOM     26  CE2 PHE A   1       1.759   3.365  21.241  0.00  0.00    +0.000 A 
ATOM     27  CD2 PHE A   1       3.062   3.268  20.756  0.00  0.00    +0.000 A 
ENDBRANCH  21  22
ENDBRANCH  16  21
ENDBRANCH   3  16
TORSDOF 7
ENDMDL
MODEL 8
REMARK VINA RESULT:      -8.1      1.086      1.956
REMARK  Name = 
REMARK  7 active torsions:
REMARK  status: ('A' for Active; 'I' for Inactive)
REMARK    1  A    between atoms: C_2  and  C_3
REMARK    2  A    between atoms: C_3  and  C_4
REMARK    3  A    between atoms: N_14  and  CA_15
REMARK    4  A    between atoms: CA_15  and  CB_16
REMARK    5  A    between atoms: CA_15  and  C_23
REMARK    6  A    between atoms: CB_16  and  CG_17
REMARK    7  A    between atoms: C_23  and  OXT_25
REMARK                            x       y       z     vdW  Elec       q    Type
REMARK                         _______ _______ _______ _____ _____    ______ ____
ROOT
ATOM      1  O   UNK A   0       5.573   7.451  17.473  0.00  0.00    +0.000 OA
ATOM      2  C   UNK A   0       4.498   6.860  17.453  0.00  0.00    +0.000 C 
ATOM      3  N   PHE A   1       4.360   5.558  17.865  0.00  0.00    +0.000 N 
ATOM      4  H   PHE A   1       3.489   5.073  17.644  0.00  0.00    +0.000 HD
ENDROOT
BRANCH   2   5
ATOM      5  C   UNK A   0       3.183   7.523  17.067  0.00  0.00    +0.000 C 
BRANCH   5   6
ATOM      6  C   UNK A   0       2.479   8.369  18.108  0.00  0.00    +0.000 A 
ATOM      7  C   UNK A   0       2.018   9.640  17.732  0.00  0.00    +0.000 A 
ATOM      8  C   UNK A   0       1.196  10.392  18.579  0.00  0.00    +0.000 A 
ATOM      9  C   UNK A   0       0.809   9.891  19.824  0.00  0.00    +0.000 A 
ATOM     10  C   UNK A   0      -0.060  10.617  20.661  0.00  0.00    +0.000 A 
ATOM     11  C   UNK A   0      -0.449  10.111  21.897  0.00  0.00    +0.000 A 
ATOM     12  C   UNK A   0       0.036   8.881  22.323  0.00  0.00    +0.000 A 
ATOM     13  C   UNK A   0       0.901   8.146  21.505  0.00  0.00    +0.000 A 
ATOM     14  C   UNK A   0       1.293   8.630  20.243  0.00  0.00    +0.000 A 
ATOM     15  C   UNK A   0       2.121   7.884  19.374  0.00  0.00    +0.000 A 
ENDBRANCH   5   6
ENDBRANCH   2   5
BRANCH   3  16
ATOM     16  CA  PHE A   1       5.433   4.704  18.386  0.00  0.00    +0.000 C 
BRANCH  16  17
ATOM     17  C   PHE A   1       6.226   4.246  17.147  0.00  0.00    +0.000 C 
ATOM     18  O   PHE A   1       7.367   4.627  16.903  0.00  0.00    +0.000 OA
BRANCH  17  19
ATOM     19  OXT PHE A   1       5.600   3.345  16.357  0.00  0.00    +0.000 OA
ATOM     20  HXT PHE A   1       5.952   2.438  16.395  0.00  0.00    +0.000 HD
ENDBRANCH  17  19
ENDBRANCH  16  17
BRANCH  16  21
ATOM     21  CB  PHE A   1       4.942   3.515  19.245  0.00  0.00    +0.000 C 
BRANCH  21  22
ATOM     22  CG  PHE A   1       3.443   3.478  19.441  0.00  0.00    +0.000 A 
ATOM     23  CD1 PHE A   1       2.819   4.291  20.400  0.00  0.00    +0.000 A 
ATOM     24  CE1 PHE A   1       1.461   4.134  20.684  0.00  0.00    +0.000 A 
ATOM     25  CZ  PHE A   1       0.713   3.180  19.998  0.00  0.00    +0.000 A 
ATOM     26  CE2 PHE A   1       1.310   2.413  19.000  0.00  0.00    +0.000 A 
ATOM     27  CD2 PHE A   1       2.667   2.566  18.716  0.00  0.00    +0.000 A 
ENDBRANCH  21  22
ENDBRANCH  16  21
ENDBRANCH   3  16
TORSDOF 7
ENDMDL
MODEL 9
REMARK VINA RESULT:      -8.1      0.910      1.950
REMARK  Name = 
REMARK  7 active torsions:
REMARK  status: ('A' for Active; 'I' for Inactive)
REMARK    1  A    between atoms: C_2  and  C_3
REMARK    2  A    between atoms: C_3  and  C_4
REMARK    3  A    between atoms: N_14  and  CA_15
REMARK    4  A    between atoms: CA_15  and  CB_16
REMARK    5  A    between atoms: CA_15  and  C_23
REMARK    6  A    between atoms: CB_16  and  CG_17
REMARK    7  A    between atoms: C_23  and  OXT_25
REMARK                            x       y       z     vdW  Elec       q    Type
REMARK                         _______ _______ _______ _____ _____    ______ ____
ROOT
ATOM      1  O   UNK A   0       3.323   6.490  19.539  0.00  0.00    +0.000 OA
ATOM      2  C   UNK A   0       3.117   6.721  18.352  0.00  0.00    +0.000 C 
ATOM      3  N   PHE A   1       3.586   5.911  17.347  0.00  0.00    +0.000 N 
ATOM      4  H   PHE A   1       3.544   6.260  16.389  0.00  0.00    +0.000 HD
ENDROOT
BRANCH   2   5
ATOM      5  C   UNK A   0       2.242   7.865  17.858  0.00  0.00    +0.000 C 
BRANCH   5   6
ATOM      6  C   UNK A   0       1.711   8.848  18.880  0.00  0.00    +0.000 A 
ATOM      7  C   UNK A   0       1.438  10.160  18.463  0.00  0.00    +0.000 A 
ATOM      8  C   UNK A   0       0.769  11.062  19.299  0.00  0.00    +0.000 A 
ATOM      9  C   UNK A   0       0.351  10.675  20.574  0.00  0.00    +0.000 A 
ATOM     10  C   UNK A   0      -0.369  11.557  21.402  0.00  0.00    +0.000 A 
ATOM     11  C   UNK A   0      -0.790  11.165  22.668  0.00  0.00    +0.000 A 
ATOM     12  C   UNK A   0      -0.486   9.891  23.133  0.00  0.00    +0.000 A 
ATOM     13  C   UNK A   0       0.229   9.002  22.324  0.00  0.00    +0.000 A 
ATOM     14  C   UNK A   0       0.649   9.370  21.033  0.00  0.00    +0.000 A 
ATOM     15  C   UNK A   0       1.324   8.473  20.175  0.00  0.00    +0.000 A 
ENDBRANCH   5   6
ENDBRANCH   2   5
BRANCH   3  16
ATOM     16  CA  PHE A   1       4.367   4.682  17.529  0.00  0.00    +0.000 C 
BRANCH  16  17
ATOM     17  C   PHE A   1       5.331   4.632  16.328  0.00  0.00    +0.000 C 
ATOM     18  O   PHE A   1       5.357   5.495  15.455  0.00  0.00    +0.000 OA
BRANCH  17  19
ATOM     19  OXT PHE A   1       6.194   3.593  16.317  0.00  0.00    +0.000 OA
ATOM     20  HXT PHE A   1       5.880   2.792  15.861  0.00  0.00    +0.000 HD
ENDBRANCH  17  19
ENDBRANCH  16  17
BRANCH  16  21
ATOM     21  CB  PHE A   1       3.515   3.398  17.655  0.00  0.00    +0.000 C 
BRANCH  21  22
ATOM     22  CG  PHE A   1       2.769   3.284  18.966  0.00  0.00    +0.000 A 
ATOM     23  CD1 PHE A   1       3.434   2.927  20.149  0.00  0.00    +0.000 A 
ATOM     24  CE1 PHE A   1       2.712   2.668  21.315  0.00  0.00    +0.000 A 
ATOM     25  CZ  PHE A   1       1.325   2.785  21.314  0.00  0.00    +0.000 A 
ATOM     26  CE2 PHE A   1       0.661   3.201  20.161  0.00  0.00    +0.000 A 
ATOM     27  CD2 PHE A   1       1.380   3.457  18.994  0.00  0.00    +0.000 A 
ENDBRANCH  21  22
ENDBRANCH  16  21
ENDBRANCH   3  16
TORSDOF 7
ENDMDL
