MODEL 1
REMARK VINA RESULT:      -6.4      0.000      0.000
REMARK  Name = 
REMARK  13 active torsions:
REMARK  status: ('A' for Active; 'I' for Inactive)
REMARK    1  A    between atoms: C_1  and  C_2
REMARK    2  A    between atoms: C_2  and  C_3
REMARK    3  A    between atoms: C_2  and  C_4
REMARK    4  A    between atoms: C_4  and  C_5
REMARK    5  A    between atoms: C_5  and  C_6
REMARK    6  A    between atoms: C_5  and  N_11
REMARK    7  A    between atoms: C_6  and  S_7
REMARK    8  A    between atoms: S_7  and  C_9
REMARK    9  A    between atoms: C_12  and  O_14
REMARK   10  A    between atoms: O_14  and  C_15
REMARK   11  A    between atoms: C_15  and  C_16
REMARK   12  A    between atoms: C_15  and  C_17
REMARK   13  A    between atoms: C_15  and  C_18
REMARK                            x       y       z     vdW  Elec       q    Type
REMARK                         _______ _______ _______ _____ _____    ______ ____
ROOT
ATOM      1  C   UNL     1       4.966   4.765  16.866  0.00  0.00    +0.000 C 
ENDROOT
BRANCH   1   2
ATOM      2  N   UNL     1       4.497   3.902  17.951  0.00  0.00    +0.000 N 
ATOM      3  C   UNL     1       3.232   3.399  17.962  0.00  0.00    +0.000 C 
ATOM      4  O   UNL     1       2.430   3.570  17.048  0.00  0.00    +0.000 OA
ATOM      5  H   UNL     1       5.071   3.770  18.781  0.00  0.00    +0.000 HD
BRANCH   3   6
ATOM      6  O   UNL     1       2.994   2.690  19.094  0.00  0.00    +0.000 OA
BRANCH   6   7
ATOM      7  C   UNL     1       2.216   3.305  20.159  0.00  0.00    +0.000 C 
ATOM      8  C   UNL     1       2.425   4.827  20.189  0.00  0.00    +0.000 C 
ATOM      9  C   UNL     1       0.740   3.037  19.818  0.00  0.00    +0.000 C 
ATOM     10  C   UNL     1       2.511   2.657  21.519  0.00  0.00    +0.000 C 
ENDBRANCH   6   7
ENDBRANCH   3   6
ENDBRANCH   1   2
BRANCH   1  11
ATOM     11  C   UNL     1       5.506   6.097  17.435  0.00  0.00    +0.000 C 
BRANCH  11  13
ATOM     12  C   UNL     1       7.635   7.533  17.525  0.00  0.00    +0.000 C 
ATOM     13  C   UNL     1       7.019   6.148  17.741  0.00  0.00    +0.000 C 
ATOM     14  C   UNL     1       7.280   5.707  19.187  0.00  0.00    +0.000 C 
ENDBRANCH  11  13
ENDBRANCH   1  11
BRANCH   1  15
ATOM     15  C   UNL     1       5.882   4.011  15.891  0.00  0.00    +0.000 C 
BRANCH  15  16
ATOM     16  S   UNL     1       6.258   4.923  14.362  0.00  0.00    +0.000 S 
ATOM     17  O   UNL     1       7.750   5.413  14.452  0.00  0.00    +0.000 OA
BRANCH  16  18
ATOM     18  C   UNL     1       6.220   3.478  13.254  0.00  0.00    +0.000 C 
ATOM     19 CL   UNL     1       4.879   3.519  12.093  0.00  0.00    +0.000 Cl
ENDBRANCH  16  18
ENDBRANCH  15  16
ENDBRANCH   1  15
TORSDOF 8
ENDMDL
MODEL 2
REMARK VINA RESULT:      -6.3      1.376      1.615
REMARK  Name = 
REMARK  13 active torsions:
REMARK  status: ('A' for Active; 'I' for Inactive)
REMARK    1  A    between atoms: C_1  and  C_2
REMARK    2  A    between atoms: C_2  and  C_3
REMARK    3  A    between atoms: C_2  and  C_4
REMARK    4  A    between atoms: C_4  and  C_5
REMARK    5  A    between atoms: C_5  and  C_6
REMARK    6  A    between atoms: C_5  and  N_11
REMARK    7  A    between atoms: C_6  and  S_7
REMARK    8  A    between atoms: S_7  and  C_9
REMARK    9  A    between atoms: C_12  and  O_14
REMARK   10  A    between atoms: O_14  and  C_15
REMARK   11  A    between atoms: C_15  and  C_16
REMARK   12  A    between atoms: C_15  and  C_17
REMARK   13  A    between atoms: C_15  and  C_18
REMARK                            x       y       z     vdW  Elec       q    Type
REMARK                         _______ _______ _______ _____ _____    ______ ____
ROOT
ATOM      1  C   UNL     1       6.030   4.390  17.152  0.00  0.00    +0.000 C 
ENDROOT
BRANCH   1   2
ATOM      2  N   UNL     1       5.123   3.789  18.132  0.00  0.00    +0.000 N 
ATOM      3  C   UNL     1       4.284   4.552  18.884  0.00  0.00    +0.000 C 
ATOM      4  O   UNL     1       4.175   5.767  18.751  0.00  0.00    +0.000 OA
ATOM      5  H   UNL     1       5.200   2.799  18.357  0.00  0.00    +0.000 HD
BRANCH   3   6
ATOM      6  O   UNL     1       3.592   3.794  19.772  0.00  0.00    +0.000 OA
BRANCH   6   7
ATOM      7  C   UNL     1       2.138   3.851  19.764  0.00  0.00    +0.000 C 
ATOM      8  C   UNL     1       1.592   3.832  18.328  0.00  0.00    +0.000 C 
ATOM      9  C   UNL     1       1.656   2.574  20.471  0.00  0.00    +0.000 C 
ATOM     10  C   UNL     1       1.617   5.056  20.561  0.00  0.00    +0.000 C 
ENDBRANCH   6   7
ENDBRANCH   3   6
ENDBRANCH   1   2
BRANCH   1  11
ATOM     11  C   UNL     1       7.465   4.459  17.721  0.00  0.00    +0.000 C 
BRANCH  11  13
ATOM     12  C   UNL     1       7.208   7.012  17.597  0.00  0.00    +0.000 C 
ATOM     13  C   UNL     1       7.922   5.832  18.262  0.00  0.00    +0.000 C 
ATOM     14  C   UNL     1       7.696   5.904  19.778  0.00  0.00    +0.000 C 
ENDBRANCH  11  13
ENDBRANCH   1  11
BRANCH   1  15
ATOM     15  C   UNL     1       5.869   3.757  15.763  0.00  0.00    +0.000 C 
BRANCH  15  16
ATOM     16  S   UNL     1       6.142   4.910  14.381  0.00  0.00    +0.000 S 
ATOM     17  O   UNL     1       7.647   5.368  14.430  0.00  0.00    +0.000 OA
BRANCH  16  18
ATOM     18  C   UNL     1       5.988   3.672  13.054  0.00  0.00    +0.000 C 
ATOM     19 CL   UNL     1       7.150   3.907  11.735  0.00  0.00    +0.000 Cl
ENDBRANCH  16  18
ENDBRANCH  15  16
ENDBRANCH   1  15
TORSDOF 8
ENDMDL
MODEL 3
REMARK VINA RESULT:      -6.2      1.138      1.651
REMARK  Name = 
REMARK  13 active torsions:
REMARK  status: ('A' for Active; 'I' for Inactive)
REMARK    1  A    between atoms: C_1  and  C_2
REMARK    2  A    between atoms: C_2  and  C_3
REMARK    3  A    between atoms: C_2  and  C_4
REMARK    4  A    between atoms: C_4  and  C_5
REMARK    5  A    between atoms: C_5  and  C_6
REMARK    6  A    between atoms: C_5  and  N_11
REMARK    7  A    between atoms: C_6  and  S_7
REMARK    8  A    between atoms: S_7  and  C_9
REMARK    9  A    between atoms: C_12  and  O_14
REMARK   10  A    between atoms: O_14  and  C_15
REMARK   11  A    between atoms: C_15  and  C_16
REMARK   12  A    between atoms: C_15  and  C_17
REMARK   13  A    between atoms: C_15  and  C_18
REMARK                            x       y       z     vdW  Elec       q    Type
REMARK                         _______ _______ _______ _____ _____    ______ ____
ROOT
ATOM      1  C   UNL     1       5.886   4.438  17.033  0.00  0.00    +0.000 C 
ENDROOT
BRANCH   1   2
ATOM      2  N   UNL     1       5.037   3.758  18.013  0.00  0.00    +0.000 N 
ATOM      3  C   UNL     1       4.115   4.438  18.747  0.00  0.00    +0.000 C 
ATOM      4  O   UNL     1       3.881   5.634  18.596  0.00  0.00    +0.000 OA
ATOM      5  H   UNL     1       5.215   2.785  18.251  0.00  0.00    +0.000 HD
BRANCH   3   6
ATOM      6  O   UNL     1       3.498   3.623  19.640  0.00  0.00    +0.000 OA
BRANCH   6   7
ATOM      7  C   UNL     1       2.047   3.666  19.744  0.00  0.00    +0.000 C 
ATOM      8  C   UNL     1       1.387   3.489  18.369  0.00  0.00    +0.000 C 
ATOM      9  C   UNL     1       1.647   2.467  20.620  0.00  0.00    +0.000 C 
ATOM     10  C   UNL     1       1.570   4.944  20.450  0.00  0.00    +0.000 C 
ENDBRANCH   6   7
ENDBRANCH   3   6
ENDBRANCH   1   2
BRANCH   1  11
ATOM     11  C   UNL     1       7.266   4.761  17.649  0.00  0.00    +0.000 C 
BRANCH  11  13
ATOM     12  C   UNL     1       8.193   5.672  19.865  0.00  0.00    +0.000 C 
ATOM     13  C   UNL     1       7.314   5.944  18.641  0.00  0.00    +0.000 C 
ATOM     14  C   UNL     1       7.822   7.206  17.934  0.00  0.00    +0.000 C 
ENDBRANCH  11  13
ENDBRANCH   1  11
BRANCH   1  15
ATOM     15  C   UNL     1       5.888   3.714  15.679  0.00  0.00    +0.000 C 
BRANCH  15  16
ATOM     16  S   UNL     1       6.171   4.804  14.249  0.00  0.00    +0.000 S 
ATOM     17  O   UNL     1       7.631   5.379  14.367  0.00  0.00    +0.000 OA
BRANCH  16  18
ATOM     18  C   UNL     1       6.199   3.484  12.995  0.00  0.00    +0.000 C 
ATOM     19 CL   UNL     1       4.756   3.466  11.963  0.00  0.00    +0.000 Cl
ENDBRANCH  16  18
ENDBRANCH  15  16
ENDBRANCH   1  15
TORSDOF 8
ENDMDL
MODEL 4
REMARK VINA RESULT:      -6.2      0.873      1.591
REMARK  Name = 
REMARK  13 active torsions:
REMARK  status: ('A' for Active; 'I' for Inactive)
REMARK    1  A    between atoms: C_1  and  C_2
REMARK    2  A    between atoms: C_2  and  C_3
REMARK    3  A    between atoms: C_2  and  C_4
REMARK    4  A    between atoms: C_4  and  C_5
REMARK    5  A    between atoms: C_5  and  C_6
REMARK    6  A    between atoms: C_5  and  N_11
REMARK    7  A    between atoms: C_6  and  S_7
REMARK    8  A    between atoms: S_7  and  C_9
REMARK    9  A    between atoms: C_12  and  O_14
REMARK   10  A    between atoms: O_14  and  C_15
REMARK   11  A    between atoms: C_15  and  C_16
REMARK   12  A    between atoms: C_15  and  C_17
REMARK   13  A    between atoms: C_15  and  C_18
REMARK                            x       y       z     vdW  Elec       q    Type
REMARK                         _______ _______ _______ _____ _____    ______ ____
ROOT
ATOM      1  C   UNL     1       5.834   4.295  17.193  0.00  0.00    +0.000 C 
ENDROOT
BRANCH   1   2
ATOM      2  N   UNL     1       5.028   3.496  18.118  0.00  0.00    +0.000 N 
ATOM      3  C   UNL     1       3.672   3.597  18.147  0.00  0.00    +0.000 C 
ATOM      4  O   UNL     1       3.030   4.298  17.369  0.00  0.00    +0.000 OA
ATOM      5  H   UNL     1       5.483   2.947  18.844  0.00  0.00    +0.000 HD
BRANCH   3   6
ATOM      6  O   UNL     1       3.142   2.823  19.128  0.00  0.00    +0.000 OA
BRANCH   6   7
ATOM      7  C   UNL     1       2.313   3.449  20.147  0.00  0.00    +0.000 C 
ATOM      8  C   UNL     1       0.820   3.271  19.835  0.00  0.00    +0.000 C 
ATOM      9  C   UNL     1       2.615   2.705  21.459  0.00  0.00    +0.000 C 
ATOM     10  C   UNL     1       2.686   4.926  20.348  0.00  0.00    +0.000 C 
ENDBRANCH   6   7
ENDBRANCH   3   6
ENDBRANCH   1   2
BRANCH   1  11
ATOM     11  C   UNL     1       7.201   4.637  17.828  0.00  0.00    +0.000 C 
BRANCH  11  13
ATOM     12  C   UNL     1       8.209   5.806  19.881  0.00  0.00    +0.000 C 
ATOM     13  C   UNL     1       7.256   5.918  18.688  0.00  0.00    +0.000 C 
ATOM     14  C   UNL     1       7.675   7.116  17.827  0.00  0.00    +0.000 C 
ENDBRANCH  11  13
ENDBRANCH   1  11
BRANCH   1  15
ATOM     15  C   UNL     1       5.862   3.683  15.785  0.00  0.00    +0.000 C 
BRANCH  15  16
ATOM     16  S   UNL     1       6.227   4.875  14.459  0.00  0.00    +0.000 S 
ATOM     17  O   UNL     1       7.752   5.247  14.556  0.00  0.00    +0.000 OA
BRANCH  16  18
ATOM     18  C   UNL     1       6.034   3.702  13.078  0.00  0.00    +0.000 C 
ATOM     19 CL   UNL     1       7.105   4.049  11.708  0.00  0.00    +0.000 Cl
ENDBRANCH  16  18
ENDBRANCH  15  16
ENDBRANCH   1  15
TORSDOF 8
ENDMDL
MODEL 5
REMARK VINA RESULT:      -6.1      2.483      3.572
REMARK  Name = 
REMARK  13 active torsions:
REMARK  status: ('A' for Active; 'I' for Inactive)
REMARK    1  A    between atoms: C_1  and  C_2
REMARK    2  A    between atoms: C_2  and  C_3
REMARK    3  A    between atoms: C_2  and  C_4
REMARK    4  A    between atoms: C_4  and  C_5
REMARK    5  A    between atoms: C_5  and  C_6
REMARK    6  A    between atoms: C_5  and  N_11
REMARK    7  A    between atoms: C_6  and  S_7
REMARK    8  A    between atoms: S_7  and  C_9
REMARK    9  A    between atoms: C_12  and  O_14
REMARK   10  A    between atoms: O_14  and  C_15
REMARK   11  A    between atoms: C_15  and  C_16
REMARK   12  A    between atoms: C_15  and  C_17
REMARK   13  A    between atoms: C_15  and  C_18
REMARK                            x       y       z     vdW  Elec       q    Type
REMARK                         _______ _______ _______ _____ _____    ______ ____
ROOT
ATOM      1  C   UNL     1       5.221   4.492  17.599  0.00  0.00    +0.000 C 
ENDROOT
BRANCH   1   2
ATOM      2  N   UNL     1       4.018   3.880  18.168  0.00  0.00    +0.000 N 
ATOM      3  C   UNL     1       4.089   3.022  19.222  0.00  0.00    +0.000 C 
ATOM      4  O   UNL     1       5.136   2.757  19.807  0.00  0.00    +0.000 OA
ATOM      5  H   UNL     1       3.121   3.989  17.700  0.00  0.00    +0.000 HD
BRANCH   3   6
ATOM      6  O   UNL     1       2.867   2.523  19.534  0.00  0.00    +0.000 OA
BRANCH   6   7
ATOM      7  C   UNL     1       1.989   3.299  20.397  0.00  0.00    +0.000 C 
ATOM      8  C   UNL     1       2.551   4.709  20.633  0.00  0.00    +0.000 C 
ATOM      9  C   UNL     1       0.659   3.440  19.638  0.00  0.00    +0.000 C 
ATOM     10  C   UNL     1       1.704   2.567  21.716  0.00  0.00    +0.000 C 
ENDBRANCH   6   7
ENDBRANCH   3   6
ENDBRANCH   1   2
BRANCH   1  11
ATOM     11  C   UNL     1       5.031   4.742  16.086  0.00  0.00    +0.000 C 
BRANCH  11  13
ATOM     12  C   UNL     1       5.509   3.773  13.756  0.00  0.00    +0.000 C 
ATOM     13  C   UNL     1       6.066   4.084  15.148  0.00  0.00    +0.000 C 
ATOM     14  C   UNL     1       7.297   4.988  15.001  0.00  0.00    +0.000 C 
ENDBRANCH  11  13
ENDBRANCH   1  11
BRANCH   1  15
ATOM     15  C   UNL     1       5.707   5.682  18.438  0.00  0.00    +0.000 C 
BRANCH  15  16
ATOM     16  S   UNL     1       7.386   5.483  19.113  0.00  0.00    +0.000 S 
ATOM     17  O   UNL     1       8.098   4.341  18.297  0.00  0.00    +0.000 OA
BRANCH  16  18
ATOM     18  C   UNL     1       8.033   7.075  18.509  0.00  0.00    +0.000 C 
ATOM     19 CL   UNL     1       7.051   7.787  17.215  0.00  0.00    +0.000 Cl
ENDBRANCH  16  18
ENDBRANCH  15  16
ENDBRANCH   1  15
TORSDOF 8
ENDMDL
MODEL 6
REMARK VINA RESULT:      -6.0      2.671      3.999
REMARK  Name = 
REMARK  13 active torsions:
REMARK  status: ('A' for Active; 'I' for Inactive)
REMARK    1  A    between atoms: C_1  and  C_2
REMARK    2  A    between atoms: C_2  and  C_3
REMARK    3  A    between atoms: C_2  and  C_4
REMARK    4  A    between atoms: C_4  and  C_5
REMARK    5  A    between atoms: C_5  and  C_6
REMARK    6  A    between atoms: C_5  and  N_11
REMARK    7  A    between atoms: C_6  and  S_7
REMARK    8  A    between atoms: S_7  and  C_9
REMARK    9  A    between atoms: C_12  and  O_14
REMARK   10  A    between atoms: O_14  and  C_15
REMARK   11  A    between atoms: C_15  and  C_16
REMARK   12  A    between atoms: C_15  and  C_17
REMARK   13  A    between atoms: C_15  and  C_18
REMARK                            x       y       z     vdW  Elec       q    Type
REMARK                         _______ _______ _______ _____ _____    ______ ____
ROOT
ATOM      1  C   UNL     1       5.481   4.088  16.310  0.00  0.00    +0.000 C 
ENDROOT
BRANCH   1   2
ATOM      2  N   UNL     1       4.241   4.375  17.035  0.00  0.00    +0.000 N 
ATOM      3  C   UNL     1       3.481   3.378  17.564  0.00  0.00    +0.000 C 
ATOM      4  O   UNL     1       3.806   2.194  17.534  0.00  0.00    +0.000 OA
ATOM      5  H   UNL     1       3.863   5.320  17.042  0.00  0.00    +0.000 HD
BRANCH   3   6
ATOM      6  O   UNL     1       2.347   3.868  18.124  0.00  0.00    +0.000 OA
BRANCH   6   7
ATOM      7  C   UNL     1       2.309   4.082  19.563  0.00  0.00    +0.000 C 
ATOM      8  C   UNL     1       0.915   3.780  20.132  0.00  0.00    +0.000 C 
ATOM      9  C   UNL     1       3.298   3.072  20.170  0.00  0.00    +0.000 C 
ATOM     10  C   UNL     1       2.788   5.492  19.935  0.00  0.00    +0.000 C 
ENDBRANCH   6   7
ENDBRANCH   3   6
ENDBRANCH   1   2
BRANCH   1  11
ATOM     11  C   UNL     1       5.355   4.533  14.835  0.00  0.00    +0.000 C 
BRANCH  11  13
ATOM     12  C   UNL     1       5.760   3.411  12.559  0.00  0.00    +0.000 C 
ATOM     13  C   UNL     1       6.389   3.941  13.851  0.00  0.00    +0.000 C 
ATOM     14  C   UNL     1       7.444   4.996  13.495  0.00  0.00    +0.000 C 
ENDBRANCH  11  13
ENDBRANCH   1  11
BRANCH   1  15
ATOM     15  C   UNL     1       6.717   4.582  17.075  0.00  0.00    +0.000 C 
BRANCH  15  16
ATOM     16  S   UNL     1       6.337   5.640  18.506  0.00  0.00    +0.000 S 
ATOM     17  O   UNL     1       6.389   4.740  19.795  0.00  0.00    +0.000 OA
BRANCH  16  18
ATOM     18  C   UNL     1       7.877   6.611  18.451  0.00  0.00    +0.000 C 
ATOM     19 CL   UNL     1       7.724   8.119  17.530  0.00  0.00    +0.000 Cl
ENDBRANCH  16  18
ENDBRANCH  15  16
ENDBRANCH   1  15
TORSDOF 8
ENDMDL
MODEL 7
REMARK VINA RESULT:      -6.0      3.607      5.888
REMARK  Name = 
REMARK  13 active torsions:
REMARK  status: ('A' for Active; 'I' for Inactive)
REMARK    1  A    between atoms: C_1  and  C_2
REMARK    2  A    between atoms: C_2  and  C_3
REMARK    3  A    between atoms: C_2  and  C_4
REMARK    4  A    between atoms: C_4  and  C_5
REMARK    5  A    between atoms: C_5  and  C_6
REMARK    6  A    between atoms: C_5  and  N_11
REMARK    7  A    between atoms: C_6  and  S_7
REMARK    8  A    between atoms: S_7  and  C_9
REMARK    9  A    between atoms: C_12  and  O_14
REMARK   10  A    between atoms: O_14  and  C_15
REMARK   11  A    between atoms: C_15  and  C_16
REMARK   12  A    between atoms: C_15  and  C_17
REMARK   13  A    between atoms: C_15  and  C_18
REMARK                            x       y       z     vdW  Elec       q    Type
REMARK                         _______ _______ _______ _____ _____    ______ ____
ROOT
ATOM      1  C   UNL     1       2.446   4.786  18.323  0.00  0.00    +0.000 C 
ENDROOT
BRANCH   1   2
ATOM      2  N   UNL     1       3.663   4.496  17.563  0.00  0.00    +0.000 N 
ATOM      3  C   UNL     1       4.898   4.758  18.072  0.00  0.00    +0.000 C 
ATOM      4  O   UNL     1       5.082   5.182  19.210  0.00  0.00    +0.000 OA
ATOM      5  H   UNL     1       3.598   4.213  16.588  0.00  0.00    +0.000 HD
BRANCH   3   6
ATOM      6  O   UNL     1       5.872   4.479  17.169  0.00  0.00    +0.000 OA
BRANCH   6   7
ATOM      7  C   UNL     1       6.397   5.559  16.347  0.00  0.00    +0.000 C 
ATOM      8  C   UNL     1       7.346   6.458  17.153  0.00  0.00    +0.000 C 
ATOM      9  C   UNL     1       7.215   4.886  15.232  0.00  0.00    +0.000 C 
ATOM     10  C   UNL     1       5.268   6.362  15.684  0.00  0.00    +0.000 C 
ENDBRANCH   6   7
ENDBRANCH   3   6
ENDBRANCH   1   2
BRANCH   1  11
ATOM     11  C   UNL     1       1.861   6.153  17.900  0.00  0.00    +0.000 C 
BRANCH  11  13
ATOM     12  C   UNL     1       2.002   8.717  17.974  0.00  0.00    +0.000 C 
ATOM     13  C   UNL     1       2.440   7.395  18.612  0.00  0.00    +0.000 C 
ATOM     14  C   UNL     1       2.030   7.396  20.090  0.00  0.00    +0.000 C 
ENDBRANCH  11  13
ENDBRANCH   1  11
BRANCH   1  15
ATOM     15  C   UNL     1       1.478   3.594  18.328  0.00  0.00    +0.000 C 
BRANCH  15  16
ATOM     16  S   UNL     1       2.193   2.053  18.979  0.00  0.00    +0.000 S 
ATOM     17  O   UNL     1       3.382   1.640  18.034  0.00  0.00    +0.000 OA
BRANCH  16  18
ATOM     18  C   UNL     1       2.915   2.787  20.482  0.00  0.00    +0.000 C 
ATOM     19 CL   UNL     1       1.704   3.219  21.703  0.00  0.00    +0.000 Cl
ENDBRANCH  16  18
ENDBRANCH  15  16
ENDBRANCH   1  15
TORSDOF 8
ENDMDL
MODEL 8
REMARK VINA RESULT:      -6.0      1.105      1.416
REMARK  Name = 
REMARK  13 active torsions:
REMARK  status: ('A' for Active; 'I' for Inactive)
REMARK    1  A    between atoms: C_1  and  C_2
REMARK    2  A    between atoms: C_2  and  C_3
REMARK    3  A    between atoms: C_2  and  C_4
REMARK    4  A    between atoms: C_4  and  C_5
REMARK    5  A    between atoms: C_5  and  C_6
REMARK    6  A    between atoms: C_5  and  N_11
REMARK    7  A    between atoms: C_6  and  S_7
REMARK    8  A    between atoms: S_7  and  C_9
REMARK    9  A    between atoms: C_12  and  O_14
REMARK   10  A    between atoms: O_14  and  C_15
REMARK   11  A    between atoms: C_15  and  C_16
REMARK   12  A    between atoms: C_15  and  C_17
REMARK   13  A    between atoms: C_15  and  C_18
REMARK                            x       y       z     vdW  Elec       q    Type
REMARK                         _______ _______ _______ _____ _____    ______ ____
ROOT
ATOM      1  C   UNL     1       5.546   4.426  16.649  0.00  0.00    +0.000 C 
ENDROOT
BRANCH   1   2
ATOM      2  N   UNL     1       4.244   3.911  17.077  0.00  0.00    +0.000 N 
ATOM      3  C   UNL     1       3.280   4.737  17.569  0.00  0.00    +0.000 C 
ATOM      4  O   UNL     1       3.401   5.957  17.623  0.00  0.00    +0.000 OA
ATOM      5  H   UNL     1       4.088   2.907  17.134  0.00  0.00    +0.000 HD
BRANCH   3   6
ATOM      6  O   UNL     1       2.189   4.036  17.970  0.00  0.00    +0.000 OA
BRANCH   6   7
ATOM      7  C   UNL     1       2.163   3.486  19.317  0.00  0.00    +0.000 C 
ATOM      8  C   UNL     1       0.733   3.457  19.876  0.00  0.00    +0.000 C 
ATOM      9  C   UNL     1       2.654   2.034  19.195  0.00  0.00    +0.000 C 
ATOM     10  C   UNL     1       3.129   4.233  20.249  0.00  0.00    +0.000 C 
ENDBRANCH   6   7
ENDBRANCH   3   6
ENDBRANCH   1   2
BRANCH   1  11
ATOM     11  C   UNL     1       6.535   4.440  17.837  0.00  0.00    +0.000 C 
BRANCH  11  13
ATOM     12  C   UNL     1       6.910   6.934  17.350  0.00  0.00    +0.000 C 
ATOM     13  C   UNL     1       7.508   5.638  17.904  0.00  0.00    +0.000 C 
ATOM     14  C   UNL     1       7.956   5.875  19.351  0.00  0.00    +0.000 C 
ENDBRANCH  11  13
ENDBRANCH   1  11
BRANCH   1  15
ATOM     15  C   UNL     1       6.030   3.753  15.357  0.00  0.00    +0.000 C 
BRANCH  15  16
ATOM     16  S   UNL     1       6.478   4.915  14.031  0.00  0.00    +0.000 S 
ATOM     17  O   UNL     1       7.954   5.394  14.292  0.00  0.00    +0.000 OA
BRANCH  16  18
ATOM     18  C   UNL     1       6.528   3.681  12.692  0.00  0.00    +0.000 C 
ATOM     19 CL   UNL     1       4.931   3.322  12.008  0.00  0.00    +0.000 Cl
ENDBRANCH  16  18
ENDBRANCH  15  16
ENDBRANCH   1  15
TORSDOF 8
ENDMDL
MODEL 9
REMARK VINA RESULT:      -5.8      1.773      2.151
REMARK  Name = 
REMARK  13 active torsions:
REMARK  status: ('A' for Active; 'I' for Inactive)
REMARK    1  A    between atoms: C_1  and  C_2
REMARK    2  A    between atoms: C_2  and  C_3
REMARK    3  A    between atoms: C_2  and  C_4
REMARK    4  A    between atoms: C_4  and  C_5
REMARK    5  A    between atoms: C_5  and  C_6
REMARK    6  A    between atoms: C_5  and  N_11
REMARK    7  A    between atoms: C_6  and  S_7
REMARK    8  A    between atoms: S_7  and  C_9
REMARK    9  A    between atoms: C_12  and  O_14
REMARK   10  A    between atoms: O_14  and  C_15
REMARK   11  A    between atoms: C_15  and  C_16
REMARK   12  A    between atoms: C_15  and  C_17
REMARK   13  A    between atoms: C_15  and  C_18
REMARK                            x       y       z     vdW  Elec       q    Type
REMARK                         _______ _______ _______ _____ _____    ______ ____
ROOT
ATOM      1  C   UNL     1       5.561   5.052  17.071  0.00  0.00    +0.000 C 
ENDROOT
BRANCH   1   2
ATOM      2  N   UNL     1       4.616   4.163  17.749  0.00  0.00    +0.000 N 
ATOM      3  C   UNL     1       3.979   4.542  18.891  0.00  0.00    +0.000 C 
ATOM      4  O   UNL     1       4.093   5.659  19.388  0.00  0.00    +0.000 OA
ATOM      5  H   UNL     1       4.519   3.197  17.446  0.00  0.00    +0.000 HD
BRANCH   3   6
ATOM      6  O   UNL     1       3.211   3.537  19.382  0.00  0.00    +0.000 OA
BRANCH   6   7
ATOM      7  C   UNL     1       1.794   3.510  19.051  0.00  0.00    +0.000 C 
ATOM      8  C   UNL     1       1.294   2.068  18.872  0.00  0.00    +0.000 C 
ATOM      9  C   UNL     1       1.061   4.119  20.258  0.00  0.00    +0.000 C 
ATOM     10  C   UNL     1       1.485   4.381  17.824  0.00  0.00    +0.000 C 
ENDBRANCH   6   7
ENDBRANCH   3   6
ENDBRANCH   1   2
BRANCH   1  11
ATOM     11  C   UNL     1       7.014   4.676  17.443  0.00  0.00    +0.000 C 
BRANCH  11  13
ATOM     12  C   UNL     1       7.522   7.182  17.696  0.00  0.00    +0.000 C 
ATOM     13  C   UNL     1       7.836   5.761  18.173  0.00  0.00    +0.000 C 
ATOM     14  C   UNL     1       7.594   5.679  19.686  0.00  0.00    +0.000 C 
ENDBRANCH  11  13
ENDBRANCH   1  11
BRANCH   1  15
ATOM     15  C   UNL     1       5.246   5.186  15.574  0.00  0.00    +0.000 C 
BRANCH  15  16
ATOM     16  S   UNL     1       6.168   4.032  14.511  0.00  0.00    +0.000 S 
ATOM     17  O   UNL     1       5.280   3.732  13.247  0.00  0.00    +0.000 OA
BRANCH  16  18
ATOM     18  C   UNL     1       7.460   5.213  14.008  0.00  0.00    +0.000 C 
ATOM     19 CL   UNL     1       7.765   5.217  12.260  0.00  0.00    +0.000 Cl
ENDBRANCH  16  18
ENDBRANCH  15  16
ENDBRANCH   1  15
TORSDOF 8
ENDMDL
