MODEL 1
REMARK VINA RESULT:      -6.8      0.000      0.000
REMARK  Name = 
REMARK  7 active torsions:
REMARK  status: ('A' for Active; 'I' for Inactive)
REMARK    1  A    between atoms: C_1  and  O_2
REMARK    2  A    between atoms: O_2  and  C_3
REMARK    3  A    between atoms: C_3  and  C_5
REMARK    4  A    between atoms: C_5  and  C_6
REMARK    5  A    between atoms: C_8  and  O_9
REMARK    6  A    between atoms: C_10  and  C_11
REMARK    7  A    between atoms: C_12  and  C_13
REMARK                            x       y       z     vdW  Elec       q    Type
REMARK                         _______ _______ _______ _____ _____    ______ ____
ROOT
ATOM      1  C   UNL     1       5.720   5.518  16.622  0.00  0.00    +0.000 C 
ATOM      2  C   UNL     1       5.630   4.095  17.184  0.00  0.00    +0.000 C 
ATOM      3  C   UNL     1       4.174   3.617  17.180  0.00  0.00    +0.000 C 
ATOM      4  C   UNL     1       3.257   4.583  17.949  0.00  0.00    +0.000 C 
ATOM      5  C   UNL     1       1.785   4.160  17.804  0.00  0.00    +0.000 C 
ATOM      6  C   UNL     1       3.472   6.036  17.458  0.00  0.00    +0.000 C 
ATOM      7  N   UNL     1       4.892   6.412  17.442  0.00  0.00    +0.000 NA
ATOM      8  H   UNL     1       5.242   6.427  18.400  0.00  0.00    +0.000 HD
ENDROOT
BRANCH   6   9
ATOM      9  C   UNL     1       2.718   7.049  18.310  0.00  0.00    +0.000 A 
ATOM     10  C   UNL     1       2.446   6.805  19.669  0.00  0.00    +0.000 A 
ATOM     11  C   UNL     1       1.761   7.745  20.438  0.00  0.00    +0.000 A 
ATOM     12  C   UNL     1       1.335   8.938  19.862  0.00  0.00    +0.000 A 
ATOM     13  C   UNL     1       1.598   9.195  18.518  0.00  0.00    +0.000 A 
ATOM     14  C   UNL     1       2.289   8.259  17.745  0.00  0.00    +0.000 A 
ENDBRANCH   6   9
BRANCH   3  15
ATOM     15  O   UNL     1       4.110   2.306  17.743  0.00  0.00    +0.000 OA
ATOM     16  H   UNL     1       3.868   1.681  17.040  0.00  0.00    +0.000 HD
ENDBRANCH   3  15
BRANCH   1  17
ATOM     17  C   UNL     1       7.133   6.112  16.631  0.00  0.00    +0.000 C 
BRANCH  17  18
ATOM     18  C   UNL     1       7.442   6.915  17.866  0.00  0.00    +0.000 C 
ATOM     19  O   UNL     1       7.808   6.451  18.938  0.00  0.00    +0.000 OA
BRANCH  18  21
ATOM     20  C   UNL     1       8.335   9.069  18.109  0.00  0.00    +0.000 C 
ATOM     21  O   UNL     1       7.292   8.241  17.595  0.00  0.00    +0.000 OA
ENDBRANCH  18  21
ENDBRANCH  17  18
ENDBRANCH   1  17
TORSDOF 5
ENDMDL
MODEL 2
REMARK VINA RESULT:      -6.8      0.950      1.537
REMARK  Name = 
REMARK  7 active torsions:
REMARK  status: ('A' for Active; 'I' for Inactive)
REMARK    1  A    between atoms: C_1  and  O_2
REMARK    2  A    between atoms: O_2  and  C_3
REMARK    3  A    between atoms: C_3  and  C_5
REMARK    4  A    between atoms: C_5  and  C_6
REMARK    5  A    between atoms: C_8  and  O_9
REMARK    6  A    between atoms: C_10  and  C_11
REMARK    7  A    between atoms: C_12  and  C_13
REMARK                            x       y       z     vdW  Elec       q    Type
REMARK                         _______ _______ _______ _____ _____    ______ ____
ROOT
ATOM      1  C   UNL     1       5.645   5.066  17.922  0.00  0.00    +0.000 C 
ATOM      2  C   UNL     1       5.151   3.731  18.490  0.00  0.00    +0.000 C 
ATOM      3  C   UNL     1       3.708   3.470  18.046  0.00  0.00    +0.000 C 
ATOM      4  C   UNL     1       2.775   4.627  18.442  0.00  0.00    +0.000 C 
ATOM      5  C   UNL     1       1.369   4.409  17.857  0.00  0.00    +0.000 C 
ATOM      6  C   UNL     1       3.369   5.980  17.979  0.00  0.00    +0.000 C 
ATOM      7  N   UNL     1       4.768   6.144  18.398  0.00  0.00    +0.000 NA
ATOM      8  H   UNL     1       4.806   6.198  19.415  0.00  0.00    +0.000 HD
ENDROOT
BRANCH   6   9
ATOM      9  C   UNL     1       2.571   7.167  18.503  0.00  0.00    +0.000 A 
ATOM     10  C   UNL     1       2.147   8.201  17.646  0.00  0.00    +0.000 A 
ATOM     11  C   UNL     1       1.412   9.278  18.138  0.00  0.00    +0.000 A 
ATOM     12  C   UNL     1       1.093   9.343  19.491  0.00  0.00    +0.000 A 
ATOM     13  C   UNL     1       1.504   8.327  20.352  0.00  0.00    +0.000 A 
ATOM     14  C   UNL     1       2.235   7.243  19.862  0.00  0.00    +0.000 A 
ENDBRANCH   6   9
BRANCH   3  15
ATOM     15  O   UNL     1       3.256   2.242  18.618  0.00  0.00    +0.000 OA
ATOM     16  H   UNL     1       3.325   1.545  17.943  0.00  0.00    +0.000 HD
ENDBRANCH   3  15
BRANCH   1  17
ATOM     17  C   UNL     1       7.066   5.447  18.351  0.00  0.00    +0.000 C 
BRANCH  17  18
ATOM     18  C   UNL     1       7.624   6.631  17.607  0.00  0.00    +0.000 C 
ATOM     19  O   UNL     1       7.549   6.804  16.397  0.00  0.00    +0.000 OA
BRANCH  18  21
ATOM     20  C   UNL     1       8.223   8.854  18.046  0.00  0.00    +0.000 C 
ATOM     21  O   UNL     1       8.189   7.498  18.491  0.00  0.00    +0.000 OA
ENDBRANCH  18  21
ENDBRANCH  17  18
ENDBRANCH   1  17
TORSDOF 5
ENDMDL
MODEL 3
REMARK VINA RESULT:      -6.8      2.504      4.158
REMARK  Name = 
REMARK  7 active torsions:
REMARK  status: ('A' for Active; 'I' for Inactive)
REMARK    1  A    between atoms: C_1  and  O_2
REMARK    2  A    between atoms: O_2  and  C_3
REMARK    3  A    between atoms: C_3  and  C_5
REMARK    4  A    between atoms: C_5  and  C_6
REMARK    5  A    between atoms: C_8  and  O_9
REMARK    6  A    between atoms: C_10  and  C_11
REMARK    7  A    between atoms: C_12  and  C_13
REMARK                            x       y       z     vdW  Elec       q    Type
REMARK                         _______ _______ _______ _____ _____    ______ ____
ROOT
ATOM      1  C   UNL     1       5.061   5.654  17.190  0.00  0.00    +0.000 C 
ATOM      2  C   UNL     1       4.252   6.811  16.592  0.00  0.00    +0.000 C 
ATOM      3  C   UNL     1       3.571   7.610  17.707  0.00  0.00    +0.000 C 
ATOM      4  C   UNL     1       2.693   6.712  18.595  0.00  0.00    +0.000 C 
ATOM      5  C   UNL     1       2.141   7.508  19.789  0.00  0.00    +0.000 C 
ATOM      6  C   UNL     1       3.495   5.476  19.070  0.00  0.00    +0.000 C 
ATOM      7  N   UNL     1       4.160   4.784  17.958  0.00  0.00    +0.000 NA
ATOM      8  H   UNL     1       3.451   4.389  17.340  0.00  0.00    +0.000 HD
ENDROOT
BRANCH   6   9
ATOM      9  C   UNL     1       2.619   4.468  19.803  0.00  0.00    +0.000 A 
ATOM     10  C   UNL     1       1.541   3.831  19.162  0.00  0.00    +0.000 A 
ATOM     11  C   UNL     1       0.751   2.905  19.843  0.00  0.00    +0.000 A 
ATOM     12  C   UNL     1       1.024   2.607  21.175  0.00  0.00    +0.000 A 
ATOM     13  C   UNL     1       2.089   3.228  21.824  0.00  0.00    +0.000 A 
ATOM     14  C   UNL     1       2.886   4.151  21.143  0.00  0.00    +0.000 A 
ENDBRANCH   6   9
BRANCH   3  15
ATOM     15  O   UNL     1       2.793   8.657  17.125  0.00  0.00    +0.000 OA
ATOM     16  H   UNL     1       1.888   8.600  17.478  0.00  0.00    +0.000 HD
ENDBRANCH   3  15
BRANCH   1  17
ATOM     17  C   UNL     1       5.743   4.758  16.151  0.00  0.00    +0.000 C 
BRANCH  17  18
ATOM     18  C   UNL     1       7.246   4.819  16.195  0.00  0.00    +0.000 C 
ATOM     19  O   UNL     1       7.944   4.414  17.116  0.00  0.00    +0.000 OA
BRANCH  18  21
ATOM     20  C   UNL     1       7.061   4.874  13.858  0.00  0.00    +0.000 C 
ATOM     21  O   UNL     1       7.713   5.356  15.034  0.00  0.00    +0.000 OA
ENDBRANCH  18  21
ENDBRANCH  17  18
ENDBRANCH   1  17
TORSDOF 5
ENDMDL
MODEL 4
REMARK VINA RESULT:      -6.8      2.417      4.085
REMARK  Name = 
REMARK  7 active torsions:
REMARK  status: ('A' for Active; 'I' for Inactive)
REMARK    1  A    between atoms: C_1  and  O_2
REMARK    2  A    between atoms: O_2  and  C_3
REMARK    3  A    between atoms: C_3  and  C_5
REMARK    4  A    between atoms: C_5  and  C_6
REMARK    5  A    between atoms: C_8  and  O_9
REMARK    6  A    between atoms: C_10  and  C_11
REMARK    7  A    between atoms: C_12  and  C_13
REMARK                            x       y       z     vdW  Elec       q    Type
REMARK                         _______ _______ _______ _____ _____    ______ ____
ROOT
ATOM      1  C   UNL     1       4.631   6.305  16.997  0.00  0.00    +0.000 C 
ATOM      2  C   UNL     1       3.713   7.471  16.613  0.00  0.00    +0.000 C 
ATOM      3  C   UNL     1       3.111   8.105  17.871  0.00  0.00    +0.000 C 
ATOM      4  C   UNL     1       2.369   7.067  18.730  0.00  0.00    +0.000 C 
ATOM      5  C   UNL     1       1.903   7.698  20.054  0.00  0.00    +0.000 C 
ATOM      6  C   UNL     1       3.271   5.836  18.985  0.00  0.00    +0.000 C 
ATOM      7  N   UNL     1       3.853   5.307  17.744  0.00  0.00    +0.000 NA
ATOM      8  H   UNL     1       3.105   4.941  17.155  0.00  0.00    +0.000 HD
ENDROOT
BRANCH   6   9
ATOM      9  C   UNL     1       2.521   4.706  19.679  0.00  0.00    +0.000 A 
ATOM     10  C   UNL     1       2.779   4.370  21.021  0.00  0.00    +0.000 A 
ATOM     11  C   UNL     1       2.080   3.339  21.646  0.00  0.00    +0.000 A 
ATOM     12  C   UNL     1       1.115   2.626  20.940  0.00  0.00    +0.000 A 
ATOM     13  C   UNL     1       0.846   2.947  19.611  0.00  0.00    +0.000 A 
ATOM     14  C   UNL     1       1.540   3.984  18.983  0.00  0.00    +0.000 A 
ENDBRANCH   6   9
BRANCH   3  15
ATOM     15  O   UNL     1       2.231   9.162  17.487  0.00  0.00    +0.000 OA
ATOM     16  H   UNL     1       1.366   9.008  17.903  0.00  0.00    +0.000 HD
ENDBRANCH   3  15
BRANCH   1  17
ATOM     17  C   UNL     1       5.246   5.566  15.804  0.00  0.00    +0.000 C 
BRANCH  17  18
ATOM     18  C   UNL     1       6.678   5.156  16.022  0.00  0.00    +0.000 C 
ATOM     19  O   UNL     1       7.624   5.490  15.319  0.00  0.00    +0.000 OA
BRANCH  18  21
ATOM     20  C   UNL     1       7.696   4.873  18.115  0.00  0.00    +0.000 C 
ATOM     21  O   UNL     1       6.766   4.391  17.144  0.00  0.00    +0.000 OA
ENDBRANCH  18  21
ENDBRANCH  17  18
ENDBRANCH   1  17
TORSDOF 5
ENDMDL
MODEL 5
REMARK VINA RESULT:      -6.8      2.471      4.138
REMARK  Name = 
REMARK  7 active torsions:
REMARK  status: ('A' for Active; 'I' for Inactive)
REMARK    1  A    between atoms: C_1  and  O_2
REMARK    2  A    between atoms: O_2  and  C_3
REMARK    3  A    between atoms: C_3  and  C_5
REMARK    4  A    between atoms: C_5  and  C_6
REMARK    5  A    between atoms: C_8  and  O_9
REMARK    6  A    between atoms: C_10  and  C_11
REMARK    7  A    between atoms: C_12  and  C_13
REMARK                            x       y       z     vdW  Elec       q    Type
REMARK                         _______ _______ _______ _____ _____    ______ ____
ROOT
ATOM      1  C   UNL     1       4.764   6.344  17.219  0.00  0.00    +0.000 C 
ATOM      2  C   UNL     1       3.833   7.464  16.740  0.00  0.00    +0.000 C 
ATOM      3  C   UNL     1       3.126   8.110  17.936  0.00  0.00    +0.000 C 
ATOM      4  C   UNL     1       2.365   7.070  18.776  0.00  0.00    +0.000 C 
ATOM      5  C   UNL     1       1.790   7.719  20.046  0.00  0.00    +0.000 C 
ATOM      6  C   UNL     1       3.291   5.880  19.126  0.00  0.00    +0.000 C 
ATOM      7  N   UNL     1       3.973   5.339  17.943  0.00  0.00    +0.000 NA
ATOM      8  H   UNL     1       3.279   4.929  17.318  0.00  0.00    +0.000 HD
ENDROOT
BRANCH   6   9
ATOM      9  C   UNL     1       2.536   4.743  19.804  0.00  0.00    +0.000 A 
ATOM     10  C   UNL     1       2.828   4.354  21.124  0.00  0.00    +0.000 A 
ATOM     11  C   UNL     1       2.124   3.316  21.735  0.00  0.00    +0.000 A 
ATOM     12  C   UNL     1       1.123   2.650  21.034  0.00  0.00    +0.000 A 
ATOM     13  C   UNL     1       0.820   3.025  19.727  0.00  0.00    +0.000 A 
ATOM     14  C   UNL     1       1.519   4.068  19.114  0.00  0.00    +0.000 A 
ENDBRANCH   6   9
BRANCH   3  15
ATOM     15  O   UNL     1       2.236   9.122  17.463  0.00  0.00    +0.000 OA
ATOM     16  H   UNL     1       1.342   8.745  17.409  0.00  0.00    +0.000 HD
ENDBRANCH   3  15
BRANCH   1  17
ATOM     17  C   UNL     1       5.483   5.595  16.092  0.00  0.00    +0.000 C 
BRANCH  17  18
ATOM     18  C   UNL     1       6.765   4.937  16.527  0.00  0.00    +0.000 C 
ATOM     19  O   UNL     1       6.995   4.510  17.651  0.00  0.00    +0.000 OA
BRANCH  18  21
ATOM     20  C   UNL     1       6.966   4.700  14.203  0.00  0.00    +0.000 C 
ATOM     21  O   UNL     1       7.615   4.854  15.466  0.00  0.00    +0.000 OA
ENDBRANCH  18  21
ENDBRANCH  17  18
ENDBRANCH   1  17
TORSDOF 5
ENDMDL
MODEL 6
REMARK VINA RESULT:      -6.7      2.063      4.735
REMARK  Name = 
REMARK  7 active torsions:
REMARK  status: ('A' for Active; 'I' for Inactive)
REMARK    1  A    between atoms: C_1  and  O_2
REMARK    2  A    between atoms: O_2  and  C_3
REMARK    3  A    between atoms: C_3  and  C_5
REMARK    4  A    between atoms: C_5  and  C_6
REMARK    5  A    between atoms: C_8  and  O_9
REMARK    6  A    between atoms: C_10  and  C_11
REMARK    7  A    between atoms: C_12  and  C_13
REMARK                            x       y       z     vdW  Elec       q    Type
REMARK                         _______ _______ _______ _____ _____    ______ ____
ROOT
ATOM      1  C   UNL     1       3.554   3.323  17.831  0.00  0.00    +0.000 C 
ATOM      2  C   UNL     1       4.390   3.499  16.558  0.00  0.00    +0.000 C 
ATOM      3  C   UNL     1       5.378   4.656  16.731  0.00  0.00    +0.000 C 
ATOM      4  C   UNL     1       4.661   5.962  17.116  0.00  0.00    +0.000 C 
ATOM      5  C   UNL     1       5.684   7.067  17.426  0.00  0.00    +0.000 C 
ATOM      6  C   UNL     1       3.715   5.722  18.318  0.00  0.00    +0.000 C 
ATOM      7  N   UNL     1       2.828   4.570  18.106  0.00  0.00    +0.000 NA
ATOM      8  H   UNL     1       2.193   4.777  17.336  0.00  0.00    +0.000 HD
ENDROOT
BRANCH   6   9
ATOM      9  C   UNL     1       2.852   6.939  18.622  0.00  0.00    +0.000 A 
ATOM     10  C   UNL     1       2.559   7.896  17.633  0.00  0.00    +0.000 A 
ATOM     11  C   UNL     1       1.761   9.003  17.924  0.00  0.00    +0.000 A 
ATOM     12  C   UNL     1       1.249   9.171  19.207  0.00  0.00    +0.000 A 
ATOM     13  C   UNL     1       1.528   8.232  20.198  0.00  0.00    +0.000 A 
ATOM     14  C   UNL     1       2.321   7.119  19.908  0.00  0.00    +0.000 A 
ENDBRANCH   6   9
BRANCH   3  15
ATOM     15  O   UNL     1       6.116   4.827  15.520  0.00  0.00    +0.000 OA
ATOM     16  H   UNL     1       7.064   4.828  15.736  0.00  0.00    +0.000 HD
ENDBRANCH   3  15
BRANCH   1  17
ATOM     17  C   UNL     1       2.495   2.219  17.744  0.00  0.00    +0.000 C 
BRANCH  17  18
ATOM     18  C   UNL     1       1.419   2.331  18.790  0.00  0.00    +0.000 C 
ATOM     19  O   UNL     1       0.221   2.438  18.564  0.00  0.00    +0.000 OA
BRANCH  18  21
ATOM     20  C   UNL     1       1.326   3.044  21.022  0.00  0.00    +0.000 C 
ATOM     21  O   UNL     1       1.980   2.254  20.028  0.00  0.00    +0.000 OA
ENDBRANCH  18  21
ENDBRANCH  17  18
ENDBRANCH   1  17
TORSDOF 5
ENDMDL
MODEL 7
REMARK VINA RESULT:      -6.7      2.432      4.169
REMARK  Name = 
REMARK  7 active torsions:
REMARK  status: ('A' for Active; 'I' for Inactive)
REMARK    1  A    between atoms: C_1  and  O_2
REMARK    2  A    between atoms: O_2  and  C_3
REMARK    3  A    between atoms: C_3  and  C_5
REMARK    4  A    between atoms: C_5  and  C_6
REMARK    5  A    between atoms: C_8  and  O_9
REMARK    6  A    between atoms: C_10  and  C_11
REMARK    7  A    between atoms: C_12  and  C_13
REMARK                            x       y       z     vdW  Elec       q    Type
REMARK                         _______ _______ _______ _____ _____    ______ ____
ROOT
ATOM      1  C   UNL     1       4.676   6.269  17.023  0.00  0.00    +0.000 C 
ATOM      2  C   UNL     1       3.771   7.437  16.612  0.00  0.00    +0.000 C 
ATOM      3  C   UNL     1       3.148   8.084  17.852  0.00  0.00    +0.000 C 
ATOM      4  C   UNL     1       2.385   7.056  18.706  0.00  0.00    +0.000 C 
ATOM      5  C   UNL     1       1.896   7.699  20.015  0.00  0.00    +0.000 C 
ATOM      6  C   UNL     1       3.276   5.822  18.987  0.00  0.00    +0.000 C 
ATOM      7  N   UNL     1       3.879   5.281  17.762  0.00  0.00    +0.000 NA
ATOM      8  H   UNL     1       3.141   4.914  17.162  0.00  0.00    +0.000 HD
ENDROOT
BRANCH   6   9
ATOM      9  C   UNL     1       2.507   4.702  19.676  0.00  0.00    +0.000 A 
ATOM     10  C   UNL     1       1.525   3.960  18.994  0.00  0.00    +0.000 A 
ATOM     11  C   UNL     1       0.834   2.932  19.635  0.00  0.00    +0.000 A 
ATOM     12  C   UNL     1       1.109   2.635  20.966  0.00  0.00    +0.000 A 
ATOM     13  C   UNL     1       2.079   3.359  21.655  0.00  0.00    +0.000 A 
ATOM     14  C   UNL     1       2.778   4.385  21.015  0.00  0.00    +0.000 A 
ENDBRANCH   6   9
BRANCH   3  15
ATOM     15  O   UNL     1       2.280   9.142  17.443  0.00  0.00    +0.000 OA
ATOM     16  H   UNL     1       2.526   9.410  16.542  0.00  0.00    +0.000 HD
ENDBRANCH   3  15
BRANCH   1  17
ATOM     17  C   UNL     1       5.310   5.518  15.848  0.00  0.00    +0.000 C 
BRANCH  17  18
ATOM     18  C   UNL     1       6.650   4.913  16.171  0.00  0.00    +0.000 C 
ATOM     19  O   UNL     1       7.609   4.870  15.410  0.00  0.00    +0.000 OA
BRANCH  18  21
ATOM     20  C   UNL     1       7.787   4.846  18.221  0.00  0.00    +0.000 C 
ATOM     21  O   UNL     1       6.645   4.460  17.455  0.00  0.00    +0.000 OA
ENDBRANCH  18  21
ENDBRANCH  17  18
ENDBRANCH   1  17
TORSDOF 5
ENDMDL
MODEL 8
REMARK VINA RESULT:      -6.6      2.345      4.661
REMARK  Name = 
REMARK  7 active torsions:
REMARK  status: ('A' for Active; 'I' for Inactive)
REMARK    1  A    between atoms: C_1  and  O_2
REMARK    2  A    between atoms: O_2  and  C_3
REMARK    3  A    between atoms: C_3  and  C_5
REMARK    4  A    between atoms: C_5  and  C_6
REMARK    5  A    between atoms: C_8  and  O_9
REMARK    6  A    between atoms: C_10  and  C_11
REMARK    7  A    between atoms: C_12  and  C_13
REMARK                            x       y       z     vdW  Elec       q    Type
REMARK                         _______ _______ _______ _____ _____    ______ ____
ROOT
ATOM      1  C   UNL     1       3.597   3.370  18.846  0.00  0.00    +0.000 C 
ATOM      2  C   UNL     1       4.073   3.188  17.399  0.00  0.00    +0.000 C 
ATOM      3  C   UNL     1       4.963   4.365  16.986  0.00  0.00    +0.000 C 
ATOM      4  C   UNL     1       4.246   5.713  17.176  0.00  0.00    +0.000 C 
ATOM      5  C   UNL     1       5.208   6.879  16.894  0.00  0.00    +0.000 C 
ATOM      6  C   UNL     1       3.652   5.810  18.602  0.00  0.00    +0.000 C 
ATOM      7  N   UNL     1       2.850   4.630  18.951  0.00  0.00    +0.000 NA
ATOM      8  H   UNL     1       2.028   4.596  18.349  0.00  0.00    +0.000 HD
ENDROOT
BRANCH   6   9
ATOM      9  C   UNL     1       2.782   7.048  18.779  0.00  0.00    +0.000 A 
ATOM     10  C   UNL     1       2.173   7.345  20.013  0.00  0.00    +0.000 A 
ATOM     11  C   UNL     1       1.384   8.485  20.163  0.00  0.00    +0.000 A 
ATOM     12  C   UNL     1       1.190   9.343  19.084  0.00  0.00    +0.000 A 
ATOM     13  C   UNL     1       1.788   9.064  17.857  0.00  0.00    +0.000 A 
ATOM     14  C   UNL     1       2.583   7.926  17.704  0.00  0.00    +0.000 A 
ENDBRANCH   6   9
BRANCH   3  15
ATOM     15  O   UNL     1       5.361   4.195  15.625  0.00  0.00    +0.000 OA
ATOM     16  H   UNL     1       4.577   3.957  15.102  0.00  0.00    +0.000 HD
ENDBRANCH   3  15
BRANCH   1  17
ATOM     17  C   UNL     1       2.655   2.268  19.343  0.00  0.00    +0.000 C 
BRANCH  17  18
ATOM     18  C   UNL     1       1.205   2.672  19.348  0.00  0.00    +0.000 C 
ATOM     19  O   UNL     1       0.417   2.494  18.428  0.00  0.00    +0.000 OA
BRANCH  18  21
ATOM     20  C   UNL     1       1.508   2.590  21.672  0.00  0.00    +0.000 C 
ATOM     21  O   UNL     1       0.893   3.228  20.551  0.00  0.00    +0.000 OA
ENDBRANCH  18  21
ENDBRANCH  17  18
ENDBRANCH   1  17
TORSDOF 5
ENDMDL
MODEL 9
REMARK VINA RESULT:      -6.6      0.830      1.654
REMARK  Name = 
REMARK  7 active torsions:
REMARK  status: ('A' for Active; 'I' for Inactive)
REMARK    1  A    between atoms: C_1  and  O_2
REMARK    2  A    between atoms: O_2  and  C_3
REMARK    3  A    between atoms: C_3  and  C_5
REMARK    4  A    between atoms: C_5  and  C_6
REMARK    5  A    between atoms: C_8  and  O_9
REMARK    6  A    between atoms: C_10  and  C_11
REMARK    7  A    between atoms: C_12  and  C_13
REMARK                            x       y       z     vdW  Elec       q    Type
REMARK                         _______ _______ _______ _____ _____    ______ ____
ROOT
ATOM      1  C   UNL     1       5.583   4.885  17.066  0.00  0.00    +0.000 C 
ATOM      2  C   UNL     1       5.194   3.507  17.616  0.00  0.00    +0.000 C 
ATOM      3  C   UNL     1       3.693   3.268  17.428  0.00  0.00    +0.000 C 
ATOM      4  C   UNL     1       2.855   4.386  18.072  0.00  0.00    +0.000 C 
ATOM      5  C   UNL     1       1.364   4.200  17.743  0.00  0.00    +0.000 C 
ATOM      6  C   UNL     1       3.361   5.774  17.608  0.00  0.00    +0.000 C 
ATOM      7  N   UNL     1       4.814   5.918  17.772  0.00  0.00    +0.000 NA
ATOM      8  H   UNL     1       5.040   5.899  18.765  0.00  0.00    +0.000 HD
ENDROOT
BRANCH   6   9
ATOM      9  C   UNL     1       2.680   6.914  18.354  0.00  0.00    +0.000 A 
ATOM     10  C   UNL     1       2.308   8.101  17.697  0.00  0.00    +0.000 A 
ATOM     11  C   UNL     1       1.679   9.134  18.391  0.00  0.00    +0.000 A 
ATOM     12  C   UNL     1       1.417   8.998  19.751  0.00  0.00    +0.000 A 
ATOM     13  C   UNL     1       1.778   7.828  20.416  0.00  0.00    +0.000 A 
ATOM     14  C   UNL     1       2.402   6.789  19.723  0.00  0.00    +0.000 A 
ENDBRANCH   6   9
BRANCH   3  15
ATOM     15  O   UNL     1       3.348   1.998  17.983  0.00  0.00    +0.000 OA
ATOM     16  H   UNL     1       3.866   1.866  18.795  0.00  0.00    +0.000 HD
ENDBRANCH   3  15
BRANCH   1  17
ATOM     17  C   UNL     1       7.060   5.245  17.252  0.00  0.00    +0.000 C 
BRANCH  17  18
ATOM     18  C   UNL     1       7.295   6.708  17.520  0.00  0.00    +0.000 C 
ATOM     19  O   UNL     1       7.072   7.616  16.730  0.00  0.00    +0.000 OA
BRANCH  18  21
ATOM     20  C   UNL     1       8.035   5.645  19.475  0.00  0.00    +0.000 C 
ATOM     21  O   UNL     1       7.755   6.868  18.791  0.00  0.00    +0.000 OA
ENDBRANCH  18  21
ENDBRANCH  17  18
ENDBRANCH   1  17
TORSDOF 5
ENDMDL
