MODEL 1
REMARK VINA RESULT:      -8.3      0.000      0.000
REMARK  Name = 
REMARK  5 active torsions:
REMARK  status: ('A' for Active; 'I' for Inactive)
REMARK    1  A    between atoms: C_4  and  C_5
REMARK    2  A    between atoms: C_5  and  N_6
REMARK    3  A    between atoms: C_8  and  N_9
REMARK    4  A    between atoms: N_9  and  C_10
REMARK    5  A    between atoms: C_16  and  C_17
REMARK                            x       y       z     vdW  Elec       q    Type
REMARK                         _______ _______ _______ _____ _____    ______ ____
ROOT
ATOM      1  N   UNL     1       5.798   4.869  16.557  0.00  0.00    +0.000 NA
ATOM      2  C   UNL     1       5.715   4.146  17.843  0.00  0.00    +0.000 C 
ATOM      3  C   UNL     1       4.553   4.743  18.653  0.00  0.00    +0.000 C 
ATOM      4  C   UNL     1       4.664   6.216  18.241  0.00  0.00    +0.000 C 
ATOM      5  C   UNL     1       5.153   6.178  16.783  0.00  0.00    +0.000 C 
ENDROOT
BRANCH   4   6
ATOM      6  C   UNL     1       3.435   7.083  18.546  0.00  0.00    +0.000 A 
ATOM      7  C   UNL     1       3.044   8.048  17.596  0.00  0.00    +0.000 A 
ATOM      8  C   UNL     1       1.960   8.897  17.839  0.00  0.00    +0.000 A 
ATOM      9  C   UNL     1       1.248   8.797  19.037  0.00  0.00    +0.000 A 
ATOM     10  C   UNL     1       1.609   7.843  19.986  0.00  0.00    +0.000 A 
ATOM     11  C   UNL     1       2.686   6.989  19.746  0.00  0.00    +0.000 A 
ENDBRANCH   4   6
BRANCH   3  12
ATOM     12  N   UNL     1       3.240   4.111  18.347  0.00  0.00    +0.000 NA
ATOM     13  H   UNL     1       2.499   4.724  18.747  0.00  0.00    +0.000 HD
BRANCH  12  14
ATOM     14  C   UNL     1       3.065   2.739  18.912  0.00  0.00    +0.000 C 
ATOM     15  C   UNL     1       3.499   2.568  20.406  0.00  0.00    +0.000 C 
ATOM     16  C   UNL     1       2.598   3.367  21.360  0.00  0.00    +0.000 C 
ATOM     17  C   UNL     1       1.146   2.885  21.236  0.00  0.00    +0.000 C 
ATOM     18  C   UNL     1       0.651   3.015  19.786  0.00  0.00    +0.000 C 
ATOM     19  C   UNL     1       1.586   2.260  18.816  0.00  0.00    +0.000 C 
ENDBRANCH  12  14
ENDBRANCH   3  12
BRANCH   1  20
ATOM     20  C   UNL     1       5.133   4.171  15.435  0.00  0.00    +0.000 C 
BRANCH  20  24
ATOM     21  C   UNL     1       7.475   4.323  11.834  0.00  0.00    +0.000 A 
ATOM     22  C   UNL     1       7.848   5.085  12.946  0.00  0.00    +0.000 A 
ATOM     23  C   UNL     1       7.084   5.039  14.112  0.00  0.00    +0.000 A 
ATOM     24  C   UNL     1       5.939   4.232  14.174  0.00  0.00    +0.000 A 
ATOM     25  C   UNL     1       5.570   3.464  13.057  0.00  0.00    +0.000 A 
ATOM     26  C   UNL     1       6.338   3.511  11.890  0.00  0.00    +0.000 A 
ENDBRANCH  20  24
ENDBRANCH   1  20
TORSDOF 5
ENDMDL
MODEL 2
REMARK VINA RESULT:      -8.1      0.106      1.373
REMARK  Name = 
REMARK  5 active torsions:
REMARK  status: ('A' for Active; 'I' for Inactive)
REMARK    1  A    between atoms: C_4  and  C_5
REMARK    2  A    between atoms: C_5  and  N_6
REMARK    3  A    between atoms: C_8  and  N_9
REMARK    4  A    between atoms: N_9  and  C_10
REMARK    5  A    between atoms: C_16  and  C_17
REMARK                            x       y       z     vdW  Elec       q    Type
REMARK                         _______ _______ _______ _____ _____    ______ ____
ROOT
ATOM      1  N   UNL     1       5.843   4.892  16.535  0.00  0.00    +0.000 NA
ATOM      2  C   UNL     1       5.777   4.197  17.837  0.00  0.00    +0.000 C 
ATOM      3  C   UNL     1       4.621   4.807  18.647  0.00  0.00    +0.000 C 
ATOM      4  C   UNL     1       4.721   6.270  18.201  0.00  0.00    +0.000 C 
ATOM      5  C   UNL     1       5.195   6.203  16.739  0.00  0.00    +0.000 C 
ENDROOT
BRANCH   4   6
ATOM      6  C   UNL     1       3.492   7.139  18.499  0.00  0.00    +0.000 A 
ATOM      7  C   UNL     1       2.827   6.959  19.729  0.00  0.00    +0.000 A 
ATOM      8  C   UNL     1       1.676   7.690  20.037  0.00  0.00    +0.000 A 
ATOM      9  C   UNL     1       1.169   8.615  19.121  0.00  0.00    +0.000 A 
ATOM     10  C   UNL     1       1.815   8.818  17.903  0.00  0.00    +0.000 A 
ATOM     11  C   UNL     1       2.968   8.095  17.593  0.00  0.00    +0.000 A 
ENDBRANCH   4   6
BRANCH   3  12
ATOM     12  N   UNL     1       3.307   4.163  18.368  0.00  0.00    +0.000 NA
ATOM     13  H   UNL     1       2.570   4.763  18.792  0.00  0.00    +0.000 HD
BRANCH  12  14
ATOM     14  C   UNL     1       3.162   2.784  18.924  0.00  0.00    +0.000 C 
ATOM     15  C   UNL     1       3.527   2.629  20.438  0.00  0.00    +0.000 C 
ATOM     16  C   UNL     1       2.546   3.388  21.346  0.00  0.00    +0.000 C 
ATOM     17  C   UNL     1       1.124   2.845  21.148  0.00  0.00    +0.000 C 
ATOM     18  C   UNL     1       0.697   2.957  19.675  0.00  0.00    +0.000 C 
ATOM     19  C   UNL     1       1.711   2.243  18.754  0.00  0.00    +0.000 C 
ENDBRANCH  12  14
ENDBRANCH   3  12
BRANCH   1  20
ATOM     20  C   UNL     1       5.169   4.166  15.436  0.00  0.00    +0.000 C 
BRANCH  20  24
ATOM     21  C   UNL     1       7.417   4.289  11.773  0.00  0.00    +0.000 A 
ATOM     22  C   UNL     1       6.277   3.485  11.870  0.00  0.00    +0.000 A 
ATOM     23  C   UNL     1       5.551   3.441  13.061  0.00  0.00    +0.000 A 
ATOM     24  C   UNL     1       5.963   4.201  14.165  0.00  0.00    +0.000 A 
ATOM     25  C   UNL     1       7.105   5.011  14.064  0.00  0.00    +0.000 A 
ATOM     26  C   UNL     1       7.830   5.054  12.868  0.00  0.00    +0.000 A 
ENDBRANCH  20  24
ENDBRANCH   1  20
TORSDOF 5
ENDMDL
MODEL 3
REMARK VINA RESULT:      -7.7      0.481      1.137
REMARK  Name = 
REMARK  5 active torsions:
REMARK  status: ('A' for Active; 'I' for Inactive)
REMARK    1  A    between atoms: C_4  and  C_5
REMARK    2  A    between atoms: C_5  and  N_6
REMARK    3  A    between atoms: C_8  and  N_9
REMARK    4  A    between atoms: N_9  and  C_10
REMARK    5  A    between atoms: C_16  and  C_17
REMARK                            x       y       z     vdW  Elec       q    Type
REMARK                         _______ _______ _______ _____ _____    ______ ____
ROOT
ATOM      1  N   UNL     1       5.825   5.121  16.405  0.00  0.00    +0.000 NA
ATOM      2  C   UNL     1       5.885   4.486  17.738  0.00  0.00    +0.000 C 
ATOM      3  C   UNL     1       4.742   5.057  18.592  0.00  0.00    +0.000 C 
ATOM      4  C   UNL     1       4.715   6.501  18.078  0.00  0.00    +0.000 C 
ATOM      5  C   UNL     1       5.102   6.396  16.593  0.00  0.00    +0.000 C 
ENDROOT
BRANCH   4   6
ATOM      6  C   UNL     1       3.451   7.302  18.417  0.00  0.00    +0.000 A 
ATOM      7  C   UNL     1       2.845   7.098  19.673  0.00  0.00    +0.000 A 
ATOM      8  C   UNL     1       1.667   7.766  20.019  0.00  0.00    +0.000 A 
ATOM      9  C   UNL     1       1.072   8.649  19.116  0.00  0.00    +0.000 A 
ATOM     10  C   UNL     1       1.659   8.876  17.872  0.00  0.00    +0.000 A 
ATOM     11  C   UNL     1       2.838   8.217  17.524  0.00  0.00    +0.000 A 
ENDBRANCH   4   6
BRANCH   3  12
ATOM     12  N   UNL     1       3.461   4.318  18.426  0.00  0.00    +0.000 NA
ATOM     13  H   UNL     1       2.687   4.985  18.627  0.00  0.00    +0.000 HD
BRANCH  12  14
ATOM     14  C   UNL     1       3.303   3.138  19.331  0.00  0.00    +0.000 C 
ATOM     15  C   UNL     1       2.784   3.462  20.771  0.00  0.00    +0.000 C 
ATOM     16  C   UNL     1       1.339   3.983  20.758  0.00  0.00    +0.000 C 
ATOM     17  C   UNL     1       0.407   2.924  20.151  0.00  0.00    +0.000 C 
ATOM     18  C   UNL     1       0.862   2.547  18.731  0.00  0.00    +0.000 C 
ATOM     19  C   UNL     1       2.333   2.077  18.732  0.00  0.00    +0.000 C 
ENDBRANCH  12  14
ENDBRANCH   3  12
BRANCH   1  20
ATOM     20  C   UNL     1       5.135   4.302  15.384  0.00  0.00    +0.000 C 
BRANCH  20  24
ATOM     21  C   UNL     1       7.343   4.135  11.699  0.00  0.00    +0.000 A 
ATOM     22  C   UNL     1       7.769   4.974  12.734  0.00  0.00    +0.000 A 
ATOM     23  C   UNL     1       7.048   5.031  13.928  0.00  0.00    +0.000 A 
ATOM     24  C   UNL     1       5.895   4.251  14.093  0.00  0.00    +0.000 A 
ATOM     25  C   UNL     1       5.473   3.406  13.053  0.00  0.00    +0.000 A 
ATOM     26  C   UNL     1       6.197   3.350  11.859  0.00  0.00    +0.000 A 
ENDBRANCH  20  24
ENDBRANCH   1  20
TORSDOF 5
ENDMDL
MODEL 4
REMARK VINA RESULT:      -7.3      0.914      1.459
REMARK  Name = 
REMARK  5 active torsions:
REMARK  status: ('A' for Active; 'I' for Inactive)
REMARK    1  A    between atoms: C_4  and  C_5
REMARK    2  A    between atoms: C_5  and  N_6
REMARK    3  A    between atoms: C_8  and  N_9
REMARK    4  A    between atoms: N_9  and  C_10
REMARK    5  A    between atoms: C_16  and  C_17
REMARK                            x       y       z     vdW  Elec       q    Type
REMARK                         _______ _______ _______ _____ _____    ______ ____
ROOT
ATOM      1  N   UNL     1       5.557   4.850  15.555  0.00  0.00    +0.000 NA
ATOM      2  C   UNL     1       5.448   3.811  16.600  0.00  0.00    +0.000 C 
ATOM      3  C   UNL     1       4.428   4.289  17.646  0.00  0.00    +0.000 C 
ATOM      4  C   UNL     1       4.718   5.795  17.638  0.00  0.00    +0.000 C 
ATOM      5  C   UNL     1       5.113   6.110  16.185  0.00  0.00    +0.000 C 
ENDROOT
BRANCH   4   6
ATOM      6  C   UNL     1       3.641   6.681  18.279  0.00  0.00    +0.000 A 
ATOM      7  C   UNL     1       3.147   6.320  19.549  0.00  0.00    +0.000 A 
ATOM      8  C   UNL     1       2.134   7.063  20.162  0.00  0.00    +0.000 A 
ATOM      9  C   UNL     1       1.597   8.180  19.517  0.00  0.00    +0.000 A 
ATOM     10  C   UNL     1       2.078   8.562  18.266  0.00  0.00    +0.000 A 
ATOM     11  C   UNL     1       3.093   7.828  17.652  0.00  0.00    +0.000 A 
ENDBRANCH   4   6
BRANCH   3  12
ATOM     12  N   UNL     1       3.025   3.928  17.304  0.00  0.00    +0.000 NA
ATOM     13  H   UNL     1       2.407   4.660  17.711  0.00  0.00    +0.000 HD
BRANCH  12  14
ATOM     14  C   UNL     1       2.581   2.601  17.829  0.00  0.00    +0.000 C 
ATOM     15  C   UNL     1       3.477   1.991  18.958  0.00  0.00    +0.000 C 
ATOM     16  C   UNL     1       3.418   2.822  20.249  0.00  0.00    +0.000 C 
ATOM     17  C   UNL     1       1.975   2.874  20.772  0.00  0.00    +0.000 C 
ATOM     18  C   UNL     1       1.031   3.456  19.708  0.00  0.00    +0.000 C 
ATOM     19  C   UNL     1       1.129   2.658  18.389  0.00  0.00    +0.000 C 
ENDBRANCH  12  14
ENDBRANCH   3  12
BRANCH   1  20
ATOM     20  C   UNL     1       4.738   4.577  14.353  0.00  0.00    +0.000 C 
BRANCH  20  24
ATOM     21  C   UNL     1       7.029   2.645  11.272  0.00  0.00    +0.000 A 
ATOM     22  C   UNL     1       7.624   3.616  12.083  0.00  0.00    +0.000 A 
ATOM     23  C   UNL     1       6.878   4.246  13.080  0.00  0.00    +0.000 A 
ATOM     24  C   UNL     1       5.530   3.911  13.269  0.00  0.00    +0.000 A 
ATOM     25  C   UNL     1       4.937   2.932  12.456  0.00  0.00    +0.000 A 
ATOM     26  C   UNL     1       5.687   2.301  11.459  0.00  0.00    +0.000 A 
ENDBRANCH  20  24
ENDBRANCH   1  20
TORSDOF 5
ENDMDL
MODEL 5
REMARK VINA RESULT:      -7.3      1.024      1.887
REMARK  Name = 
REMARK  5 active torsions:
REMARK  status: ('A' for Active; 'I' for Inactive)
REMARK    1  A    between atoms: C_4  and  C_5
REMARK    2  A    between atoms: C_5  and  N_6
REMARK    3  A    between atoms: C_8  and  N_9
REMARK    4  A    between atoms: N_9  and  C_10
REMARK    5  A    between atoms: C_16  and  C_17
REMARK                            x       y       z     vdW  Elec       q    Type
REMARK                         _______ _______ _______ _____ _____    ______ ____
ROOT
ATOM      1  N   UNL     1       5.711   4.747  15.347  0.00  0.00    +0.000 NA
ATOM      2  C   UNL     1       5.601   3.684  16.368  0.00  0.00    +0.000 C 
ATOM      3  C   UNL     1       4.584   4.141  17.427  0.00  0.00    +0.000 C 
ATOM      4  C   UNL     1       4.879   5.645  17.453  0.00  0.00    +0.000 C 
ATOM      5  C   UNL     1       5.272   5.993  16.007  0.00  0.00    +0.000 C 
ENDROOT
BRANCH   4   6
ATOM      6  C   UNL     1       3.805   6.519  18.116  0.00  0.00    +0.000 A 
ATOM      7  C   UNL     1       3.338   6.151  19.394  0.00  0.00    +0.000 A 
ATOM      8  C   UNL     1       2.329   6.883  20.028  0.00  0.00    +0.000 A 
ATOM      9  C   UNL     1       1.769   7.995  19.395  0.00  0.00    +0.000 A 
ATOM     10  C   UNL     1       2.222   8.384  18.136  0.00  0.00    +0.000 A 
ATOM     11  C   UNL     1       3.233   7.661  17.501  0.00  0.00    +0.000 A 
ENDBRANCH   4   6
BRANCH   3  12
ATOM     12  N   UNL     1       3.180   3.791  17.079  0.00  0.00    +0.000 NA
ATOM     13  H   UNL     1       2.567   4.538  17.467  0.00  0.00    +0.000 HD
BRANCH  12  14
ATOM     14  C   UNL     1       2.714   2.479  17.623  0.00  0.00    +0.000 C 
ATOM     15  C   UNL     1       3.613   1.861  18.745  0.00  0.00    +0.000 C 
ATOM     16  C   UNL     1       3.591   2.705  20.028  0.00  0.00    +0.000 C 
ATOM     17  C   UNL     1       2.158   2.794  20.572  0.00  0.00    +0.000 C 
ATOM     18  C   UNL     1       1.211   3.387  19.516  0.00  0.00    +0.000 C 
ATOM     19  C   UNL     1       1.272   2.574  18.204  0.00  0.00    +0.000 C 
ENDBRANCH  12  14
ENDBRANCH   3  12
BRANCH   1  20
ATOM     20  C   UNL     1       4.890   4.503  14.141  0.00  0.00    +0.000 C 
BRANCH  20  24
ATOM     21  C   UNL     1       7.016   2.324  11.106  0.00  0.00    +0.000 A 
ATOM     22  C   UNL     1       5.678   2.021  11.380  0.00  0.00    +0.000 A 
ATOM     23  C   UNL     1       4.991   2.725  12.368  0.00  0.00    +0.000 A 
ATOM     24  C   UNL     1       5.638   3.736  13.093  0.00  0.00    +0.000 A 
ATOM     25  C   UNL     1       6.980   4.041  12.813  0.00  0.00    +0.000 A 
ATOM     26  C   UNL     1       7.666   3.334  11.821  0.00  0.00    +0.000 A 
ENDBRANCH  20  24
ENDBRANCH   1  20
TORSDOF 5
ENDMDL
MODEL 6
REMARK VINA RESULT:      -7.2      2.049      6.713
REMARK  Name = 
REMARK  5 active torsions:
REMARK  status: ('A' for Active; 'I' for Inactive)
REMARK    1  A    between atoms: C_4  and  C_5
REMARK    2  A    between atoms: C_5  and  N_6
REMARK    3  A    between atoms: C_8  and  N_9
REMARK    4  A    between atoms: N_9  and  C_10
REMARK    5  A    between atoms: C_16  and  C_17
REMARK                            x       y       z     vdW  Elec       q    Type
REMARK                         _______ _______ _______ _____ _____    ______ ____
ROOT
ATOM      1  N   UNL     1       2.152   7.563  18.500  0.00  0.00    +0.000 NA
ATOM      2  C   UNL     1       1.580   6.271  18.067  0.00  0.00    +0.000 C 
ATOM      3  C   UNL     1       2.740   5.296  17.808  0.00  0.00    +0.000 C 
ATOM      4  C   UNL     1       3.786   6.264  17.244  0.00  0.00    +0.000 C 
ATOM      5  C   UNL     1       3.537   7.588  17.986  0.00  0.00    +0.000 C 
ENDROOT
BRANCH   4   6
ATOM      6  C   UNL     1       5.228   5.738  17.214  0.00  0.00    +0.000 A 
ATOM      7  C   UNL     1       5.584   4.817  16.209  0.00  0.00    +0.000 A 
ATOM      8  C   UNL     1       6.870   4.270  16.159  0.00  0.00    +0.000 A 
ATOM      9  C   UNL     1       7.822   4.633  17.114  0.00  0.00    +0.000 A 
ATOM     10  C   UNL     1       7.496   5.550  18.111  0.00  0.00    +0.000 A 
ATOM     11  C   UNL     1       6.217   6.105  18.161  0.00  0.00    +0.000 A 
ENDBRANCH   4   6
BRANCH   3  12
ATOM     12  N   UNL     1       3.172   4.563  19.030  0.00  0.00    +0.000 NA
ATOM     13  H   UNL     1       4.207   4.653  19.099  0.00  0.00    +0.000 HD
BRANCH  12  14
ATOM     14  C   UNL     1       2.831   3.107  19.032  0.00  0.00    +0.000 C 
ATOM     15  C   UNL     1       3.405   2.285  20.234  0.00  0.00    +0.000 C 
ATOM     16  C   UNL     1       2.778   2.709  21.571  0.00  0.00    +0.000 C 
ATOM     17  C   UNL     1       1.260   2.483  21.532  0.00  0.00    +0.000 C 
ATOM     18  C   UNL     1       0.624   3.256  20.365  0.00  0.00    +0.000 C 
ATOM     19  C   UNL     1       1.291   2.875  19.025  0.00  0.00    +0.000 C 
ENDBRANCH  12  14
ENDBRANCH   3  12
BRANCH   1  20
ATOM     20  C   UNL     1       2.160   7.750  19.968  0.00  0.00    +0.000 C 
BRANCH  20  24
ATOM     21  C   UNL     1      -0.619  10.767  21.254  0.00  0.00    +0.000 A 
ATOM     22  C   UNL     1      -0.152   9.811  22.162  0.00  0.00    +0.000 A 
ATOM     23  C   UNL     1       0.746   8.829  21.742  0.00  0.00    +0.000 A 
ATOM     24  C   UNL     1       1.181   8.795  20.410  0.00  0.00    +0.000 A 
ATOM     25  C   UNL     1       0.714   9.759  19.501  0.00  0.00    +0.000 A 
ATOM     26  C   UNL     1      -0.185  10.742  19.925  0.00  0.00    +0.000 A 
ENDBRANCH  20  24
ENDBRANCH   1  20
TORSDOF 5
ENDMDL
MODEL 7
REMARK VINA RESULT:      -7.2      0.907      1.713
REMARK  Name = 
REMARK  5 active torsions:
REMARK  status: ('A' for Active; 'I' for Inactive)
REMARK    1  A    between atoms: C_4  and  C_5
REMARK    2  A    between atoms: C_5  and  N_6
REMARK    3  A    between atoms: C_8  and  N_9
REMARK    4  A    between atoms: N_9  and  C_10
REMARK    5  A    between atoms: C_16  and  C_17
REMARK                            x       y       z     vdW  Elec       q    Type
REMARK                         _______ _______ _______ _____ _____    ______ ____
ROOT
ATOM      1  N   UNL     1       5.059   4.822  17.084  0.00  0.00    +0.000 NA
ATOM      2  C   UNL     1       4.549   4.073  18.252  0.00  0.00    +0.000 C 
ATOM      3  C   UNL     1       3.386   4.872  18.863  0.00  0.00    +0.000 C 
ATOM      4  C   UNL     1       3.885   6.302  18.623  0.00  0.00    +0.000 C 
ATOM      5  C   UNL     1       4.663   6.229  17.298  0.00  0.00    +0.000 C 
ENDROOT
BRANCH   4   6
ATOM      6  C   UNL     1       2.824   7.404  18.753  0.00  0.00    +0.000 A 
ATOM      7  C   UNL     1       2.554   8.209  17.629  0.00  0.00    +0.000 A 
ATOM      8  C   UNL     1       1.631   9.257  17.701  0.00  0.00    +0.000 A 
ATOM      9  C   UNL     1       0.962   9.519  18.899  0.00  0.00    +0.000 A 
ATOM     10  C   UNL     1       1.206   8.729  20.021  0.00  0.00    +0.000 A 
ATOM     11  C   UNL     1       2.121   7.678  19.953  0.00  0.00    +0.000 A 
ENDBRANCH   4   6
BRANCH   3  12
ATOM     12  N   UNL     1       2.071   4.562  18.237  0.00  0.00    +0.000 NA
ATOM     13  H   UNL     1       1.731   5.434  17.781  0.00  0.00    +0.000 HD
BRANCH  12  14
ATOM     14  C   UNL     1       1.022   4.099  19.196  0.00  0.00    +0.000 C 
ATOM     15  C   UNL     1       0.855   2.547  19.310  0.00  0.00    +0.000 C 
ATOM     16  C   UNL     1       2.095   1.880  19.926  0.00  0.00    +0.000 C 
ATOM     17  C   UNL     1       2.336   2.430  21.339  0.00  0.00    +0.000 C 
ATOM     18  C   UNL     1       2.502   3.958  21.308  0.00  0.00    +0.000 C 
ATOM     19  C   UNL     1       1.283   4.629  20.637  0.00  0.00    +0.000 C 
ENDBRANCH  12  14
ENDBRANCH   3  12
BRANCH   1  20
ATOM     20  C   UNL     1       4.526   4.343  15.790  0.00  0.00    +0.000 C 
BRANCH  20  24
ATOM     21  C   UNL     1       7.467   4.470  12.658  0.00  0.00    +0.000 A 
ATOM     22  C   UNL     1       6.297   3.721  12.491  0.00  0.00    +0.000 A 
ATOM     23  C   UNL     1       5.346   3.677  13.511  0.00  0.00    +0.000 A 
ATOM     24  C   UNL     1       5.559   4.379  14.706  0.00  0.00    +0.000 A 
ATOM     25  C   UNL     1       6.733   5.132  14.868  0.00  0.00    +0.000 A 
ATOM     26  C   UNL     1       7.684   5.176  13.844  0.00  0.00    +0.000 A 
ENDBRANCH  20  24
ENDBRANCH   1  20
TORSDOF 5
ENDMDL
MODEL 8
REMARK VINA RESULT:      -7.0      2.281      6.835
REMARK  Name = 
REMARK  5 active torsions:
REMARK  status: ('A' for Active; 'I' for Inactive)
REMARK    1  A    between atoms: C_4  and  C_5
REMARK    2  A    between atoms: C_5  and  N_6
REMARK    3  A    between atoms: C_8  and  N_9
REMARK    4  A    between atoms: N_9  and  C_10
REMARK    5  A    between atoms: C_16  and  C_17
REMARK                            x       y       z     vdW  Elec       q    Type
REMARK                         _______ _______ _______ _____ _____    ______ ____
ROOT
ATOM      1  N   UNL     1       2.050   7.810  18.180  0.00  0.00    +0.000 NA
ATOM      2  C   UNL     1       1.461   6.469  17.981  0.00  0.00    +0.000 C 
ATOM      3  C   UNL     1       2.603   5.440  17.985  0.00  0.00    +0.000 C 
ATOM      4  C   UNL     1       3.704   6.255  17.297  0.00  0.00    +0.000 C 
ATOM      5  C   UNL     1       3.458   7.704  17.747  0.00  0.00    +0.000 C 
ENDROOT
BRANCH   4   6
ATOM      6  C   UNL     1       5.129   5.705  17.450  0.00  0.00    +0.000 A 
ATOM      7  C   UNL     1       5.641   4.877  16.432  0.00  0.00    +0.000 A 
ATOM      8  C   UNL     1       6.915   4.311  16.538  0.00  0.00    +0.000 A 
ATOM      9  C   UNL     1       7.700   4.564  17.666  0.00  0.00    +0.000 A 
ATOM     10  C   UNL     1       7.219   5.388  18.681  0.00  0.00    +0.000 A 
ATOM     11  C   UNL     1       5.951   5.961  18.576  0.00  0.00    +0.000 A 
ENDBRANCH   4   6
BRANCH   3  12
ATOM     12  N   UNL     1       2.952   4.957  19.349  0.00  0.00    +0.000 NA
ATOM     13  H   UNL     1       3.979   4.792  19.368  0.00  0.00    +0.000 HD
BRANCH  12  14
ATOM     14  C   UNL     1       2.270   3.689  19.751  0.00  0.00    +0.000 C 
ATOM     15  C   UNL     1       1.695   2.833  18.574  0.00  0.00    +0.000 C 
ATOM     16  C   UNL     1       2.808   2.266  17.679  0.00  0.00    +0.000 C 
ATOM     17  C   UNL     1       3.735   1.363  18.506  0.00  0.00    +0.000 C 
ATOM     18  C   UNL     1       4.334   2.137  19.692  0.00  0.00    +0.000 C 
ATOM     19  C   UNL     1       3.218   2.756  20.563  0.00  0.00    +0.000 C 
ENDBRANCH  12  14
ENDBRANCH   3  12
BRANCH   1  20
ATOM     20  C   UNL     1       1.991   8.286  19.579  0.00  0.00    +0.000 C 
BRANCH  20  24
ATOM     21  C   UNL     1      -1.015  11.312  20.114  0.00  0.00    +0.000 A 
ATOM     22  C   UNL     1      -0.548  11.007  18.831  0.00  0.00    +0.000 A 
ATOM     23  C   UNL     1       0.432  10.028  18.660  0.00  0.00    +0.000 A 
ATOM     24  C   UNL     1       0.953   9.350  19.771  0.00  0.00    +0.000 A 
ATOM     25  C   UNL     1       0.478   9.656  21.057  0.00  0.00    +0.000 A 
ATOM     26  C   UNL     1      -0.504  10.636  21.225  0.00  0.00    +0.000 A 
ENDBRANCH  20  24
ENDBRANCH   1  20
TORSDOF 5
ENDMDL
MODEL 9
REMARK VINA RESULT:      -7.0      2.320      6.842
REMARK  Name = 
REMARK  5 active torsions:
REMARK  status: ('A' for Active; 'I' for Inactive)
REMARK    1  A    between atoms: C_4  and  C_5
REMARK    2  A    between atoms: C_5  and  N_6
REMARK    3  A    between atoms: C_8  and  N_9
REMARK    4  A    between atoms: N_9  and  C_10
REMARK    5  A    between atoms: C_16  and  C_17
REMARK                            x       y       z     vdW  Elec       q    Type
REMARK                         _______ _______ _______ _____ _____    ______ ____
ROOT
ATOM      1  N   UNL     1       2.041   7.791  18.178  0.00  0.00    +0.000 NA
ATOM      2  C   UNL     1       1.414   6.464  17.997  0.00  0.00    +0.000 C 
ATOM      3  C   UNL     1       2.527   5.403  18.019  0.00  0.00    +0.000 C 
ATOM      4  C   UNL     1       3.652   6.176  17.322  0.00  0.00    +0.000 C 
ATOM      5  C   UNL     1       3.447   7.639  17.751  0.00  0.00    +0.000 C 
ENDROOT
BRANCH   4   6
ATOM      6  C   UNL     1       5.061   5.589  17.488  0.00  0.00    +0.000 A 
ATOM      7  C   UNL     1       5.775   5.885  18.666  0.00  0.00    +0.000 A 
ATOM      8  C   UNL     1       7.079   5.415  18.853  0.00  0.00    +0.000 A 
ATOM      9  C   UNL     1       7.691   4.641  17.865  0.00  0.00    +0.000 A 
ATOM     10  C   UNL     1       7.000   4.327  16.696  0.00  0.00    +0.000 A 
ATOM     11  C   UNL     1       5.697   4.788  16.507  0.00  0.00    +0.000 A 
ENDBRANCH   4   6
BRANCH   3  12
ATOM     12  N   UNL     1       2.858   4.930  19.391  0.00  0.00    +0.000 NA
ATOM     13  H   UNL     1       3.891   4.805  19.437  0.00  0.00    +0.000 HD
BRANCH  12  14
ATOM     14  C   UNL     1       2.215   3.637  19.774  0.00  0.00    +0.000 C 
ATOM     15  C   UNL     1       1.679   2.775  18.583  0.00  0.00    +0.000 C 
ATOM     16  C   UNL     1       2.819   2.254  17.693  0.00  0.00    +0.000 C 
ATOM     17  C   UNL     1       3.767   1.374  18.519  0.00  0.00    +0.000 C 
ATOM     18  C   UNL     1       4.329   2.154  19.719  0.00  0.00    +0.000 C 
ATOM     19  C   UNL     1       3.185   2.727  20.585  0.00  0.00    +0.000 C 
ENDBRANCH  12  14
ENDBRANCH   3  12
BRANCH   1  20
ATOM     20  C   UNL     1       1.992   8.289  19.570  0.00  0.00    +0.000 C 
BRANCH  20  24
ATOM     21  C   UNL     1      -1.011  11.315  20.125  0.00  0.00    +0.000 A 
ATOM     22  C   UNL     1      -0.482  10.640  21.231  0.00  0.00    +0.000 A 
ATOM     23  C   UNL     1       0.488   9.654  21.049  0.00  0.00    +0.000 A 
ATOM     24  C   UNL     1       0.935   9.335  19.759  0.00  0.00    +0.000 A 
ATOM     25  C   UNL     1       0.406  10.018  18.651  0.00  0.00    +0.000 A 
ATOM     26  C   UNL     1      -0.565  11.006  18.837  0.00  0.00    +0.000 A 
ENDBRANCH  20  24
ENDBRANCH   1  20
TORSDOF 5
ENDMDL
