MODEL 1
REMARK VINA RESULT:      -8.0      0.000      0.000
REMARK  Name = 
REMARK  13 active torsions:
REMARK  status: ('A' for Active; 'I' for Inactive)
REMARK    1  A    between atoms: C_1  and  C_2
REMARK    2  A    between atoms: C_2  and  C_3
REMARK    3  A    between atoms: C_2  and  C_4
REMARK    4  A    between atoms: C_4  and  C_5
REMARK    5  A    between atoms: C_4  and  N_15
REMARK    6  A    between atoms: N_7  and  C_8
REMARK    7  A    between atoms: C_8  and  C_9
REMARK    8  A    between atoms: N_15  and  C_16
REMARK    9  A    between atoms: C_16  and  C_17
REMARK   10  A    between atoms: C_22  and  C_24
REMARK   11  A    between atoms: C_24  and  N_25
REMARK   12  A    between atoms: N_25  and  S_26
REMARK   13  A    between atoms: S_26  and  C_29
REMARK                            x       y       z     vdW  Elec       q    Type
REMARK                         _______ _______ _______ _____ _____    ______ ____
ROOT
ATOM      1  N   UNL     1       3.026   6.224  18.895  0.00  0.00    +0.000 N 
ATOM      2  C   UNL     1       3.054   7.348  18.048  0.00  0.00    +0.000 C 
ATOM      3  O   UNL     1       3.535   7.272  16.911  0.00  0.00    +0.000 OA
ENDROOT
BRANCH   1   4
ATOM      4  C   UNL     1       3.717   4.974  18.422  0.00  0.00    +0.000 C 
BRANCH   4   5
ATOM      5  C   UNL     1       5.166   5.242  17.982  0.00  0.00    +0.000 C 
ATOM      6  O   UNL     1       6.046   5.616  18.752  0.00  0.00    +0.000 OA
ATOM      7  N   UNL     1       5.397   4.985  16.654  0.00  0.00    +0.000 N 
ATOM      8  H   UNL     1       4.705   4.463  16.127  0.00  0.00    +0.000 HD
BRANCH   7   9
ATOM      9  C   UNL     1       6.722   5.151  16.086  0.00  0.00    +0.000 C 
BRANCH   9  10
ATOM     10  C   UNL     1       6.803   4.833  14.615  0.00  0.00    +0.000 A 
ATOM     11  C   UNL     1       7.735   5.450  13.765  0.00  0.00    +0.000 A 
ATOM     12  C   UNL     1       7.807   5.095  12.414  0.00  0.00    +0.000 A 
ATOM     13  C   UNL     1       6.964   4.109  11.905  0.00  0.00    +0.000 A 
ATOM     14  C   UNL     1       6.057   3.467  12.742  0.00  0.00    +0.000 A 
ATOM     15  C   UNL     1       5.981   3.824  14.092  0.00  0.00    +0.000 A 
ENDBRANCH   9  10
ENDBRANCH   7   9
ENDBRANCH   4   5
BRANCH   4  17
ATOM     16  C   UNL     1       2.906   2.494  17.800  0.00  0.00    +0.000 C 
ATOM     17  C   UNL     1       2.934   3.994  17.477  0.00  0.00    +0.000 C 
ATOM     18  C   UNL     1       1.454   4.438  17.377  0.00  0.00    +0.000 C 
ENDBRANCH   4  17
ENDBRANCH   1   4
BRANCH   1  19
ATOM     19  C   UNL     1       2.283   6.234  20.163  0.00  0.00    +0.000 C 
BRANCH  19  20
ATOM     20  C   UNL     1       1.969   4.917  20.905  0.00  0.00    +0.000 C 
ATOM     21  C   UNL     1       3.070   3.899  21.088  0.00  0.00    +0.000 C 
ATOM     22  C   UNL     1       2.290   2.767  21.723  0.00  0.00    +0.000 C 
ATOM     23  C   UNL     1       0.935   2.861  21.033  0.00  0.00    +0.000 C 
ATOM     24  O   UNL     1       0.902   4.134  20.352  0.00  0.00    +0.000 OA
ENDBRANCH  19  20
ENDBRANCH   1  19
BRANCH   2  25
ATOM     25  C   UNL     1       2.522   8.696  18.571  0.00  0.00    +0.000 C 
BRANCH  25  26
ATOM     26  N   UNL     1       1.060   8.790  18.454  0.00  0.00    +0.000 NA
ATOM     27  H   UNL     1       0.514   8.034  18.871  0.00  0.00    +0.000 HD
BRANCH  26  28
ATOM     28  S   UNL     1       0.364  10.297  18.693  0.00  0.00    +0.000 S 
ATOM     29  O   UNL     1       1.421  11.272  18.538  0.00  0.00    +0.000 OA
ATOM     30  O   UNL     1      -0.857  10.366  17.920  0.00  0.00    +0.000 OA
BRANCH  28  31
ATOM     31  C   UNL     1      -0.063  10.253  20.413  0.00  0.00    +0.000 A 
ATOM     32  C   UNL     1      -0.590  11.399  21.014  0.00  0.00    +0.000 A 
ATOM     33  C   UNL     1      -0.928  11.369  22.366  0.00  0.00    +0.000 A 
ATOM     34  C   UNL     1      -0.745  10.199  23.107  0.00  0.00    +0.000 A 
ATOM     35  C   UNL     1      -0.229   9.053  22.499  0.00  0.00    +0.000 A 
ATOM     36  C   UNL     1       0.114   9.075  21.147  0.00  0.00    +0.000 A 
ENDBRANCH  28  31
ENDBRANCH  26  28
ENDBRANCH  25  26
ENDBRANCH   2  25
TORSDOF 11
ENDMDL
MODEL 2
REMARK VINA RESULT:      -7.8      3.899     10.043
REMARK  Name = 
REMARK  13 active torsions:
REMARK  status: ('A' for Active; 'I' for Inactive)
REMARK    1  A    between atoms: C_1  and  C_2
REMARK    2  A    between atoms: C_2  and  C_3
REMARK    3  A    between atoms: C_2  and  C_4
REMARK    4  A    between atoms: C_4  and  C_5
REMARK    5  A    between atoms: C_4  and  N_15
REMARK    6  A    between atoms: N_7  and  C_8
REMARK    7  A    between atoms: C_8  and  C_9
REMARK    8  A    between atoms: N_15  and  C_16
REMARK    9  A    between atoms: C_16  and  C_17
REMARK   10  A    between atoms: C_22  and  C_24
REMARK   11  A    between atoms: C_24  and  N_25
REMARK   12  A    between atoms: N_25  and  S_26
REMARK   13  A    between atoms: S_26  and  C_29
REMARK                            x       y       z     vdW  Elec       q    Type
REMARK                         _______ _______ _______ _____ _____    ______ ____
ROOT
ATOM      1  N   UNL     1       0.763  10.530  19.720  0.00  0.00    +0.000 N 
ATOM      2  C   UNL     1       1.044   9.626  20.762  0.00  0.00    +0.000 C 
ATOM      3  O   UNL     1       1.431  10.031  21.865  0.00  0.00    +0.000 OA
ENDROOT
BRANCH   1   4
ATOM      4  C   UNL     1       1.075  11.983  19.952  0.00  0.00    +0.000 C 
BRANCH   4   5
ATOM      5  C   UNL     1       0.383  12.533  21.211  0.00  0.00    +0.000 C 
ATOM      6  O   UNL     1       0.853  13.434  21.900  0.00  0.00    +0.000 OA
ATOM      7  N   UNL     1      -0.832  11.951  21.472  0.00  0.00    +0.000 N 
ATOM      8  H   UNL     1      -1.272  11.388  20.752  0.00  0.00    +0.000 HD
BRANCH   7   9
ATOM      9  C   UNL     1      -1.633  12.381  22.603  0.00  0.00    +0.000 C 
BRANCH   9  10
ATOM     10  C   UNL     1      -2.962  12.981  22.221  0.00  0.00    +0.000 A 
ATOM     11  C   UNL     1      -3.129  13.759  21.064  0.00  0.00    +0.000 A 
ATOM     12  C   UNL     1      -4.388  14.261  20.722  0.00  0.00    +0.000 A 
ATOM     13  C   UNL     1      -5.495  13.975  21.519  0.00  0.00    +0.000 A 
ATOM     14  C   UNL     1      -5.350  13.179  22.652  0.00  0.00    +0.000 A 
ATOM     15  C   UNL     1      -4.091  12.681  22.997  0.00  0.00    +0.000 A 
ENDBRANCH   9  10
ENDBRANCH   7   9
ENDBRANCH   4   5
BRANCH   4  17
ATOM     16  C   UNL     1      -0.004  14.085  18.683  0.00  0.00    +0.000 C 
ATOM     17  C   UNL     1       1.042  12.964  18.726  0.00  0.00    +0.000 C 
ATOM     18  C   UNL     1       2.419  13.657  18.577  0.00  0.00    +0.000 C 
ENDBRANCH   4  17
ENDBRANCH   1   4
BRANCH   1  19
ATOM     19  C   UNL     1       0.112  10.093  18.477  0.00  0.00    +0.000 C 
BRANCH  19  20
ATOM     20  C   UNL     1      -1.423  10.145  18.329  0.00  0.00    +0.000 C 
ATOM     21  C   UNL     1      -2.037   9.928  16.966  0.00  0.00    +0.000 C 
ATOM     22  C   UNL     1      -3.495  10.194  17.278  0.00  0.00    +0.000 C 
ATOM     23  C   UNL     1      -3.421  11.297  18.326  0.00  0.00    +0.000 C 
ATOM     24  O   UNL     1      -2.047  11.360  18.767  0.00  0.00    +0.000 OA
ENDBRANCH  19  20
ENDBRANCH   1  19
BRANCH   2  25
ATOM     25  C   UNL     1       0.913   8.114  20.500  0.00  0.00    +0.000 C 
BRANCH  25  26
ATOM     26  N   UNL     1       2.212   7.430  20.572  0.00  0.00    +0.000 NA
ATOM     27  H   UNL     1       2.414   6.913  21.428  0.00  0.00    +0.000 HD
BRANCH  26  28
ATOM     28  S   UNL     1       2.738   6.631  19.194  0.00  0.00    +0.000 S 
ATOM     29  O   UNL     1       2.090   7.270  18.070  0.00  0.00    +0.000 OA
ATOM     30  O   UNL     1       4.176   6.490  19.267  0.00  0.00    +0.000 OA
BRANCH  28  31
ATOM     31  C   UNL     1       2.007   5.026  19.381  0.00  0.00    +0.000 A 
ATOM     32  C   UNL     1       1.728   4.550  20.664  0.00  0.00    +0.000 A 
ATOM     33  C   UNL     1       1.152   3.290  20.816  0.00  0.00    +0.000 A 
ATOM     34  C   UNL     1       0.853   2.517  19.691  0.00  0.00    +0.000 A 
ATOM     35  C   UNL     1       1.123   3.003  18.411  0.00  0.00    +0.000 A 
ATOM     36  C   UNL     1       1.700   4.263  18.250  0.00  0.00    +0.000 A 
ENDBRANCH  28  31
ENDBRANCH  26  28
ENDBRANCH  25  26
ENDBRANCH   2  25
TORSDOF 11
ENDMDL
MODEL 3
REMARK VINA RESULT:      -7.8      1.784      5.321
REMARK  Name = 
REMARK  13 active torsions:
REMARK  status: ('A' for Active; 'I' for Inactive)
REMARK    1  A    between atoms: C_1  and  C_2
REMARK    2  A    between atoms: C_2  and  C_3
REMARK    3  A    between atoms: C_2  and  C_4
REMARK    4  A    between atoms: C_4  and  C_5
REMARK    5  A    between atoms: C_4  and  N_15
REMARK    6  A    between atoms: N_7  and  C_8
REMARK    7  A    between atoms: C_8  and  C_9
REMARK    8  A    between atoms: N_15  and  C_16
REMARK    9  A    between atoms: C_16  and  C_17
REMARK   10  A    between atoms: C_22  and  C_24
REMARK   11  A    between atoms: C_24  and  N_25
REMARK   12  A    between atoms: N_25  and  S_26
REMARK   13  A    between atoms: S_26  and  C_29
REMARK                            x       y       z     vdW  Elec       q    Type
REMARK                         _______ _______ _______ _____ _____    ______ ____
ROOT
ATOM      1  N   UNL     1       4.502   6.503  16.817  0.00  0.00    +0.000 N 
ATOM      2  C   UNL     1       3.306   6.771  17.508  0.00  0.00    +0.000 C 
ATOM      3  O   UNL     1       2.502   5.865  17.756  0.00  0.00    +0.000 OA
ENDROOT
BRANCH   1   4
ATOM      4  C   UNL     1       4.702   5.113  16.277  0.00  0.00    +0.000 C 
BRANCH   4   5
ATOM      5  C   UNL     1       4.650   4.047  17.384  0.00  0.00    +0.000 C 
ATOM      6  O   UNL     1       5.318   4.109  18.412  0.00  0.00    +0.000 OA
ATOM      7  N   UNL     1       3.754   3.038  17.137  0.00  0.00    +0.000 N 
ATOM      8  H   UNL     1       3.070   3.157  16.396  0.00  0.00    +0.000 HD
BRANCH   7   9
ATOM      9  C   UNL     1       3.555   1.970  18.099  0.00  0.00    +0.000 C 
BRANCH   9  10
ATOM     10  C   UNL     1       2.732   2.369  19.297  0.00  0.00    +0.000 A 
ATOM     11  C   UNL     1       1.367   2.685  19.198  0.00  0.00    +0.000 A 
ATOM     12  C   UNL     1       0.629   3.008  20.340  0.00  0.00    +0.000 A 
ATOM     13  C   UNL     1       1.239   2.999  21.593  0.00  0.00    +0.000 A 
ATOM     14  C   UNL     1       2.583   2.658  21.711  0.00  0.00    +0.000 A 
ATOM     15  C   UNL     1       3.323   2.339  20.568  0.00  0.00    +0.000 A 
ENDBRANCH   9  10
ENDBRANCH   7   9
ENDBRANCH   4   5
BRANCH   4  17
ATOM     16  C   UNL     1       7.137   4.188  15.638  0.00  0.00    +0.000 C 
ATOM     17  C   UNL     1       5.833   4.875  15.213  0.00  0.00    +0.000 C 
ATOM     18  C   UNL     1       5.272   4.040  14.036  0.00  0.00    +0.000 C 
ENDBRANCH   4  17
ENDBRANCH   1   4
BRANCH   1  19
ATOM     19  C   UNL     1       5.561   7.515  16.690  0.00  0.00    +0.000 C 
BRANCH  19  20
ATOM     20  C   UNL     1       6.639   7.670  17.784  0.00  0.00    +0.000 C 
ATOM     21  C   UNL     1       7.812   8.588  17.532  0.00  0.00    +0.000 C 
ATOM     22  C   UNL     1       8.636   8.323  18.775  0.00  0.00    +0.000 C 
ATOM     23  C   UNL     1       8.389   6.842  19.035  0.00  0.00    +0.000 C 
ATOM     24  O   UNL     1       7.272   6.455  18.206  0.00  0.00    +0.000 OA
ENDBRANCH  19  20
ENDBRANCH   1  19
BRANCH   2  25
ATOM     25  C   UNL     1       2.982   8.221  17.915  0.00  0.00    +0.000 C 
BRANCH  25  26
ATOM     26  N   UNL     1       1.718   8.312  18.659  0.00  0.00    +0.000 NA
ATOM     27  H   UNL     1       1.690   7.864  19.576  0.00  0.00    +0.000 HD
BRANCH  26  28
ATOM     28  S   UNL     1       0.913   9.783  18.632  0.00  0.00    +0.000 S 
ATOM     29  O   UNL     1       1.917  10.803  18.418  0.00  0.00    +0.000 OA
ATOM     30  O   UNL     1      -0.242   9.658  17.770  0.00  0.00    +0.000 OA
BRANCH  28  31
ATOM     31  C   UNL     1       0.350   9.942  20.306  0.00  0.00    +0.000 A 
ATOM     32  C   UNL     1      -0.278  11.124  20.704  0.00  0.00    +0.000 A 
ATOM     33  C   UNL     1      -0.723  11.254  22.019  0.00  0.00    +0.000 A 
ATOM     34  C   UNL     1      -0.545  10.204  22.923  0.00  0.00    +0.000 A 
ATOM     35  C   UNL     1       0.072   9.020  22.517  0.00  0.00    +0.000 A 
ATOM     36  C   UNL     1       0.522   8.884  21.204  0.00  0.00    +0.000 A 
ENDBRANCH  28  31
ENDBRANCH  26  28
ENDBRANCH  25  26
ENDBRANCH   2  25
TORSDOF 11
ENDMDL
MODEL 4
REMARK VINA RESULT:      -7.7      1.598      2.326
REMARK  Name = 
REMARK  13 active torsions:
REMARK  status: ('A' for Active; 'I' for Inactive)
REMARK    1  A    between atoms: C_1  and  C_2
REMARK    2  A    between atoms: C_2  and  C_3
REMARK    3  A    between atoms: C_2  and  C_4
REMARK    4  A    between atoms: C_4  and  C_5
REMARK    5  A    between atoms: C_4  and  N_15
REMARK    6  A    between atoms: N_7  and  C_8
REMARK    7  A    between atoms: C_8  and  C_9
REMARK    8  A    between atoms: N_15  and  C_16
REMARK    9  A    between atoms: C_16  and  C_17
REMARK   10  A    between atoms: C_22  and  C_24
REMARK   11  A    between atoms: C_24  and  N_25
REMARK   12  A    between atoms: N_25  and  S_26
REMARK   13  A    between atoms: S_26  and  C_29
REMARK                            x       y       z     vdW  Elec       q    Type
REMARK                         _______ _______ _______ _____ _____    ______ ____
ROOT
ATOM      1  N   UNL     1       2.853   6.104  19.211  0.00  0.00    +0.000 N 
ATOM      2  C   UNL     1       2.550   7.269  18.482  0.00  0.00    +0.000 C 
ATOM      3  O   UNL     1       2.764   7.329  17.266  0.00  0.00    +0.000 OA
ENDROOT
BRANCH   1   4
ATOM      4  C   UNL     1       3.564   4.992  18.488  0.00  0.00    +0.000 C 
BRANCH   4   5
ATOM      5  C   UNL     1       4.931   5.437  17.940  0.00  0.00    +0.000 C 
ATOM      6  O   UNL     1       5.833   5.872  18.651  0.00  0.00    +0.000 OA
ATOM      7  N   UNL     1       5.066   5.264  16.586  0.00  0.00    +0.000 N 
ATOM      8  H   UNL     1       4.388   4.692  16.093  0.00  0.00    +0.000 HD
BRANCH   7   9
ATOM      9  C   UNL     1       6.308   5.599  15.915  0.00  0.00    +0.000 C 
BRANCH   9  10
ATOM     10  C   UNL     1       6.475   4.943  14.569  0.00  0.00    +0.000 A 
ATOM     11  C   UNL     1       5.537   4.033  14.057  0.00  0.00    +0.000 A 
ATOM     12  C   UNL     1       5.707   3.479  12.784  0.00  0.00    +0.000 A 
ATOM     13  C   UNL     1       6.802   3.844  12.004  0.00  0.00    +0.000 A 
ATOM     14  C   UNL     1       7.724   4.769  12.485  0.00  0.00    +0.000 A 
ATOM     15  C   UNL     1       7.557   5.320  13.759  0.00  0.00    +0.000 A 
ENDBRANCH   9  10
ENDBRANCH   7   9
ENDBRANCH   4   5
BRANCH   4  17
ATOM     16  C   UNL     1       2.805   2.565  17.638  0.00  0.00    +0.000 C 
ATOM     17  C   UNL     1       2.742   4.091  17.498  0.00  0.00    +0.000 C 
ATOM     18  C   UNL     1       1.242   4.467  17.576  0.00  0.00    +0.000 C 
ENDBRANCH   4  17
ENDBRANCH   1   4
BRANCH   1  19
ATOM     19  C   UNL     1       2.423   5.935  20.606  0.00  0.00    +0.000 C 
BRANCH  19  20
ATOM     20  C   UNL     1       2.007   4.548  21.141  0.00  0.00    +0.000 C 
ATOM     21  C   UNL     1       3.032   3.439  21.179  0.00  0.00    +0.000 C 
ATOM     22  C   UNL     1       2.164   2.283  21.632  0.00  0.00    +0.000 C 
ATOM     23  C   UNL     1       0.832   2.573  20.954  0.00  0.00    +0.000 C 
ATOM     24  O   UNL     1       0.899   3.932  20.470  0.00  0.00    +0.000 OA
ENDBRANCH  19  20
ENDBRANCH   1  19
BRANCH   2  25
ATOM     25  C   UNL     1       1.990   8.496  19.227  0.00  0.00    +0.000 C 
BRANCH  25  26
ATOM     26  N   UNL     1       1.332   9.439  18.312  0.00  0.00    +0.000 NA
ATOM     27  H   UNL     1       0.733   9.038  17.589  0.00  0.00    +0.000 HD
BRANCH  26  28
ATOM     28  S   UNL     1       0.691  10.838  18.979  0.00  0.00    +0.000 S 
ATOM     29  O   UNL     1       0.658  10.639  20.411  0.00  0.00    +0.000 OA
ATOM     30  O   UNL     1       1.356  11.976  18.383  0.00  0.00    +0.000 OA
BRANCH  28  31
ATOM     31  C   UNL     1      -0.986  10.804  18.404  0.00  0.00    +0.000 A 
ATOM     32  C   UNL     1      -1.338   9.914  17.386  0.00  0.00    +0.000 A 
ATOM     33  C   UNL     1      -2.655   9.882  16.930  0.00  0.00    +0.000 A 
ATOM     34  C   UNL     1      -3.611  10.730  17.496  0.00  0.00    +0.000 A 
ATOM     35  C   UNL     1      -3.256  11.608  18.521  0.00  0.00    +0.000 A 
ATOM     36  C   UNL     1      -1.940  11.648  18.981  0.00  0.00    +0.000 A 
ENDBRANCH  28  31
ENDBRANCH  26  28
ENDBRANCH  25  26
ENDBRANCH   2  25
TORSDOF 11
ENDMDL
MODEL 5
REMARK VINA RESULT:      -7.7      3.576      8.438
REMARK  Name = 
REMARK  13 active torsions:
REMARK  status: ('A' for Active; 'I' for Inactive)
REMARK    1  A    between atoms: C_1  and  C_2
REMARK    2  A    between atoms: C_2  and  C_3
REMARK    3  A    between atoms: C_2  and  C_4
REMARK    4  A    between atoms: C_4  and  C_5
REMARK    5  A    between atoms: C_4  and  N_15
REMARK    6  A    between atoms: N_7  and  C_8
REMARK    7  A    between atoms: C_8  and  C_9
REMARK    8  A    between atoms: N_15  and  C_16
REMARK    9  A    between atoms: C_16  and  C_17
REMARK   10  A    between atoms: C_22  and  C_24
REMARK   11  A    between atoms: C_24  and  N_25
REMARK   12  A    between atoms: N_25  and  S_26
REMARK   13  A    between atoms: S_26  and  C_29
REMARK                            x       y       z     vdW  Elec       q    Type
REMARK                         _______ _______ _______ _____ _____    ______ ____
ROOT
ATOM      1  N   UNL     1       1.011   9.330  18.819  0.00  0.00    +0.000 N 
ATOM      2  C   UNL     1       2.109   8.748  18.159  0.00  0.00    +0.000 C 
ATOM      3  O   UNL     1       2.745   9.381  17.308  0.00  0.00    +0.000 OA
ENDROOT
BRANCH   1   4
ATOM      4  C   UNL     1       0.560  10.690  18.361  0.00  0.00    +0.000 C 
BRANCH   4   5
ATOM      5  C   UNL     1       1.441  11.816  18.930  0.00  0.00    +0.000 C 
ATOM      6  O   UNL     1       1.476  12.108  20.122  0.00  0.00    +0.000 OA
ATOM      7  N   UNL     1       2.217  12.440  17.986  0.00  0.00    +0.000 N 
ATOM      8  H   UNL     1       2.321  12.010  17.073  0.00  0.00    +0.000 HD
BRANCH   7   9
ATOM      9  C   UNL     1       3.133  13.500  18.362  0.00  0.00    +0.000 C 
BRANCH   9  10
ATOM     10  C   UNL     1       2.600  14.888  18.117  0.00  0.00    +0.000 A 
ATOM     11  C   UNL     1       1.458  15.380  18.770  0.00  0.00    +0.000 A 
ATOM     12  C   UNL     1       1.021  16.689  18.548  0.00  0.00    +0.000 A 
ATOM     13  C   UNL     1       1.729  17.525  17.688  0.00  0.00    +0.000 A 
ATOM     14  C   UNL     1       2.881  17.063  17.057  0.00  0.00    +0.000 A 
ATOM     15  C   UNL     1       3.316  15.753  17.276  0.00  0.00    +0.000 A 
ENDBRANCH   9  10
ENDBRANCH   7   9
ENDBRANCH   4   5
BRANCH   4  17
ATOM     16  C   UNL     1      -1.446  12.454  18.114  0.00  0.00    +0.000 C 
ATOM     17  C   UNL     1      -0.977  11.015  18.369  0.00  0.00    +0.000 C 
ATOM     18  C   UNL     1      -1.699  10.136  17.319  0.00  0.00    +0.000 C 
ENDBRANCH   4  17
ENDBRANCH   1   4
BRANCH   1  19
ATOM     19  C   UNL     1       0.371   8.677  19.970  0.00  0.00    +0.000 C 
BRANCH  19  20
ATOM     20  C   UNL     1       0.273   9.397  21.332  0.00  0.00    +0.000 C 
ATOM     21  C   UNL     1       0.132   8.572  22.589  0.00  0.00    +0.000 C 
ATOM     22  C   UNL     1      -0.054   9.670  23.616  0.00  0.00    +0.000 C 
ATOM     23  C   UNL     1      -0.853  10.717  22.850  0.00  0.00    +0.000 C 
ATOM     24  O   UNL     1      -0.793  10.348  21.455  0.00  0.00    +0.000 OA
ENDBRANCH  19  20
ENDBRANCH   1  19
BRANCH   2  25
ATOM     25  C   UNL     1       2.485   7.287  18.471  0.00  0.00    +0.000 C 
BRANCH  25  26
ATOM     26  N   UNL     1       3.717   6.879  17.780  0.00  0.00    +0.000 NA
ATOM     27  H   UNL     1       4.442   7.589  17.672  0.00  0.00    +0.000 HD
BRANCH  26  28
ATOM     28  S   UNL     1       4.342   5.367  18.151  0.00  0.00    +0.000 S 
ATOM     29  O   UNL     1       4.590   4.699  16.893  0.00  0.00    +0.000 OA
ATOM     30  O   UNL     1       5.380   5.533  19.145  0.00  0.00    +0.000 OA
BRANCH  28  31
ATOM     31  C   UNL     1       2.960   4.558  18.913  0.00  0.00    +0.000 A 
ATOM     32  C   UNL     1       2.108   3.780  18.125  0.00  0.00    +0.000 A 
ATOM     33  C   UNL     1       1.020   3.142  18.719  0.00  0.00    +0.000 A 
ATOM     34  C   UNL     1       0.793   3.277  20.091  0.00  0.00    +0.000 A 
ATOM     35  C   UNL     1       1.655   4.046  20.875  0.00  0.00    +0.000 A 
ATOM     36  C   UNL     1       2.744   4.690  20.288  0.00  0.00    +0.000 A 
ENDBRANCH  28  31
ENDBRANCH  26  28
ENDBRANCH  25  26
ENDBRANCH   2  25
TORSDOF 11
ENDMDL
MODEL 6
REMARK VINA RESULT:      -7.7      2.101      3.060
REMARK  Name = 
REMARK  13 active torsions:
REMARK  status: ('A' for Active; 'I' for Inactive)
REMARK    1  A    between atoms: C_1  and  C_2
REMARK    2  A    between atoms: C_2  and  C_3
REMARK    3  A    between atoms: C_2  and  C_4
REMARK    4  A    between atoms: C_4  and  C_5
REMARK    5  A    between atoms: C_4  and  N_15
REMARK    6  A    between atoms: N_7  and  C_8
REMARK    7  A    between atoms: C_8  and  C_9
REMARK    8  A    between atoms: N_15  and  C_16
REMARK    9  A    between atoms: C_16  and  C_17
REMARK   10  A    between atoms: C_22  and  C_24
REMARK   11  A    between atoms: C_24  and  N_25
REMARK   12  A    between atoms: N_25  and  S_26
REMARK   13  A    between atoms: S_26  and  C_29
REMARK                            x       y       z     vdW  Elec       q    Type
REMARK                         _______ _______ _______ _____ _____    ______ ____
ROOT
ATOM      1  N   UNL     1       3.233   6.640  19.069  0.00  0.00    +0.000 N 
ATOM      2  C   UNL     1       2.636   7.739  18.424  0.00  0.00    +0.000 C 
ATOM      3  O   UNL     1       3.003   8.087  17.296  0.00  0.00    +0.000 OA
ENDROOT
BRANCH   1   4
ATOM      4  C   UNL     1       4.413   5.992  18.398  0.00  0.00    +0.000 C 
BRANCH   4   5
ATOM      5  C   UNL     1       3.988   5.025  17.280  0.00  0.00    +0.000 C 
ATOM      6  O   UNL     1       2.854   4.564  17.183  0.00  0.00    +0.000 OA
ATOM      7  N   UNL     1       4.983   4.755  16.375  0.00  0.00    +0.000 N 
ATOM      8  H   UNL     1       5.815   5.337  16.371  0.00  0.00    +0.000 HD
BRANCH   7   9
ATOM      9  C   UNL     1       4.736   3.890  15.237  0.00  0.00    +0.000 C 
BRANCH   9  10
ATOM     10  C   UNL     1       5.728   4.054  14.114  0.00  0.00    +0.000 A 
ATOM     11  C   UNL     1       5.563   3.425  12.869  0.00  0.00    +0.000 A 
ATOM     12  C   UNL     1       6.484   3.639  11.839  0.00  0.00    +0.000 A 
ATOM     13  C   UNL     1       7.565   4.495  12.034  0.00  0.00    +0.000 A 
ATOM     14  C   UNL     1       7.724   5.150  13.252  0.00  0.00    +0.000 A 
ATOM     15  C   UNL     1       6.807   4.935  14.284  0.00  0.00    +0.000 A 
ENDBRANCH   9  10
ENDBRANCH   7   9
ENDBRANCH   4   5
BRANCH   4  17
ATOM     16  C   UNL     1       5.731   3.946  19.527  0.00  0.00    +0.000 C 
ATOM     17  C   UNL     1       5.587   5.456  19.294  0.00  0.00    +0.000 C 
ATOM     18  C   UNL     1       6.942   5.932  18.716  0.00  0.00    +0.000 C 
ENDBRANCH   4  17
ENDBRANCH   1   4
BRANCH   1  19
ATOM     19  C   UNL     1       2.681   6.085  20.313  0.00  0.00    +0.000 C 
BRANCH  19  20
ATOM     20  C   UNL     1       2.311   4.589  20.414  0.00  0.00    +0.000 C 
ATOM     21  C   UNL     1       0.960   4.132  19.917  0.00  0.00    +0.000 C 
ATOM     22  C   UNL     1       0.997   2.675  20.329  0.00  0.00    +0.000 C 
ATOM     23  C   UNL     1       1.769   2.715  21.642  0.00  0.00    +0.000 C 
ATOM     24  O   UNL     1       2.372   4.024  21.731  0.00  0.00    +0.000 OA
ENDBRANCH  19  20
ENDBRANCH   1  19
BRANCH   2  25
ATOM     25  C   UNL     1       1.548   8.542  19.161  0.00  0.00    +0.000 C 
BRANCH  25  26
ATOM     26  N   UNL     1       0.817   9.437  18.252  0.00  0.00    +0.000 NA
ATOM     27  H   UNL     1       0.260   8.995  17.520  0.00  0.00    +0.000 HD
BRANCH  26  28
ATOM     28  S   UNL     1       0.054  10.767  18.932  0.00  0.00    +0.000 S 
ATOM     29  O   UNL     1      -0.183  10.446  20.322  0.00  0.00    +0.000 OA
ATOM     30  O   UNL     1       0.771  11.959  18.535  0.00  0.00    +0.000 OA
BRANCH  28  31
ATOM     31  C   UNL     1      -1.521  10.763  18.115  0.00  0.00    +0.000 A 
ATOM     32  C   UNL     1      -1.724   9.903  17.033  0.00  0.00    +0.000 A 
ATOM     33  C   UNL     1      -2.960   9.895  16.388  0.00  0.00    +0.000 A 
ATOM     34  C   UNL     1      -3.984  10.737  16.829  0.00  0.00    +0.000 A 
ATOM     35  C   UNL     1      -3.779  11.585  17.919  0.00  0.00    +0.000 A 
ATOM     36  C   UNL     1      -2.545  11.600  18.568  0.00  0.00    +0.000 A 
ENDBRANCH  28  31
ENDBRANCH  26  28
ENDBRANCH  25  26
ENDBRANCH   2  25
TORSDOF 11
ENDMDL
MODEL 7
REMARK VINA RESULT:      -7.6      3.894      6.851
REMARK  Name = 
REMARK  13 active torsions:
REMARK  status: ('A' for Active; 'I' for Inactive)
REMARK    1  A    between atoms: C_1  and  C_2
REMARK    2  A    between atoms: C_2  and  C_3
REMARK    3  A    between atoms: C_2  and  C_4
REMARK    4  A    between atoms: C_4  and  C_5
REMARK    5  A    between atoms: C_4  and  N_15
REMARK    6  A    between atoms: N_7  and  C_8
REMARK    7  A    between atoms: C_8  and  C_9
REMARK    8  A    between atoms: N_15  and  C_16
REMARK    9  A    between atoms: C_16  and  C_17
REMARK   10  A    between atoms: C_22  and  C_24
REMARK   11  A    between atoms: C_24  and  N_25
REMARK   12  A    between atoms: N_25  and  S_26
REMARK   13  A    between atoms: S_26  and  C_29
REMARK                            x       y       z     vdW  Elec       q    Type
REMARK                         _______ _______ _______ _____ _____    ______ ____
ROOT
ATOM      1  N   UNL     1       0.218  11.151  19.896  0.00  0.00    +0.000 N 
ATOM      2  C   UNL     1       0.928  12.313  19.540  0.00  0.00    +0.000 C 
ATOM      3  O   UNL     1       2.165  12.326  19.547  0.00  0.00    +0.000 OA
ENDROOT
BRANCH   1   4
ATOM      4  C   UNL     1       1.008   9.978  20.410  0.00  0.00    +0.000 C 
BRANCH   4   5
ATOM      5  C   UNL     1       1.410   9.011  19.284  0.00  0.00    +0.000 C 
ATOM      6  O   UNL     1       1.186   9.228  18.096  0.00  0.00    +0.000 OA
ATOM      7  N   UNL     1       2.082   7.899  19.725  0.00  0.00    +0.000 N 
ATOM      8  H   UNL     1       2.441   7.885  20.674  0.00  0.00    +0.000 HD
BRANCH   7   9
ATOM      9  C   UNL     1       2.565   6.903  18.787  0.00  0.00    +0.000 C 
BRANCH   9  10
ATOM     10  C   UNL     1       2.067   5.508  19.062  0.00  0.00    +0.000 A 
ATOM     11  C   UNL     1       1.642   5.101  20.337  0.00  0.00    +0.000 A 
ATOM     12  C   UNL     1       1.146   3.810  20.542  0.00  0.00    +0.000 A 
ATOM     13  C   UNL     1       1.050   2.921  19.474  0.00  0.00    +0.000 A 
ATOM     14  C   UNL     1       1.438   3.319  18.198  0.00  0.00    +0.000 A 
ATOM     15  C   UNL     1       1.939   4.608  17.993  0.00  0.00    +0.000 A 
ENDBRANCH   9  10
ENDBRANCH   7   9
ENDBRANCH   4   5
BRANCH   4  17
ATOM     16  C   UNL     1      -0.014  10.108  22.886  0.00  0.00    +0.000 C 
ATOM     17  C   UNL     1       0.527   9.265  21.724  0.00  0.00    +0.000 C 
ATOM     18  C   UNL     1      -0.583   8.241  21.384  0.00  0.00    +0.000 C 
ENDBRANCH   4  17
ENDBRANCH   1   4
BRANCH   1  19
ATOM     19  C   UNL     1      -1.235  11.048  19.701  0.00  0.00    +0.000 C 
BRANCH  19  20
ATOM     20  C   UNL     1      -1.843  11.048  18.282  0.00  0.00    +0.000 C 
ATOM     21  C   UNL     1      -3.279  11.480  18.100  0.00  0.00    +0.000 C 
ATOM     22  C   UNL     1      -3.462  11.199  16.623  0.00  0.00    +0.000 C 
ATOM     23  C   UNL     1      -2.617   9.950  16.409  0.00  0.00    +0.000 C 
ATOM     24  O   UNL     1      -1.799   9.794  17.589  0.00  0.00    +0.000 OA
ENDBRANCH  19  20
ENDBRANCH   1  19
BRANCH   2  25
ATOM     25  C   UNL     1       0.147  13.593  19.186  0.00  0.00    +0.000 C 
BRANCH  25  26
ATOM     26  N   UNL     1       0.534  14.725  20.040  0.00  0.00    +0.000 NA
ATOM     27  H   UNL     1       1.329  15.285  19.730  0.00  0.00    +0.000 HD
BRANCH  26  28
ATOM     28  S   UNL     1      -0.700  15.657  20.689  0.00  0.00    +0.000 S 
ATOM     29  O   UNL     1      -0.111  16.454  21.741  0.00  0.00    +0.000 OA
ATOM     30  O   UNL     1      -1.441  16.257  19.600  0.00  0.00    +0.000 OA
BRANCH  28  31
ATOM     31  C   UNL     1      -1.731  14.440  21.464  0.00  0.00    +0.000 A 
ATOM     32  C   UNL     1      -2.960  14.119  20.884  0.00  0.00    +0.000 A 
ATOM     33  C   UNL     1      -3.774  13.162  21.490  0.00  0.00    +0.000 A 
ATOM     34  C   UNL     1      -3.354  12.529  22.662  0.00  0.00    +0.000 A 
ATOM     35  C   UNL     1      -2.119  12.844  23.231  0.00  0.00    +0.000 A 
ATOM     36  C   UNL     1      -1.300  13.802  22.632  0.00  0.00    +0.000 A 
ENDBRANCH  28  31
ENDBRANCH  26  28
ENDBRANCH  25  26
ENDBRANCH   2  25
TORSDOF 11
ENDMDL
MODEL 8
REMARK VINA RESULT:      -7.6      4.155      7.349
REMARK  Name = 
REMARK  13 active torsions:
REMARK  status: ('A' for Active; 'I' for Inactive)
REMARK    1  A    between atoms: C_1  and  C_2
REMARK    2  A    between atoms: C_2  and  C_3
REMARK    3  A    between atoms: C_2  and  C_4
REMARK    4  A    between atoms: C_4  and  C_5
REMARK    5  A    between atoms: C_4  and  N_15
REMARK    6  A    between atoms: N_7  and  C_8
REMARK    7  A    between atoms: C_8  and  C_9
REMARK    8  A    between atoms: N_15  and  C_16
REMARK    9  A    between atoms: C_16  and  C_17
REMARK   10  A    between atoms: C_22  and  C_24
REMARK   11  A    between atoms: C_24  and  N_25
REMARK   12  A    between atoms: N_25  and  S_26
REMARK   13  A    between atoms: S_26  and  C_29
REMARK                            x       y       z     vdW  Elec       q    Type
REMARK                         _______ _______ _______ _____ _____    ______ ____
ROOT
ATOM      1  N   UNL     1       5.166   6.531  17.488  0.00  0.00    +0.000 N 
ATOM      2  C   UNL     1       4.015   6.268  18.253  0.00  0.00    +0.000 C 
ATOM      3  O   UNL     1       4.074   6.216  19.488  0.00  0.00    +0.000 OA
ENDROOT
BRANCH   1   4
ATOM      4  C   UNL     1       6.483   6.612  18.210  0.00  0.00    +0.000 C 
BRANCH   4   5
ATOM      5  C   UNL     1       7.475   7.553  17.506  0.00  0.00    +0.000 C 
ATOM      6  O   UNL     1       8.138   7.223  16.526  0.00  0.00    +0.000 OA
ATOM      7  N   UNL     1       7.522   8.812  18.048  0.00  0.00    +0.000 N 
ATOM      8  H   UNL     1       6.794   9.096  18.697  0.00  0.00    +0.000 HD
BRANCH   7   9
ATOM      9  C   UNL     1       8.380   9.834  17.479  0.00  0.00    +0.000 C 
BRANCH   9  10
ATOM     10  C   UNL     1       9.222  10.564  18.493  0.00  0.00    +0.000 A 
ATOM     11  C   UNL     1       8.987  10.465  19.874  0.00  0.00    +0.000 A 
ATOM     12  C   UNL     1       9.820  11.123  20.784  0.00  0.00    +0.000 A 
ATOM     13  C   UNL     1      10.905  11.867  20.327  0.00  0.00    +0.000 A 
ATOM     14  C   UNL     1      11.170  11.948  18.963  0.00  0.00    +0.000 A 
ATOM     15  C   UNL     1      10.336  11.294  18.052  0.00  0.00    +0.000 A 
ENDBRANCH   9  10
ENDBRANCH   7   9
ENDBRANCH   4   5
BRANCH   4  17
ATOM     16  C   UNL     1       7.825   4.334  17.758  0.00  0.00    +0.000 C 
ATOM     17  C   UNL     1       7.131   5.284  18.743  0.00  0.00    +0.000 C 
ATOM     18  C   UNL     1       8.182   5.617  19.830  0.00  0.00    +0.000 C 
ENDBRANCH   4  17
ENDBRANCH   1   4
BRANCH   1  19
ATOM     19  C   UNL     1       5.086   6.799  16.045  0.00  0.00    +0.000 C 
BRANCH  19  20
ATOM     20  C   UNL     1       5.429   5.699  15.018  0.00  0.00    +0.000 C 
ATOM     21  C   UNL     1       5.218   4.252  15.395  0.00  0.00    +0.000 C 
ATOM     22  C   UNL     1       5.794   3.566  14.174  0.00  0.00    +0.000 C 
ATOM     23  C   UNL     1       6.949   4.481  13.785  0.00  0.00    +0.000 C 
ATOM     24  O   UNL     1       6.777   5.706  14.529  0.00  0.00    +0.000 OA
ENDBRANCH  19  20
ENDBRANCH   1  19
BRANCH   2  25
ATOM     25  C   UNL     1       2.680   5.996  17.534  0.00  0.00    +0.000 C 
BRANCH  25  26
ATOM     26  N   UNL     1       1.757   5.214  18.369  0.00  0.00    +0.000 NA
ATOM     27  H   UNL     1       0.851   5.637  18.575  0.00  0.00    +0.000 HD
BRANCH  26  28
ATOM     28  S   UNL     1       1.649   3.569  18.062  0.00  0.00    +0.000 S 
ATOM     29  O   UNL     1       0.287   3.180  18.355  0.00  0.00    +0.000 OA
ATOM     30  O   UNL     1       2.260   3.302  16.778  0.00  0.00    +0.000 OA
BRANCH  28  31
ATOM     31  C   UNL     1       2.679   2.875  19.328  0.00  0.00    +0.000 A 
ATOM     32  C   UNL     1       3.992   2.517  19.017  0.00  0.00    +0.000 A 
ATOM     33  C   UNL     1       4.806   1.972  20.009  0.00  0.00    +0.000 A 
ATOM     34  C   UNL     1       4.308   1.794  21.303  0.00  0.00    +0.000 A 
ATOM     35  C   UNL     1       2.998   2.165  21.611  0.00  0.00    +0.000 A 
ATOM     36  C   UNL     1       2.177   2.709  20.623  0.00  0.00    +0.000 A 
ENDBRANCH  28  31
ENDBRANCH  26  28
ENDBRANCH  25  26
ENDBRANCH   2  25
TORSDOF 11
ENDMDL
MODEL 9
REMARK VINA RESULT:      -7.5      2.009      3.166
REMARK  Name = 
REMARK  13 active torsions:
REMARK  status: ('A' for Active; 'I' for Inactive)
REMARK    1  A    between atoms: C_1  and  C_2
REMARK    2  A    between atoms: C_2  and  C_3
REMARK    3  A    between atoms: C_2  and  C_4
REMARK    4  A    between atoms: C_4  and  C_5
REMARK    5  A    between atoms: C_4  and  N_15
REMARK    6  A    between atoms: N_7  and  C_8
REMARK    7  A    between atoms: C_8  and  C_9
REMARK    8  A    between atoms: N_15  and  C_16
REMARK    9  A    between atoms: C_16  and  C_17
REMARK   10  A    between atoms: C_22  and  C_24
REMARK   11  A    between atoms: C_24  and  N_25
REMARK   12  A    between atoms: N_25  and  S_26
REMARK   13  A    between atoms: S_26  and  C_29
REMARK                            x       y       z     vdW  Elec       q    Type
REMARK                         _______ _______ _______ _____ _____    ______ ____
ROOT
ATOM      1  N   UNL     1       4.322   6.509  18.347  0.00  0.00    +0.000 N 
ATOM      2  C   UNL     1       3.414   7.456  17.839  0.00  0.00    +0.000 C 
ATOM      3  O   UNL     1       3.681   8.106  16.821  0.00  0.00    +0.000 OA
ENDROOT
BRANCH   1   4
ATOM      4  C   UNL     1       5.672   6.411  17.691  0.00  0.00    +0.000 C 
BRANCH   4   5
ATOM      5  C   UNL     1       5.874   5.066  16.973  0.00  0.00    +0.000 C 
ATOM      6  O   UNL     1       6.536   4.144  17.443  0.00  0.00    +0.000 OA
ATOM      7  N   UNL     1       5.210   4.973  15.777  0.00  0.00    +0.000 N 
ATOM      8  H   UNL     1       4.500   5.663  15.553  0.00  0.00    +0.000 HD
BRANCH   7   9
ATOM      9  C   UNL     1       5.265   3.755  14.990  0.00  0.00    +0.000 C 
BRANCH   9  10
ATOM     10  C   UNL     1       6.047   3.887  13.709  0.00  0.00    +0.000 A 
ATOM     11  C   UNL     1       5.768   3.106  12.576  0.00  0.00    +0.000 A 
ATOM     12  C   UNL     1       6.488   3.290  11.392  0.00  0.00    +0.000 A 
ATOM     13  C   UNL     1       7.479   4.267  11.321  0.00  0.00    +0.000 A 
ATOM     14  C   UNL     1       7.746   5.070  12.426  0.00  0.00    +0.000 A 
ATOM     15  C   UNL     1       7.029   4.884  13.612  0.00  0.00    +0.000 A 
ENDBRANCH   9  10
ENDBRANCH   7   9
ENDBRANCH   4   5
BRANCH   4  17
ATOM     16  C   UNL     1       7.848   5.879  19.167  0.00  0.00    +0.000 C 
ATOM     17  C   UNL     1       6.933   6.906  18.488  0.00  0.00    +0.000 C 
ATOM     18  C   UNL     1       7.843   7.740  17.554  0.00  0.00    +0.000 C 
ENDBRANCH   4  17
ENDBRANCH   1   4
BRANCH   1  19
ATOM     19  C   UNL     1       3.946   5.586  19.428  0.00  0.00    +0.000 C 
BRANCH  19  20
ATOM     20  C   UNL     1       3.262   4.238  19.113  0.00  0.00    +0.000 C 
ATOM     21  C   UNL     1       3.940   2.956  19.534  0.00  0.00    +0.000 C 
ATOM     22  C   UNL     1       3.003   1.937  18.918  0.00  0.00    +0.000 C 
ATOM     23  C   UNL     1       2.565   2.618  17.628  0.00  0.00    +0.000 C 
ATOM     24  O   UNL     1       2.969   4.001  17.729  0.00  0.00    +0.000 OA
ENDBRANCH  19  20
ENDBRANCH   1  19
BRANCH   2  25
ATOM     25  C   UNL     1       2.097   7.715  18.594  0.00  0.00    +0.000 C 
BRANCH  25  26
ATOM     26  N   UNL     1       1.338   8.829  18.007  0.00  0.00    +0.000 NA
ATOM     27  H   UNL     1       0.590   8.585  17.356  0.00  0.00    +0.000 HD
BRANCH  26  28
ATOM     28  S   UNL     1       0.924  10.098  19.023  0.00  0.00    +0.000 S 
ATOM     29  O   UNL     1       0.863   9.555  20.362  0.00  0.00    +0.000 OA
ATOM     30  O   UNL     1       1.757  11.235  18.697  0.00  0.00    +0.000 OA
BRANCH  28  31
ATOM     31  C   UNL     1      -0.739  10.459  18.524  0.00  0.00    +0.000 A 
ATOM     32  C   UNL     1      -1.441  11.473  19.180  0.00  0.00    +0.000 A 
ATOM     33  C   UNL     1      -2.749  11.761  18.793  0.00  0.00    +0.000 A 
ATOM     34  C   UNL     1      -3.343  11.044  17.751  0.00  0.00    +0.000 A 
ATOM     35  C   UNL     1      -2.633  10.040  17.091  0.00  0.00    +0.000 A 
ATOM     36  C   UNL     1      -1.325   9.744  17.475  0.00  0.00    +0.000 A 
ENDBRANCH  28  31
ENDBRANCH  26  28
ENDBRANCH  25  26
ENDBRANCH   2  25
TORSDOF 11
ENDMDL
