MODEL 1
REMARK VINA RESULT:      -6.8      0.000      0.000
REMARK  Name = 
REMARK  6 active torsions:
REMARK  status: ('A' for Active; 'I' for Inactive)
REMARK    1  A    between atoms: C_1  and  C_2
REMARK    2  A    between atoms: C_5  and  N_6
REMARK    3  A    between atoms: N_9  and  C_10
REMARK    4  A    between atoms: C_10  and  C_11
REMARK    5  A    between atoms: C_11  and  O_12
REMARK    6  A    between atoms: O_12  and  C_13
REMARK                            x       y       z     vdW  Elec       q    Type
REMARK                         _______ _______ _______ _____ _____    ______ ____
ROOT
ATOM      1  C   UNL     1       6.615   4.570  14.364  0.00  0.00    +0.000 C 
ATOM      2  C   UNL     1       6.722   4.550  15.847  0.00  0.00    +0.000 A 
ATOM      3  N   UNL     1       7.864   4.581  16.507  0.00  0.00    +0.000 NA
ATOM      4  C   UNL     1       7.536   4.555  17.836  0.00  0.00    +0.000 A 
ATOM      5  C   UNL     1       6.174   4.510  17.987  0.00  0.00    +0.000 A 
ATOM      6  N   UNL     1       5.643   4.501  16.719  0.00  0.00    +0.000 N 
ENDROOT
BRANCH   5   7
ATOM      7  N   UNL     1       5.451   4.496  19.214  0.00  0.00    +0.000 N 
ATOM      8  O   UNL     1       5.281   3.391  19.740  0.00  0.00    +0.000 OA
ATOM      9  O   UNL     1       5.071   5.576  19.671  0.00  0.00    +0.000 OA
ENDBRANCH   5   7
BRANCH   6  10
ATOM     10  C   UNL     1       4.247   4.460  16.312  0.00  0.00    +0.000 C 
BRANCH  10  11
ATOM     11  C   UNL     1       3.560   3.164  16.734  0.00  0.00    +0.000 C 
BRANCH  11  12
ATOM     12  O   UNL     1       2.196   3.431  17.075  0.00  0.00    +0.000 OA
BRANCH  12  13
ATOM     13  C   UNL     1       1.949   3.558  18.419  0.00  0.00    +0.000 A 
ATOM     14  C   UNL     1       1.909   2.365  19.146  0.00  0.00    +0.000 A 
ATOM     15  C   UNL     1       1.635   2.378  20.516  0.00  0.00    +0.000 A 
ATOM     16  C   UNL     1       1.418   3.589  21.173  0.00  0.00    +0.000 A 
ATOM     17  C   UNL     1       1.495   4.783  20.462  0.00  0.00    +0.000 A 
ATOM     18  C   UNL     1       1.763   4.770  19.090  0.00  0.00    +0.000 A 
ENDBRANCH  12  13
ENDBRANCH  11  12
ENDBRANCH  10  11
ENDBRANCH   6  10
TORSDOF 5
ENDMDL
MODEL 2
REMARK VINA RESULT:      -6.6      1.225      1.309
REMARK  Name = 
REMARK  6 active torsions:
REMARK  status: ('A' for Active; 'I' for Inactive)
REMARK    1  A    between atoms: C_1  and  C_2
REMARK    2  A    between atoms: C_5  and  N_6
REMARK    3  A    between atoms: N_9  and  C_10
REMARK    4  A    between atoms: C_10  and  C_11
REMARK    5  A    between atoms: C_11  and  O_12
REMARK    6  A    between atoms: O_12  and  C_13
REMARK                            x       y       z     vdW  Elec       q    Type
REMARK                         _______ _______ _______ _____ _____    ______ ____
ROOT
ATOM      1  C   UNL     1       5.833   4.398  14.224  0.00  0.00    +0.000 C 
ATOM      2  C   UNL     1       6.217   4.888  15.574  0.00  0.00    +0.000 A 
ATOM      3  N   UNL     1       7.306   5.588  15.825  0.00  0.00    +0.000 NA
ATOM      4  C   UNL     1       7.291   5.847  17.170  0.00  0.00    +0.000 A 
ATOM      5  C   UNL     1       6.173   5.299  17.745  0.00  0.00    +0.000 A 
ATOM      6  N   UNL     1       5.481   4.678  16.732  0.00  0.00    +0.000 N 
ENDROOT
BRANCH   5   7
ATOM      7  N   UNL     1       5.793   5.376  19.115  0.00  0.00    +0.000 N 
ATOM      8  O   UNL     1       6.689   5.188  19.946  0.00  0.00    +0.000 OA
ATOM      9  O   UNL     1       4.618   5.643  19.373  0.00  0.00    +0.000 OA
ENDBRANCH   5   7
BRANCH   6  10
ATOM     10  C   UNL     1       4.226   3.945  16.797  0.00  0.00    +0.000 C 
BRANCH  10  11
ATOM     11  C   UNL     1       4.377   2.603  17.511  0.00  0.00    +0.000 C 
BRANCH  11  12
ATOM     12  O   UNL     1       3.084   2.040  17.756  0.00  0.00    +0.000 OA
BRANCH  12  13
ATOM     13  C   UNL     1       2.486   2.447  18.922  0.00  0.00    +0.000 A 
ATOM     14  C   UNL     1       3.276   2.363  20.072  0.00  0.00    +0.000 A 
ATOM     15  C   UNL     1       2.756   2.723  21.318  0.00  0.00    +0.000 A 
ATOM     16  C   UNL     1       1.445   3.189  21.419  0.00  0.00    +0.000 A 
ATOM     17  C   UNL     1       0.666   3.311  20.271  0.00  0.00    +0.000 A 
ATOM     18  C   UNL     1       1.185   2.945  19.026  0.00  0.00    +0.000 A 
ENDBRANCH  12  13
ENDBRANCH  11  12
ENDBRANCH  10  11
ENDBRANCH   6  10
TORSDOF 5
ENDMDL
MODEL 3
REMARK VINA RESULT:      -6.5      1.955      2.662
REMARK  Name = 
REMARK  6 active torsions:
REMARK  status: ('A' for Active; 'I' for Inactive)
REMARK    1  A    between atoms: C_1  and  C_2
REMARK    2  A    between atoms: C_5  and  N_6
REMARK    3  A    between atoms: N_9  and  C_10
REMARK    4  A    between atoms: C_10  and  C_11
REMARK    5  A    between atoms: C_11  and  O_12
REMARK    6  A    between atoms: O_12  and  C_13
REMARK                            x       y       z     vdW  Elec       q    Type
REMARK                         _______ _______ _______ _____ _____    ______ ____
ROOT
ATOM      1  C   UNL     1       4.868   5.038  19.724  0.00  0.00    +0.000 C 
ATOM      2  C   UNL     1       5.863   4.900  18.628  0.00  0.00    +0.000 A 
ATOM      3  N   UNL     1       7.169   4.859  18.814  0.00  0.00    +0.000 NA
ATOM      4  C   UNL     1       7.727   4.719  17.572  0.00  0.00    +0.000 A 
ATOM      5  C   UNL     1       6.746   4.672  16.615  0.00  0.00    +0.000 A 
ATOM      6  N   UNL     1       5.549   4.792  17.280  0.00  0.00    +0.000 N 
ENDROOT
BRANCH   5   7
ATOM      7  N   UNL     1       6.929   4.510  15.212  0.00  0.00    +0.000 N 
ATOM      8  O   UNL     1       6.326   3.569  14.684  0.00  0.00    +0.000 OA
ATOM      9  O   UNL     1       7.649   5.322  14.628  0.00  0.00    +0.000 OA
ENDBRANCH   5   7
BRANCH   6  10
ATOM     10  C   UNL     1       4.198   4.800  16.739  0.00  0.00    +0.000 C 
BRANCH  10  11
ATOM     11  C   UNL     1       3.560   3.413  16.756  0.00  0.00    +0.000 C 
BRANCH  11  12
ATOM     12  O   UNL     1       2.171   3.526  17.083  0.00  0.00    +0.000 OA
BRANCH  12  13
ATOM     13  C   UNL     1       1.889   3.497  18.426  0.00  0.00    +0.000 A 
ATOM     14  C   UNL     1       2.174   2.298  19.083  0.00  0.00    +0.000 A 
ATOM     15  C   UNL     1       1.896   2.150  20.444  0.00  0.00    +0.000 A 
ATOM     16  C   UNL     1       1.348   3.211  21.164  0.00  0.00    +0.000 A 
ATOM     17  C   UNL     1       1.097   4.422  20.523  0.00  0.00    +0.000 A 
ATOM     18  C   UNL     1       1.369   4.567  19.160  0.00  0.00    +0.000 A 
ENDBRANCH  12  13
ENDBRANCH  11  12
ENDBRANCH  10  11
ENDBRANCH   6  10
TORSDOF 5
ENDMDL
MODEL 4
REMARK VINA RESULT:      -6.5      2.214      2.994
REMARK  Name = 
REMARK  6 active torsions:
REMARK  status: ('A' for Active; 'I' for Inactive)
REMARK    1  A    between atoms: C_1  and  C_2
REMARK    2  A    between atoms: C_5  and  N_6
REMARK    3  A    between atoms: N_9  and  C_10
REMARK    4  A    between atoms: C_10  and  C_11
REMARK    5  A    between atoms: C_11  and  O_12
REMARK    6  A    between atoms: O_12  and  C_13
REMARK                            x       y       z     vdW  Elec       q    Type
REMARK                         _______ _______ _______ _____ _____    ______ ____
ROOT
ATOM      1  C   UNL     1       2.757   6.078  17.840  0.00  0.00    +0.000 C 
ATOM      2  C   UNL     1       4.183   6.216  17.442  0.00  0.00    +0.000 A 
ATOM      3  N   UNL     1       4.916   7.287  17.677  0.00  0.00    +0.000 NA
ATOM      4  C   UNL     1       6.158   7.018  17.168  0.00  0.00    +0.000 A 
ATOM      5  C   UNL     1       6.182   5.762  16.617  0.00  0.00    +0.000 A 
ATOM      6  N   UNL     1       4.920   5.242  16.783  0.00  0.00    +0.000 N 
ENDROOT
BRANCH   5   7
ATOM      7  N   UNL     1       7.298   5.117  16.012  0.00  0.00    +0.000 N 
ATOM      8  O   UNL     1       7.533   5.412  14.835  0.00  0.00    +0.000 OA
ATOM      9  O   UNL     1       7.956   4.337  16.703  0.00  0.00    +0.000 OA
ENDBRANCH   5   7
BRANCH   6  10
ATOM     10  C   UNL     1       4.407   3.942  16.381  0.00  0.00    +0.000 C 
BRANCH  10  11
ATOM     11  C   UNL     1       4.449   2.926  17.521  0.00  0.00    +0.000 C 
BRANCH  11  12
ATOM     12  O   UNL     1       3.144   2.374  17.723  0.00  0.00    +0.000 OA
BRANCH  12  13
ATOM     13  C   UNL     1       2.611   2.589  18.969  0.00  0.00    +0.000 A 
ATOM     14  C   UNL     1       1.258   2.939  19.000  0.00  0.00    +0.000 A 
ATOM     15  C   UNL     1       0.623   3.211  20.213  0.00  0.00    +0.000 A 
ATOM     16  C   UNL     1       1.333   3.115  21.410  0.00  0.00    +0.000 A 
ATOM     17  C   UNL     1       2.671   2.730  21.389  0.00  0.00    +0.000 A 
ATOM     18  C   UNL     1       3.308   2.464  20.173  0.00  0.00    +0.000 A 
ENDBRANCH  12  13
ENDBRANCH  11  12
ENDBRANCH  10  11
ENDBRANCH   6  10
TORSDOF 5
ENDMDL
MODEL 5
REMARK VINA RESULT:      -6.4      1.247      1.399
REMARK  Name = 
REMARK  6 active torsions:
REMARK  status: ('A' for Active; 'I' for Inactive)
REMARK    1  A    between atoms: C_1  and  C_2
REMARK    2  A    between atoms: C_5  and  N_6
REMARK    3  A    between atoms: N_9  and  C_10
REMARK    4  A    between atoms: C_10  and  C_11
REMARK    5  A    between atoms: C_11  and  O_12
REMARK    6  A    between atoms: O_12  and  C_13
REMARK                            x       y       z     vdW  Elec       q    Type
REMARK                         _______ _______ _______ _____ _____    ______ ____
ROOT
ATOM      1  C   UNL     1       6.168   4.500  14.466  0.00  0.00    +0.000 C 
ATOM      2  C   UNL     1       6.570   5.094  15.768  0.00  0.00    +0.000 A 
ATOM      3  N   UNL     1       7.408   6.105  15.893  0.00  0.00    +0.000 NA
ATOM      4  C   UNL     1       7.508   6.354  17.235  0.00  0.00    +0.000 A 
ATOM      5  C   UNL     1       6.716   5.483  17.939  0.00  0.00    +0.000 A 
ATOM      6  N   UNL     1       6.114   4.669  17.008  0.00  0.00    +0.000 N 
ENDROOT
BRANCH   5   7
ATOM      7  N   UNL     1       6.535   5.444  19.351  0.00  0.00    +0.000 N 
ATOM      8  O   UNL     1       5.369   5.486  19.757  0.00  0.00    +0.000 OA
ATOM      9  O   UNL     1       7.540   5.348  20.057  0.00  0.00    +0.000 OA
ENDBRANCH   5   7
BRANCH   6  10
ATOM     10  C   UNL     1       5.177   3.576  17.219  0.00  0.00    +0.000 C 
BRANCH  10  11
ATOM     11  C   UNL     1       3.795   3.882  16.647  0.00  0.00    +0.000 C 
BRANCH  11  12
ATOM     12  O   UNL     1       3.142   4.860  17.463  0.00  0.00    +0.000 OA
BRANCH  12  13
ATOM     13  C   UNL     1       2.330   4.347  18.444  0.00  0.00    +0.000 A 
ATOM     14  C   UNL     1       1.701   3.137  18.142  0.00  0.00    +0.000 A 
ATOM     15  C   UNL     1       0.829   2.542  19.056  0.00  0.00    +0.000 A 
ATOM     16  C   UNL     1       0.594   3.146  20.291  0.00  0.00    +0.000 A 
ATOM     17  C   UNL     1       1.247   4.334  20.613  0.00  0.00    +0.000 A 
ATOM     18  C   UNL     1       2.115   4.931  19.695  0.00  0.00    +0.000 A 
ENDBRANCH  12  13
ENDBRANCH  11  12
ENDBRANCH  10  11
ENDBRANCH   6  10
TORSDOF 5
ENDMDL
MODEL 6
REMARK VINA RESULT:      -6.4      2.234      2.972
REMARK  Name = 
REMARK  6 active torsions:
REMARK  status: ('A' for Active; 'I' for Inactive)
REMARK    1  A    between atoms: C_1  and  C_2
REMARK    2  A    between atoms: C_5  and  N_6
REMARK    3  A    between atoms: N_9  and  C_10
REMARK    4  A    between atoms: C_10  and  C_11
REMARK    5  A    between atoms: C_11  and  O_12
REMARK    6  A    between atoms: O_12  and  C_13
REMARK                            x       y       z     vdW  Elec       q    Type
REMARK                         _______ _______ _______ _____ _____    ______ ____
ROOT
ATOM      1  C   UNL     1       2.635   5.967  18.051  0.00  0.00    +0.000 C 
ATOM      2  C   UNL     1       4.017   6.092  17.520  0.00  0.00    +0.000 A 
ATOM      3  N   UNL     1       4.758   7.178  17.632  0.00  0.00    +0.000 NA
ATOM      4  C   UNL     1       5.952   6.889  17.027  0.00  0.00    +0.000 A 
ATOM      5  C   UNL     1       5.938   5.606  16.542  0.00  0.00    +0.000 A 
ATOM      6  N   UNL     1       4.702   5.089  16.847  0.00  0.00    +0.000 N 
ENDROOT
BRANCH   5   7
ATOM      7  N   UNL     1       7.002   4.936  15.872  0.00  0.00    +0.000 N 
ATOM      8  O   UNL     1       7.878   4.440  16.590  0.00  0.00    +0.000 OA
ATOM      9  O   UNL     1       6.963   4.879  14.642  0.00  0.00    +0.000 OA
ENDBRANCH   5   7
BRANCH   6  10
ATOM     10  C   UNL     1       4.167   3.767  16.560  0.00  0.00    +0.000 C 
BRANCH  10  11
ATOM     11  C   UNL     1       4.566   2.741  17.618  0.00  0.00    +0.000 C 
BRANCH  11  12
ATOM     12  O   UNL     1       3.445   1.905  17.925  0.00  0.00    +0.000 OA
BRANCH  12  13
ATOM     13  C   UNL     1       2.667   2.340  18.969  0.00  0.00    +0.000 A 
ATOM     14  C   UNL     1       3.321   2.490  20.195  0.00  0.00    +0.000 A 
ATOM     15  C   UNL     1       2.617   2.898  21.330  0.00  0.00    +0.000 A 
ATOM     16  C   UNL     1       1.253   3.178  21.242  0.00  0.00    +0.000 A 
ATOM     17  C   UNL     1       0.604   3.067  20.016  0.00  0.00    +0.000 A 
ATOM     18  C   UNL     1       1.307   2.653  18.881  0.00  0.00    +0.000 A 
ENDBRANCH  12  13
ENDBRANCH  11  12
ENDBRANCH  10  11
ENDBRANCH   6  10
TORSDOF 5
ENDMDL
MODEL 7
REMARK VINA RESULT:      -6.4      1.882      2.832
REMARK  Name = 
REMARK  6 active torsions:
REMARK  status: ('A' for Active; 'I' for Inactive)
REMARK    1  A    between atoms: C_1  and  C_2
REMARK    2  A    between atoms: C_5  and  N_6
REMARK    3  A    between atoms: N_9  and  C_10
REMARK    4  A    between atoms: C_10  and  C_11
REMARK    5  A    between atoms: C_11  and  O_12
REMARK    6  A    between atoms: O_12  and  C_13
REMARK                            x       y       z     vdW  Elec       q    Type
REMARK                         _______ _______ _______ _____ _____    ______ ____
ROOT
ATOM      1  C   UNL     1       4.109   3.162  17.146  0.00  0.00    +0.000 C 
ATOM      2  C   UNL     1       5.275   4.060  16.940  0.00  0.00    +0.000 A 
ATOM      3  N   UNL     1       6.141   3.934  15.953  0.00  0.00    +0.000 NA
ATOM      4  C   UNL     1       7.049   4.947  16.110  0.00  0.00    +0.000 A 
ATOM      5  C   UNL     1       6.728   5.703  17.208  0.00  0.00    +0.000 A 
ATOM      6  N   UNL     1       5.596   5.141  17.750  0.00  0.00    +0.000 N 
ENDROOT
BRANCH   5   7
ATOM      7  N   UNL     1       7.418   6.856  17.681  0.00  0.00    +0.000 N 
ATOM      8  O   UNL     1       7.244   7.901  17.045  0.00  0.00    +0.000 OA
ATOM      9  O   UNL     1       8.112   6.737  18.693  0.00  0.00    +0.000 OA
ENDBRANCH   5   7
BRANCH   6  10
ATOM     10  C   UNL     1       4.841   5.554  18.922  0.00  0.00    +0.000 C 
BRANCH  10  11
ATOM     11  C   UNL     1       3.572   6.317  18.552  0.00  0.00    +0.000 C 
BRANCH  11  12
ATOM     12  O   UNL     1       2.669   6.319  19.663  0.00  0.00    +0.000 OA
BRANCH  12  13
ATOM     13  C   UNL     1       2.211   5.081  20.039  0.00  0.00    +0.000 A 
ATOM     14  C   UNL     1       1.485   4.381  19.073  0.00  0.00    +0.000 A 
ATOM     15  C   UNL     1       0.947   3.124  19.361  0.00  0.00    +0.000 A 
ATOM     16  C   UNL     1       1.149   2.549  20.615  0.00  0.00    +0.000 A 
ATOM     17  C   UNL     1       1.905   3.225  21.570  0.00  0.00    +0.000 A 
ATOM     18  C   UNL     1       2.438   4.485  21.283  0.00  0.00    +0.000 A 
ENDBRANCH  12  13
ENDBRANCH  11  12
ENDBRANCH  10  11
ENDBRANCH   6  10
TORSDOF 5
ENDMDL
MODEL 8
REMARK VINA RESULT:      -6.3      1.843      2.228
REMARK  Name = 
REMARK  6 active torsions:
REMARK  status: ('A' for Active; 'I' for Inactive)
REMARK    1  A    between atoms: C_1  and  C_2
REMARK    2  A    between atoms: C_5  and  N_6
REMARK    3  A    between atoms: N_9  and  C_10
REMARK    4  A    between atoms: C_10  and  C_11
REMARK    5  A    between atoms: C_11  and  O_12
REMARK    6  A    between atoms: O_12  and  C_13
REMARK                            x       y       z     vdW  Elec       q    Type
REMARK                         _______ _______ _______ _____ _____    ______ ____
ROOT
ATOM      1  C   UNL     1       4.928   4.848  14.944  0.00  0.00    +0.000 C 
ATOM      2  C   UNL     1       5.988   4.872  15.986  0.00  0.00    +0.000 A 
ATOM      3  N   UNL     1       7.025   4.058  16.006  0.00  0.00    +0.000 NA
ATOM      4  C   UNL     1       7.761   4.404  17.107  0.00  0.00    +0.000 A 
ATOM      5  C   UNL     1       7.164   5.449  17.766  0.00  0.00    +0.000 A 
ATOM      6  N   UNL     1       6.025   5.753  17.059  0.00  0.00    +0.000 N 
ENDROOT
BRANCH   5   7
ATOM      7  N   UNL     1       7.640   6.102  18.938  0.00  0.00    +0.000 N 
ATOM      8  O   UNL     1       8.259   7.158  18.766  0.00  0.00    +0.000 OA
ATOM      9  O   UNL     1       7.384   5.588  20.029  0.00  0.00    +0.000 OA
ENDBRANCH   5   7
BRANCH   6  10
ATOM     10  C   UNL     1       5.030   6.780  17.325  0.00  0.00    +0.000 C 
BRANCH  10  11
ATOM     11  C   UNL     1       4.073   6.381  18.445  0.00  0.00    +0.000 C 
BRANCH  11  12
ATOM     12  O   UNL     1       2.823   5.963  17.886  0.00  0.00    +0.000 OA
BRANCH  12  13
ATOM     13  C   UNL     1       2.179   4.971  18.582  0.00  0.00    +0.000 A 
ATOM     14  C   UNL     1       1.857   3.825  17.851  0.00  0.00    +0.000 A 
ATOM     15  C   UNL     1       1.173   2.767  18.454  0.00  0.00    +0.000 A 
ATOM     16  C   UNL     1       0.824   2.840  19.803  0.00  0.00    +0.000 A 
ATOM     17  C   UNL     1       1.176   3.964  20.547  0.00  0.00    +0.000 A 
ATOM     18  C   UNL     1       1.855   5.024  19.941  0.00  0.00    +0.000 A 
ENDBRANCH  12  13
ENDBRANCH  11  12
ENDBRANCH  10  11
ENDBRANCH   6  10
TORSDOF 5
ENDMDL
MODEL 9
REMARK VINA RESULT:      -6.3      1.402      1.551
REMARK  Name = 
REMARK  6 active torsions:
REMARK  status: ('A' for Active; 'I' for Inactive)
REMARK    1  A    between atoms: C_1  and  C_2
REMARK    2  A    between atoms: C_5  and  N_6
REMARK    3  A    between atoms: N_9  and  C_10
REMARK    4  A    between atoms: C_10  and  C_11
REMARK    5  A    between atoms: C_11  and  O_12
REMARK    6  A    between atoms: O_12  and  C_13
REMARK                            x       y       z     vdW  Elec       q    Type
REMARK                         _______ _______ _______ _____ _____    ______ ____
ROOT
ATOM      1  C   UNL     1       6.776   4.998  14.437  0.00  0.00    +0.000 C 
ATOM      2  C   UNL     1       6.863   5.502  15.833  0.00  0.00    +0.000 A 
ATOM      3  N   UNL     1       7.411   6.653  16.172  0.00  0.00    +0.000 NA
ATOM      4  C   UNL     1       7.286   6.750  17.532  0.00  0.00    +0.000 A 
ATOM      5  C   UNL     1       6.648   5.641  18.028  0.00  0.00    +0.000 A 
ATOM      6  N   UNL     1       6.377   4.834  16.949  0.00  0.00    +0.000 N 
ENDROOT
BRANCH   5   7
ATOM      7  N   UNL     1       6.313   5.387  19.389  0.00  0.00    +0.000 N 
ATOM      8  O   UNL     1       5.115   5.461  19.684  0.00  0.00    +0.000 OA
ATOM      9  O   UNL     1       7.227   5.093  20.161  0.00  0.00    +0.000 OA
ENDBRANCH   5   7
BRANCH   6  10
ATOM     10  C   UNL     1       5.713   3.539  16.918  0.00  0.00    +0.000 C 
BRANCH  10  11
ATOM     11  C   UNL     1       4.228   3.644  17.255  0.00  0.00    +0.000 C 
BRANCH  11  12
ATOM     12  O   UNL     1       3.844   2.546  18.089  0.00  0.00    +0.000 OA
BRANCH  12  13
ATOM     13  C   UNL     1       2.954   2.860  19.086  0.00  0.00    +0.000 A 
ATOM     14  C   UNL     1       3.335   2.492  20.380  0.00  0.00    +0.000 A 
ATOM     15  C   UNL     1       2.490   2.736  21.465  0.00  0.00    +0.000 A 
ATOM     16  C   UNL     1       1.263   3.370  21.265  0.00  0.00    +0.000 A 
ATOM     17  C   UNL     1       0.895   3.774  19.984  0.00  0.00    +0.000 A 
ATOM     18  C   UNL     1       1.739   3.523  18.898  0.00  0.00    +0.000 A 
ENDBRANCH  12  13
ENDBRANCH  11  12
ENDBRANCH  10  11
ENDBRANCH   6  10
TORSDOF 5
ENDMDL
