MODEL 1
REMARK VINA RESULT:      -8.2      0.000      0.000
REMARK  Name = 
REMARK  4 active torsions:
REMARK  status: ('A' for Active; 'I' for Inactive)
REMARK    1  A    between atoms: O_1  and  C_2
REMARK    2  A    between atoms: C_5  and  C_6
REMARK    3  A    between atoms: C_13  and  N_14
REMARK    4  A    between atoms: N_15  and  C_16
REMARK                            x       y       z     vdW  Elec       q    Type
REMARK                         _______ _______ _______ _____ _____    ______ ____
ROOT
ATOM      1  C   UNL     1       4.025   2.883  19.903  0.00  0.00    +0.000 A 
ATOM      2  N   UNL     1       3.065   3.024  20.868  0.00  0.00    +0.000 N 
ATOM      3  N   UNL     1       2.448   4.216  20.868  0.00  0.00    +0.000 NA
ATOM      4  C   UNL     1       3.003   4.883  19.837  0.00  0.00    +0.000 A 
ATOM      5  C   UNL     1       4.000   4.077  19.216  0.00  0.00    +0.000 A 
ATOM      6  H   UNL     1       2.784   2.351  21.571  0.00  0.00    +0.000 HD
ENDROOT
BRANCH   4   7
ATOM      7  C   UNL     1       2.562   6.241  19.500  0.00  0.00    +0.000 A 
ATOM      8  C   UNL     1       1.952   7.047  20.476  0.00  0.00    +0.000 A 
ATOM      9  C   UNL     1       1.518   8.339  20.166  0.00  0.00    +0.000 A 
ATOM     10  C   UNL     1       1.688   8.826  18.877  0.00  0.00    +0.000 A 
ATOM     11  F   UNL     1       1.267  10.062  18.576  0.00  0.00    +0.000 F 
ATOM     12  C   UNL     1       2.282   8.047  17.893  0.00  0.00    +0.000 A 
ATOM     13  C   UNL     1       2.716   6.756  18.202  0.00  0.00    +0.000 A 
ENDBRANCH   4   7
BRANCH   1  14
ATOM     14  O   UNL     1       4.770   1.789  19.761  0.00  0.00    +0.000 OA
ATOM     15  H   UNL     1       5.646   1.916  20.162  0.00  0.00    +0.000 HD
ENDBRANCH   1  14
BRANCH   5  16
ATOM     16  N   UNL     1       4.821   4.487  18.156  0.00  0.00    +0.000 NA
ATOM     17  N   UNL     1       4.863   3.669  17.215  0.00  0.00    +0.000 NA
BRANCH  17  18
ATOM     18  C   UNL     1       5.676   4.106  16.152  0.00  0.00    +0.000 A 
ATOM     19  C   UNL     1       6.592   5.131  16.388  0.00  0.00    +0.000 A 
ATOM     20  N   UNL     1       7.424   5.664  15.457  0.00  0.00    +0.000 NA
ATOM     21  C   UNL     1       7.330   5.150  14.209  0.00  0.00    +0.000 A 
ATOM     22  C   UNL     1       6.449   4.137  13.862  0.00  0.00    +0.000 A 
ATOM     23 CL   UNL     1       6.386   3.541  12.253  0.00  0.00    +0.000 Cl
ATOM     24  C   UNL     1       5.611   3.612  14.843  0.00  0.00    +0.000 A 
ENDBRANCH  17  18
ENDBRANCH   5  16
TORSDOF 4
ENDMDL
MODEL 2
REMARK VINA RESULT:      -8.2      0.118      1.037
REMARK  Name = 
REMARK  4 active torsions:
REMARK  status: ('A' for Active; 'I' for Inactive)
REMARK    1  A    between atoms: O_1  and  C_2
REMARK    2  A    between atoms: C_5  and  C_6
REMARK    3  A    between atoms: C_13  and  N_14
REMARK    4  A    between atoms: N_15  and  C_16
REMARK                            x       y       z     vdW  Elec       q    Type
REMARK                         _______ _______ _______ _____ _____    ______ ____
ROOT
ATOM      1  C   UNL     1       4.013   2.988  19.859  0.00  0.00    +0.000 A 
ATOM      2  N   UNL     1       3.060   3.139  20.829  0.00  0.00    +0.000 N 
ATOM      3  N   UNL     1       2.441   4.330  20.819  0.00  0.00    +0.000 NA
ATOM      4  C   UNL     1       2.987   4.985  19.775  0.00  0.00    +0.000 A 
ATOM      5  C   UNL     1       3.980   4.173  19.157  0.00  0.00    +0.000 A 
ATOM      6  H   UNL     1       2.787   2.475  21.543  0.00  0.00    +0.000 HD
ENDROOT
BRANCH   4   7
ATOM      7  C   UNL     1       2.540   6.338  19.423  0.00  0.00    +0.000 A 
ATOM      8  C   UNL     1       2.734   6.827  18.120  0.00  0.00    +0.000 A 
ATOM      9  C   UNL     1       2.323   8.118  17.774  0.00  0.00    +0.000 A 
ATOM     10  C   UNL     1       1.720   8.922  18.731  0.00  0.00    +0.000 A 
ATOM     11  F   UNL     1       1.330  10.162  18.403  0.00  0.00    +0.000 F 
ATOM     12  C   UNL     1       1.522   8.464  20.027  0.00  0.00    +0.000 A 
ATOM     13  C   UNL     1       1.934   7.175  20.375  0.00  0.00    +0.000 A 
ENDBRANCH   4   7
BRANCH   1  14
ATOM     14  O   UNL     1       4.759   1.894  19.726  0.00  0.00    +0.000 OA
ATOM     15  H   UNL     1       5.132   1.627  20.583  0.00  0.00    +0.000 HD
ENDBRANCH   1  14
BRANCH   5  16
ATOM     16  N   UNL     1       4.793   4.571  18.086  0.00  0.00    +0.000 NA
ATOM     17  N   UNL     1       4.899   3.704  17.195  0.00  0.00    +0.000 NA
BRANCH  17  18
ATOM     18  C   UNL     1       5.701   4.128  16.118  0.00  0.00    +0.000 A 
ATOM     19  C   UNL     1       6.629   5.146  16.336  0.00  0.00    +0.000 A 
ATOM     20  N   UNL     1       7.454   5.667  15.391  0.00  0.00    +0.000 NA
ATOM     21  C   UNL     1       7.338   5.147  14.147  0.00  0.00    +0.000 A 
ATOM     22  C   UNL     1       6.443   4.140  13.817  0.00  0.00    +0.000 A 
ATOM     23 CL   UNL     1       6.354   3.537  12.212  0.00  0.00    +0.000 Cl
ATOM     24  C   UNL     1       5.614   3.628  14.812  0.00  0.00    +0.000 A 
ENDBRANCH  17  18
ENDBRANCH   5  16
TORSDOF 4
ENDMDL
MODEL 3
REMARK VINA RESULT:      -8.1      3.866      6.263
REMARK  Name = 
REMARK  4 active torsions:
REMARK  status: ('A' for Active; 'I' for Inactive)
REMARK    1  A    between atoms: O_1  and  C_2
REMARK    2  A    between atoms: C_5  and  C_6
REMARK    3  A    between atoms: C_13  and  N_14
REMARK    4  A    between atoms: N_15  and  C_16
REMARK                            x       y       z     vdW  Elec       q    Type
REMARK                         _______ _______ _______ _____ _____    ______ ____
ROOT
ATOM      1  C   UNL     1       2.819   3.573  20.630  0.00  0.00    +0.000 A 
ATOM      2  N   UNL     1       3.676   2.506  20.628  0.00  0.00    +0.000 N 
ATOM      3  N   UNL     1       4.594   2.533  19.649  0.00  0.00    +0.000 NA
ATOM      4  C   UNL     1       4.354   3.686  18.993  0.00  0.00    +0.000 A 
ATOM      5  C   UNL     1       3.243   4.357  19.580  0.00  0.00    +0.000 A 
ATOM      6  H   UNL     1       3.685   1.713  21.258  0.00  0.00    +0.000 HD
ENDROOT
BRANCH   4   7
ATOM      7  C   UNL     1       5.185   4.086  17.852  0.00  0.00    +0.000 A 
ATOM      8  C   UNL     1       4.698   3.942  16.542  0.00  0.00    +0.000 A 
ATOM      9  C   UNL     1       5.483   4.309  15.445  0.00  0.00    +0.000 A 
ATOM     10  C   UNL     1       6.758   4.817  15.656  0.00  0.00    +0.000 A 
ATOM     11  F   UNL     1       7.514   5.164  14.605  0.00  0.00    +0.000 F 
ATOM     12  C   UNL     1       7.264   4.962  16.941  0.00  0.00    +0.000 A 
ATOM     13  C   UNL     1       6.481   4.595  18.038  0.00  0.00    +0.000 A 
ENDBRANCH   4   7
BRANCH   1  14
ATOM     14  O   UNL     1       1.820   3.711  21.499  0.00  0.00    +0.000 OA
ATOM     15  H   UNL     1       1.031   3.233  21.193  0.00  0.00    +0.000 HD
ENDBRANCH   1  14
BRANCH   5  16
ATOM     16  N   UNL     1       2.680   5.550  19.105  0.00  0.00    +0.000 NA
ATOM     17  N   UNL     1       2.675   6.468  19.949  0.00  0.00    +0.000 NA
BRANCH  17  18
ATOM     18  C   UNL     1       2.125   7.664  19.448  0.00  0.00    +0.000 A 
ATOM     19  C   UNL     1       2.453   8.058  18.151  0.00  0.00    +0.000 A 
ATOM     20  N   UNL     1       2.014   9.192  17.545  0.00  0.00    +0.000 NA
ATOM     21  C   UNL     1       1.206   9.987  18.284  0.00  0.00    +0.000 A 
ATOM     22  C   UNL     1       0.824   9.697  19.585  0.00  0.00    +0.000 A 
ATOM     23 CL   UNL     1      -0.202  10.762  20.457  0.00  0.00    +0.000 Cl
ATOM     24  C   UNL     1       1.291   8.525  20.174  0.00  0.00    +0.000 A 
ENDBRANCH  17  18
ENDBRANCH   5  16
TORSDOF 4
ENDMDL
MODEL 4
REMARK VINA RESULT:      -8.0      3.880      6.325
REMARK  Name = 
REMARK  4 active torsions:
REMARK  status: ('A' for Active; 'I' for Inactive)
REMARK    1  A    between atoms: O_1  and  C_2
REMARK    2  A    between atoms: C_5  and  C_6
REMARK    3  A    between atoms: C_13  and  N_14
REMARK    4  A    between atoms: N_15  and  C_16
REMARK                            x       y       z     vdW  Elec       q    Type
REMARK                         _______ _______ _______ _____ _____    ______ ____
ROOT
ATOM      1  C   UNL     1       2.920   3.783  20.541  0.00  0.00    +0.000 A 
ATOM      2  N   UNL     1       3.681   2.647  20.509  0.00  0.00    +0.000 N 
ATOM      3  N   UNL     1       4.568   2.600  19.502  0.00  0.00    +0.000 NA
ATOM      4  C   UNL     1       4.408   3.773  18.858  0.00  0.00    +0.000 A 
ATOM      5  C   UNL     1       3.378   4.534  19.481  0.00  0.00    +0.000 A 
ATOM      6  H   UNL     1       3.641   1.852  21.136  0.00  0.00    +0.000 HD
ENDROOT
BRANCH   4   7
ATOM      7  C   UNL     1       5.235   4.106  17.693  0.00  0.00    +0.000 A 
ATOM      8  C   UNL     1       6.551   4.567  17.872  0.00  0.00    +0.000 A 
ATOM      9  C   UNL     1       7.347   4.898  16.771  0.00  0.00    +0.000 A 
ATOM     10  C   UNL     1       6.827   4.773  15.490  0.00  0.00    +0.000 A 
ATOM     11  F   UNL     1       7.586   5.095  14.434  0.00  0.00    +0.000 F 
ATOM     12  C   UNL     1       5.528   4.326  15.287  0.00  0.00    +0.000 A 
ATOM     13  C   UNL     1       4.731   3.996  16.386  0.00  0.00    +0.000 A 
ENDBRANCH   4   7
BRANCH   1  14
ATOM     14  O   UNL     1       1.963   4.001  21.441  0.00  0.00    +0.000 OA
ATOM     15  H   UNL     1       1.993   4.920  21.757  0.00  0.00    +0.000 HD
ENDBRANCH   1  14
BRANCH   5  16
ATOM     16  N   UNL     1       2.905   5.774  19.027  0.00  0.00    +0.000 NA
ATOM     17  N   UNL     1       2.455   6.497  19.938  0.00  0.00    +0.000 NA
BRANCH  17  18
ATOM     18  C   UNL     1       2.004   7.746  19.466  0.00  0.00    +0.000 A 
ATOM     19  C   UNL     1       2.308   8.115  18.156  0.00  0.00    +0.000 A 
ATOM     20  N   UNL     1       1.957   9.291  17.575  0.00  0.00    +0.000 NA
ATOM     21  C   UNL     1       1.267  10.157  18.353  0.00  0.00    +0.000 A 
ATOM     22  C   UNL     1       0.920   9.896  19.670  0.00  0.00    +0.000 A 
ATOM     23 CL   UNL     1       0.047  11.052  20.592  0.00  0.00    +0.000 Cl
ATOM     24  C   UNL     1       1.295   8.679  20.233  0.00  0.00    +0.000 A 
ENDBRANCH  17  18
ENDBRANCH   5  16
TORSDOF 4
ENDMDL
MODEL 5
REMARK VINA RESULT:      -7.9      0.966      1.418
REMARK  Name = 
REMARK  4 active torsions:
REMARK  status: ('A' for Active; 'I' for Inactive)
REMARK    1  A    between atoms: O_1  and  C_2
REMARK    2  A    between atoms: C_5  and  C_6
REMARK    3  A    between atoms: C_13  and  N_14
REMARK    4  A    between atoms: N_15  and  C_16
REMARK                            x       y       z     vdW  Elec       q    Type
REMARK                         _______ _______ _______ _____ _____    ______ ____
ROOT
ATOM      1  C   UNL     1       3.281   1.965  18.837  0.00  0.00    +0.000 A 
ATOM      2  N   UNL     1       2.204   1.982  19.681  0.00  0.00    +0.000 N 
ATOM      3  N   UNL     1       1.737   3.210  19.961  0.00  0.00    +0.000 NA
ATOM      4  C   UNL     1       2.521   4.040  19.244  0.00  0.00    +0.000 A 
ATOM      5  C   UNL     1       3.502   3.290  18.534  0.00  0.00    +0.000 A 
ATOM      6  H   UNL     1       1.741   1.194  20.118  0.00  0.00    +0.000 HD
ENDROOT
BRANCH   4   7
ATOM      7  C   UNL     1       2.298   5.490  19.272  0.00  0.00    +0.000 A 
ATOM      8  C   UNL     1       2.515   6.257  18.115  0.00  0.00    +0.000 A 
ATOM      9  C   UNL     1       2.318   7.641  18.130  0.00  0.00    +0.000 A 
ATOM     10  C   UNL     1       1.906   8.260  19.302  0.00  0.00    +0.000 A 
ATOM     11  F   UNL     1       1.722   9.587  19.320  0.00  0.00    +0.000 F 
ATOM     12  C   UNL     1       1.691   7.524  20.460  0.00  0.00    +0.000 A 
ATOM     13  C   UNL     1       1.890   6.142  20.447  0.00  0.00    +0.000 A 
ENDBRANCH   4   7
BRANCH   1  14
ATOM     14  O   UNL     1       3.907   0.849  18.468  0.00  0.00    +0.000 OA
ATOM     15  H   UNL     1       3.689   0.622  17.549  0.00  0.00    +0.000 HD
ENDBRANCH   1  14
BRANCH   5  16
ATOM     16  N   UNL     1       4.522   3.842  17.746  0.00  0.00    +0.000 NA
ATOM     17  N   UNL     1       4.511   3.437  16.566  0.00  0.00    +0.000 NA
BRANCH  17  18
ATOM     18  C   UNL     1       5.529   4.017  15.783  0.00  0.00    +0.000 A 
ATOM     19  C   UNL     1       6.384   4.943  16.380  0.00  0.00    +0.000 A 
ATOM     20  N   UNL     1       7.395   5.594  15.746  0.00  0.00    +0.000 NA
ATOM     21  C   UNL     1       7.554   5.310  14.433  0.00  0.00    +0.000 A 
ATOM     22  C   UNL     1       6.755   4.414  13.739  0.00  0.00    +0.000 A 
ATOM     23 CL   UNL     1       7.020   4.113  12.069  0.00  0.00    +0.000 Cl
ATOM     24  C   UNL     1       5.730   3.764  14.421  0.00  0.00    +0.000 A 
ENDBRANCH  17  18
ENDBRANCH   5  16
TORSDOF 4
ENDMDL
MODEL 6
REMARK VINA RESULT:      -7.8      4.328      6.802
REMARK  Name = 
REMARK  4 active torsions:
REMARK  status: ('A' for Active; 'I' for Inactive)
REMARK    1  A    between atoms: O_1  and  C_2
REMARK    2  A    between atoms: C_5  and  C_6
REMARK    3  A    between atoms: C_13  and  N_14
REMARK    4  A    between atoms: N_15  and  C_16
REMARK                            x       y       z     vdW  Elec       q    Type
REMARK                         _______ _______ _______ _____ _____    ______ ____
ROOT
ATOM      1  C   UNL     1       2.077   3.855  20.240  0.00  0.00    +0.000 A 
ATOM      2  N   UNL     1       2.973   2.845  20.015  0.00  0.00    +0.000 N 
ATOM      3  N   UNL     1       4.122   3.239  19.443  0.00  0.00    +0.000 NA
ATOM      4  C   UNL     1       3.993   4.574  19.312  0.00  0.00    +0.000 A 
ATOM      5  C   UNL     1       2.720   4.990  19.796  0.00  0.00    +0.000 A 
ATOM      6  H   UNL     1       2.863   1.858  20.215  0.00  0.00    +0.000 HD
ENDROOT
BRANCH   4   7
ATOM      7  C   UNL     1       5.077   5.378  18.738  0.00  0.00    +0.000 A 
ATOM      8  C   UNL     1       4.831   6.201  17.625  0.00  0.00    +0.000 A 
ATOM      9  C   UNL     1       5.857   6.964  17.061  0.00  0.00    +0.000 A 
ATOM     10  C   UNL     1       7.133   6.904  17.606  0.00  0.00    +0.000 A 
ATOM     11  F   UNL     1       8.119   7.630  17.064  0.00  0.00    +0.000 F 
ATOM     12  C   UNL     1       7.403   6.094  18.701  0.00  0.00    +0.000 A 
ATOM     13  C   UNL     1       6.379   5.329  19.265  0.00  0.00    +0.000 A 
ENDBRANCH   4   7
BRANCH   1  14
ATOM     14  O   UNL     1       0.870   3.662  20.766  0.00  0.00    +0.000 OA
ATOM     15  H   UNL     1       0.178   3.996  20.171  0.00  0.00    +0.000 HD
ENDBRANCH   1  14
BRANCH   5  16
ATOM     16  N   UNL     1       2.229   6.302  19.747  0.00  0.00    +0.000 NA
ATOM     17  N   UNL     1       1.695   6.673  20.812  0.00  0.00    +0.000 NA
BRANCH  17  18
ATOM     18  C   UNL     1       1.227   8.000  20.752  0.00  0.00    +0.000 A 
ATOM     19  C   UNL     1       1.492   8.750  19.607  0.00  0.00    +0.000 A 
ATOM     20  N   UNL     1       1.120  10.043  19.417  0.00  0.00    +0.000 NA
ATOM     21  C   UNL     1       0.450  10.626  20.438  0.00  0.00    +0.000 A 
ATOM     22  C   UNL     1       0.142   9.976  21.624  0.00  0.00    +0.000 A 
ATOM     23 CL   UNL     1      -0.707  10.789  22.875  0.00  0.00    +0.000 Cl
ATOM     24  C   UNL     1       0.537   8.650  21.783  0.00  0.00    +0.000 A 
ENDBRANCH  17  18
ENDBRANCH   5  16
TORSDOF 4
ENDMDL
MODEL 7
REMARK VINA RESULT:      -7.8      4.234      6.587
REMARK  Name = 
REMARK  4 active torsions:
REMARK  status: ('A' for Active; 'I' for Inactive)
REMARK    1  A    between atoms: O_1  and  C_2
REMARK    2  A    between atoms: C_5  and  C_6
REMARK    3  A    between atoms: C_13  and  N_14
REMARK    4  A    between atoms: N_15  and  C_16
REMARK                            x       y       z     vdW  Elec       q    Type
REMARK                         _______ _______ _______ _____ _____    ______ ____
ROOT
ATOM      1  C   UNL     1       4.792   5.790  16.474  0.00  0.00    +0.000 A 
ATOM      2  N   UNL     1       5.025   4.462  16.240  0.00  0.00    +0.000 N 
ATOM      3  N   UNL     1       4.458   3.633  17.132  0.00  0.00    +0.000 NA
ATOM      4  C   UNL     1       3.795   4.448  17.975  0.00  0.00    +0.000 A 
ATOM      5  C   UNL     1       3.989   5.806  17.593  0.00  0.00    +0.000 A 
ATOM      6  H   UNL     1       5.573   4.046  15.496  0.00  0.00    +0.000 HD
ENDROOT
BRANCH   4   7
ATOM      7  C   UNL     1       3.017   3.898  19.091  0.00  0.00    +0.000 A 
ATOM      8  C   UNL     1       1.627   4.094  19.146  0.00  0.00    +0.000 A 
ATOM      9  C   UNL     1       0.875   3.585  20.209  0.00  0.00    +0.000 A 
ATOM     10  C   UNL     1       1.513   2.881  21.221  0.00  0.00    +0.000 A 
ATOM     11  F   UNL     1       0.795   2.397  22.244  0.00  0.00    +0.000 F 
ATOM     12  C   UNL     1       2.887   2.679  21.193  0.00  0.00    +0.000 A 
ATOM     13  C   UNL     1       3.639   3.189  20.132  0.00  0.00    +0.000 A 
ENDBRANCH   4   7
BRANCH   1  14
ATOM     14  O   UNL     1       5.295   6.767  15.723  0.00  0.00    +0.000 OA
ATOM     15  H   UNL     1       5.242   7.618  16.187  0.00  0.00    +0.000 HD
ENDBRANCH   1  14
BRANCH   5  16
ATOM     16  N   UNL     1       3.498   6.917  18.293  0.00  0.00    +0.000 NA
ATOM     17  N   UNL     1       2.357   7.268  17.929  0.00  0.00    +0.000 NA
BRANCH  17  18
ATOM     18  C   UNL     1       1.871   8.372  18.656  0.00  0.00    +0.000 A 
ATOM     19  C   UNL     1       1.820   9.616  18.027  0.00  0.00    +0.000 A 
ATOM     20  N   UNL     1       1.394  10.768  18.608  0.00  0.00    +0.000 NA
ATOM     21  C   UNL     1       1.004  10.674  19.900  0.00  0.00    +0.000 A 
ATOM     22  C   UNL     1       1.022   9.491  20.623  0.00  0.00    +0.000 A 
ATOM     23 CL   UNL     1       0.514   9.456  22.263  0.00  0.00    +0.000 Cl
ATOM     24  C   UNL     1       1.463   8.329  19.995  0.00  0.00    +0.000 A 
ENDBRANCH  17  18
ENDBRANCH   5  16
TORSDOF 4
ENDMDL
MODEL 8
REMARK VINA RESULT:      -7.8      4.238      6.568
REMARK  Name = 
REMARK  4 active torsions:
REMARK  status: ('A' for Active; 'I' for Inactive)
REMARK    1  A    between atoms: O_1  and  C_2
REMARK    2  A    between atoms: C_5  and  C_6
REMARK    3  A    between atoms: C_13  and  N_14
REMARK    4  A    between atoms: N_15  and  C_16
REMARK                            x       y       z     vdW  Elec       q    Type
REMARK                         _______ _______ _______ _____ _____    ______ ____
ROOT
ATOM      1  C   UNL     1       4.814   5.795  16.437  0.00  0.00    +0.000 A 
ATOM      2  N   UNL     1       5.035   4.462  16.219  0.00  0.00    +0.000 N 
ATOM      3  N   UNL     1       4.453   3.648  17.114  0.00  0.00    +0.000 NA
ATOM      4  C   UNL     1       3.790   4.479  17.943  0.00  0.00    +0.000 A 
ATOM      5  C   UNL     1       4.002   5.831  17.549  0.00  0.00    +0.000 A 
ATOM      6  H   UNL     1       5.586   4.034  15.484  0.00  0.00    +0.000 HD
ENDROOT
BRANCH   4   7
ATOM      7  C   UNL     1       2.997   3.948  19.057  0.00  0.00    +0.000 A 
ATOM      8  C   UNL     1       3.629   3.261  20.107  0.00  0.00    +0.000 A 
ATOM      9  C   UNL     1       2.885   2.741  21.170  0.00  0.00    +0.000 A 
ATOM     10  C   UNL     1       1.507   2.904  21.184  0.00  0.00    +0.000 A 
ATOM     11  F   UNL     1       0.791   2.401  22.199  0.00  0.00    +0.000 F 
ATOM     12  C   UNL     1       0.858   3.574  20.155  0.00  0.00    +0.000 A 
ATOM     13  C   UNL     1       1.600   4.093  19.091  0.00  0.00    +0.000 A 
ENDBRANCH   4   7
BRANCH   1  14
ATOM     14  O   UNL     1       5.334   6.759  15.680  0.00  0.00    +0.000 OA
ATOM     15  H   UNL     1       5.183   7.630  16.084  0.00  0.00    +0.000 HD
ENDBRANCH   1  14
BRANCH   5  16
ATOM     16  N   UNL     1       3.516   6.954  18.233  0.00  0.00    +0.000 NA
ATOM     17  N   UNL     1       2.358   7.277  17.898  0.00  0.00    +0.000 NA
BRANCH  17  18
ATOM     18  C   UNL     1       1.878   8.394  18.609  0.00  0.00    +0.000 A 
ATOM     19  C   UNL     1       1.864   9.635  17.973  0.00  0.00    +0.000 A 
ATOM     20  N   UNL     1       1.448  10.797  18.539  0.00  0.00    +0.000 NA
ATOM     21  C   UNL     1       1.029  10.718  19.824  0.00  0.00    +0.000 A 
ATOM     22  C   UNL     1       1.010   9.539  20.553  0.00  0.00    +0.000 A 
ATOM     23 CL   UNL     1       0.468   9.523  22.182  0.00  0.00    +0.000 Cl
ATOM     24  C   UNL     1       1.442   8.365  19.940  0.00  0.00    +0.000 A 
ENDBRANCH  17  18
ENDBRANCH   5  16
TORSDOF 4
ENDMDL
MODEL 9
REMARK VINA RESULT:      -7.7      4.285      6.705
REMARK  Name = 
REMARK  4 active torsions:
REMARK  status: ('A' for Active; 'I' for Inactive)
REMARK    1  A    between atoms: O_1  and  C_2
REMARK    2  A    between atoms: C_5  and  C_6
REMARK    3  A    between atoms: C_13  and  N_14
REMARK    4  A    between atoms: N_15  and  C_16
REMARK                            x       y       z     vdW  Elec       q    Type
REMARK                         _______ _______ _______ _____ _____    ______ ____
ROOT
ATOM      1  C   UNL     1       2.087   3.777  20.202  0.00  0.00    +0.000 A 
ATOM      2  N   UNL     1       3.000   2.779  19.995  0.00  0.00    +0.000 N 
ATOM      3  N   UNL     1       4.143   3.183  19.418  0.00  0.00    +0.000 NA
ATOM      4  C   UNL     1       3.991   4.513  19.264  0.00  0.00    +0.000 A 
ATOM      5  C   UNL     1       2.710   4.915  19.740  0.00  0.00    +0.000 A 
ATOM      6  H   UNL     1       2.907   1.794  20.212  0.00  0.00    +0.000 HD
ENDROOT
BRANCH   4   7
ATOM      7  C   UNL     1       5.062   5.326  18.677  0.00  0.00    +0.000 A 
ATOM      8  C   UNL     1       6.339   5.340  19.265  0.00  0.00    +0.000 A 
ATOM      9  C   UNL     1       7.366   6.118  18.722  0.00  0.00    +0.000 A 
ATOM     10  C   UNL     1       7.117   6.887  17.594  0.00  0.00    +0.000 A 
ATOM     11  F   UNL     1       8.098   7.638  17.075  0.00  0.00    +0.000 F 
ATOM     12  C   UNL     1       5.862   6.896  16.999  0.00  0.00    +0.000 A 
ATOM     13  C   UNL     1       4.835   6.120  17.540  0.00  0.00    +0.000 A 
ENDBRANCH   4   7
BRANCH   1  14
ATOM     14  O   UNL     1       0.882   3.572  20.731  0.00  0.00    +0.000 OA
ATOM     15  H   UNL     1       0.261   3.253  20.055  0.00  0.00    +0.000 HD
ENDBRANCH   1  14
BRANCH   5  16
ATOM     16  N   UNL     1       2.197   6.218  19.669  0.00  0.00    +0.000 NA
ATOM     17  N   UNL     1       1.835   6.670  20.773  0.00  0.00    +0.000 NA
BRANCH  17  18
ATOM     18  C   UNL     1       1.341   7.987  20.686  0.00  0.00    +0.000 A 
ATOM     19  C   UNL     1       1.576   8.712  19.518  0.00  0.00    +0.000 A 
ATOM     20  N   UNL     1       1.178   9.992  19.300  0.00  0.00    +0.000 NA
ATOM     21  C   UNL     1       0.513  10.590  20.316  0.00  0.00    +0.000 A 
ATOM     22  C   UNL     1       0.234   9.965  21.522  0.00  0.00    +0.000 A 
ATOM     23 CL   UNL     1      -0.612  10.795  22.765  0.00  0.00    +0.000 Cl
ATOM     24  C   UNL     1       0.655   8.652  21.710  0.00  0.00    +0.000 A 
ENDBRANCH  17  18
ENDBRANCH   5  16
TORSDOF 4
ENDMDL
