MODEL 1
REMARK VINA RESULT:      -7.5      0.000      0.000
REMARK  Name = 
REMARK  9 active torsions:
REMARK  status: ('A' for Active; 'I' for Inactive)
REMARK    1  A    between atoms: C_2  and  C_3
REMARK    2  A    between atoms: C_3  and  C_4
REMARK    3  A    between atoms: C_7  and  O_8
REMARK    4  A    between atoms: O_8  and  C_9
REMARK    5  A    between atoms: C_9  and  C_11
REMARK    6  A    between atoms: C_15  and  O_16
REMARK    7  A    between atoms: O_16  and  C_17
REMARK    8  A    between atoms: C_19  and  O_20
REMARK    9  A    between atoms: O_20  and  C_21
REMARK                            x       y       z     vdW  Elec       q    Type
REMARK                         _______ _______ _______ _____ _____    ______ ____
ROOT
ATOM      1  C   UNL     1       6.330   4.374  14.978  0.00  0.00    +0.000 A 
ATOM      2  C   UNL     1       5.049   4.015  15.417  0.00  0.00    +0.000 A 
ATOM      3  C   UNL     1       4.786   3.892  16.776  0.00  0.00    +0.000 A 
ATOM      4  C   UNL     1       5.806   4.120  17.703  0.00  0.00    +0.000 A 
ATOM      5  C   UNL     1       7.098   4.482  17.291  0.00  0.00    +0.000 A 
ATOM      6  C   UNL     1       7.351   4.601  15.922  0.00  0.00    +0.000 A 
ENDROOT
BRANCH   5   7
ATOM      7  O   UNL     1       8.005   4.749  18.282  0.00  0.00    +0.000 OA
ATOM      8  C   UNL     1       7.919   6.031  18.901  0.00  0.00    +0.000 C 
ENDBRANCH   5   7
BRANCH   1   9
ATOM      9  C   UNL     1       6.583   4.584  13.504  0.00  0.00    +0.000 C 
BRANCH   9  11
ATOM     10  C   UNL     1       5.057   3.372  11.911  0.00  0.00    +0.000 C 
ATOM     11  C   UNL     1       6.151   3.399  12.685  0.00  0.00    +0.000 C 
ENDBRANCH   9  11
ENDBRANCH   1   9
BRANCH   4  12
ATOM     12  O   UNL     1       5.506   4.155  19.076  0.00  0.00    +0.000 OA
BRANCH  12  13
ATOM     13  C   UNL     1       4.610   3.227  19.579  0.00  0.00    +0.000 C 
ATOM     14  O   UNL     1       4.772   2.030  19.727  0.00  0.00    +0.000 OA
BRANCH  13  15
ATOM     15  C   UNL     1       3.366   3.949  19.936  0.00  0.00    +0.000 A 
ATOM     16  C   UNL     1       2.211   3.254  20.321  0.00  0.00    +0.000 A 
ATOM     17  C   UNL     1       1.047   3.956  20.610  0.00  0.00    +0.000 A 
ATOM     18  C   UNL     1       1.039   5.347  20.517  0.00  0.00    +0.000 A 
ATOM     19  C   UNL     1       2.199   6.051  20.171  0.00  0.00    +0.000 A 
ATOM     20  C   UNL     1       3.373   5.349  19.902  0.00  0.00    +0.000 A 
BRANCH  19  21
ATOM     21  O   UNL     1       2.045   7.409  20.115  0.00  0.00    +0.000 OA
ATOM     22  C   UNL     1       1.130   7.990  21.035  0.00  0.00    +0.000 C 
ENDBRANCH  19  21
ENDBRANCH  13  15
ENDBRANCH  12  13
ENDBRANCH   4  12
TORSDOF 7
ENDMDL
MODEL 2
REMARK VINA RESULT:      -7.3      2.266      7.188
REMARK  Name = 
REMARK  9 active torsions:
REMARK  status: ('A' for Active; 'I' for Inactive)
REMARK    1  A    between atoms: C_2  and  C_3
REMARK    2  A    between atoms: C_3  and  C_4
REMARK    3  A    between atoms: C_7  and  O_8
REMARK    4  A    between atoms: O_8  and  C_9
REMARK    5  A    between atoms: C_9  and  C_11
REMARK    6  A    between atoms: C_15  and  O_16
REMARK    7  A    between atoms: O_16  and  C_17
REMARK    8  A    between atoms: C_19  and  O_20
REMARK    9  A    between atoms: O_20  and  C_21
REMARK                            x       y       z     vdW  Elec       q    Type
REMARK                         _______ _______ _______ _____ _____    ______ ____
ROOT
ATOM      1  C   UNL     1       3.271   4.136  19.295  0.00  0.00    +0.000 A 
ATOM      2  C   UNL     1       3.988   3.278  18.452  0.00  0.00    +0.000 A 
ATOM      3  C   UNL     1       4.650   3.783  17.340  0.00  0.00    +0.000 A 
ATOM      4  C   UNL     1       4.591   5.151  17.061  0.00  0.00    +0.000 A 
ATOM      5  C   UNL     1       3.881   6.034  17.889  0.00  0.00    +0.000 A 
ATOM      6  C   UNL     1       3.218   5.514  19.003  0.00  0.00    +0.000 A 
ENDROOT
BRANCH   5   7
ATOM      7  O   UNL     1       3.943   7.363  17.564  0.00  0.00    +0.000 OA
ATOM      8  C   UNL     1       2.788   8.148  17.850  0.00  0.00    +0.000 C 
ENDBRANCH   5   7
BRANCH   1   9
ATOM      9  C   UNL     1       2.624   3.588  20.544  0.00  0.00    +0.000 C 
BRANCH   9  11
ATOM     10  C   UNL     1       0.538   2.734  19.424  0.00  0.00    +0.000 C 
ATOM     11  C   UNL     1       1.135   3.445  20.390  0.00  0.00    +0.000 C 
ENDBRANCH   9  11
ENDBRANCH   1   9
BRANCH   4  12
ATOM     12  O   UNL     1       5.388   5.689  16.034  0.00  0.00    +0.000 OA
BRANCH  12  13
ATOM     13  C   UNL     1       6.667   5.187  15.861  0.00  0.00    +0.000 C 
ATOM     14  O   UNL     1       7.538   5.045  16.699  0.00  0.00    +0.000 OA
BRANCH  13  15
ATOM     15  C   UNL     1       6.818   4.823  14.433  0.00  0.00    +0.000 A 
ATOM     16  C   UNL     1       7.774   5.453  13.623  0.00  0.00    +0.000 A 
ATOM     17  C   UNL     1       7.865   5.121  12.276  0.00  0.00    +0.000 A 
ATOM     18  C   UNL     1       7.007   4.160  11.743  0.00  0.00    +0.000 A 
ATOM     19  C   UNL     1       6.077   3.498  12.554  0.00  0.00    +0.000 A 
ATOM     20  C   UNL     1       5.999   3.816  13.909  0.00  0.00    +0.000 A 
BRANCH  19  21
ATOM     21  O   UNL     1       5.299   2.584  11.898  0.00  0.00    +0.000 OA
ATOM     22  C   UNL     1       4.150   3.083  11.224  0.00  0.00    +0.000 C 
ENDBRANCH  19  21
ENDBRANCH  13  15
ENDBRANCH  12  13
ENDBRANCH   4  12
TORSDOF 7
ENDMDL
MODEL 3
REMARK VINA RESULT:      -7.2      2.476      6.165
REMARK  Name = 
REMARK  9 active torsions:
REMARK  status: ('A' for Active; 'I' for Inactive)
REMARK    1  A    between atoms: C_2  and  C_3
REMARK    2  A    between atoms: C_3  and  C_4
REMARK    3  A    between atoms: C_7  and  O_8
REMARK    4  A    between atoms: O_8  and  C_9
REMARK    5  A    between atoms: C_9  and  C_11
REMARK    6  A    between atoms: C_15  and  O_16
REMARK    7  A    between atoms: O_16  and  C_17
REMARK    8  A    between atoms: C_19  and  O_20
REMARK    9  A    between atoms: O_20  and  C_21
REMARK                            x       y       z     vdW  Elec       q    Type
REMARK                         _______ _______ _______ _____ _____    ______ ____
ROOT
ATOM      1  C   UNL     1       1.612   3.734  19.155  0.00  0.00    +0.000 A 
ATOM      2  C   UNL     1       2.088   2.889  18.145  0.00  0.00    +0.000 A 
ATOM      3  C   UNL     1       2.964   3.375  17.183  0.00  0.00    +0.000 A 
ATOM      4  C   UNL     1       3.362   4.714  17.221  0.00  0.00    +0.000 A 
ATOM      5  C   UNL     1       2.903   5.583  18.223  0.00  0.00    +0.000 A 
ATOM      6  C   UNL     1       2.022   5.083  19.185  0.00  0.00    +0.000 A 
ENDROOT
BRANCH   5   7
ATOM      7  O   UNL     1       3.409   6.856  18.210  0.00  0.00    +0.000 OA
ATOM      8  C   UNL     1       2.465   7.921  18.298  0.00  0.00    +0.000 C 
ENDBRANCH   5   7
BRANCH   1   9
ATOM      9  C   UNL     1       0.726   3.175  20.243  0.00  0.00    +0.000 C 
BRANCH   9  11
ATOM     10  C   UNL     1       2.753   2.606  21.624  0.00  0.00    +0.000 C 
ATOM     11  C   UNL     1       1.472   2.991  21.536  0.00  0.00    +0.000 C 
ENDBRANCH   9  11
ENDBRANCH   1   9
BRANCH   4  12
ATOM     12  O   UNL     1       4.369   5.167  16.350  0.00  0.00    +0.000 OA
BRANCH  12  13
ATOM     13  C   UNL     1       5.598   4.529  16.373  0.00  0.00    +0.000 C 
ATOM     14  O   UNL     1       5.921   3.503  15.804  0.00  0.00    +0.000 OA
BRANCH  13  15
ATOM     15  C   UNL     1       6.505   5.327  17.230  0.00  0.00    +0.000 A 
ATOM     16  C   UNL     1       6.866   4.885  18.510  0.00  0.00    +0.000 A 
ATOM     17  C   UNL     1       7.687   5.675  19.308  0.00  0.00    +0.000 A 
ATOM     18  C   UNL     1       8.146   6.900  18.825  0.00  0.00    +0.000 A 
ATOM     19  C   UNL     1       7.821   7.330  17.533  0.00  0.00    +0.000 A 
ATOM     20  C   UNL     1       7.016   6.529  16.724  0.00  0.00    +0.000 A 
BRANCH  19  21
ATOM     21  O   UNL     1       8.336   8.551  17.194  0.00  0.00    +0.000 OA
ATOM     22  C   UNL     1       8.166   9.604  18.134  0.00  0.00    +0.000 C 
ENDBRANCH  19  21
ENDBRANCH  13  15
ENDBRANCH  12  13
ENDBRANCH   4  12
TORSDOF 7
ENDMDL
MODEL 4
REMARK VINA RESULT:      -7.2      1.873      6.686
REMARK  Name = 
REMARK  9 active torsions:
REMARK  status: ('A' for Active; 'I' for Inactive)
REMARK    1  A    between atoms: C_2  and  C_3
REMARK    2  A    between atoms: C_3  and  C_4
REMARK    3  A    between atoms: C_7  and  O_8
REMARK    4  A    between atoms: O_8  and  C_9
REMARK    5  A    between atoms: C_9  and  C_11
REMARK    6  A    between atoms: C_15  and  O_16
REMARK    7  A    between atoms: O_16  and  C_17
REMARK    8  A    between atoms: C_19  and  O_20
REMARK    9  A    between atoms: O_20  and  C_21
REMARK                            x       y       z     vdW  Elec       q    Type
REMARK                         _______ _______ _______ _____ _____    ______ ____
ROOT
ATOM      1  C   UNL     1       1.813   6.983  20.282  0.00  0.00    +0.000 A 
ATOM      2  C   UNL     1       2.350   7.259  19.018  0.00  0.00    +0.000 A 
ATOM      3  C   UNL     1       2.582   6.228  18.117  0.00  0.00    +0.000 A 
ATOM      4  C   UNL     1       2.286   4.911  18.480  0.00  0.00    +0.000 A 
ATOM      5  C   UNL     1       1.747   4.605  19.739  0.00  0.00    +0.000 A 
ATOM      6  C   UNL     1       1.519   5.651  20.637  0.00  0.00    +0.000 A 
ENDROOT
BRANCH   5   7
ATOM      7  O   UNL     1       1.430   3.292  19.967  0.00  0.00    +0.000 OA
ATOM      8  C   UNL     1       1.496   2.843  21.319  0.00  0.00    +0.000 C 
ENDBRANCH   5   7
BRANCH   1   9
ATOM      9  C   UNL     1       1.489   8.119  21.221  0.00  0.00    +0.000 C 
BRANCH   9  11
ATOM     10  C   UNL     1      -0.021  10.129  21.077  0.00  0.00    +0.000 C 
ATOM     11  C   UNL     1       0.837   9.271  20.506  0.00  0.00    +0.000 C 
ENDBRANCH   9  11
ENDBRANCH   1   9
BRANCH   4  12
ATOM     12  O   UNL     1       2.368   3.888  17.518  0.00  0.00    +0.000 OA
BRANCH  12  13
ATOM     13  C   UNL     1       3.437   3.010  17.578  0.00  0.00    +0.000 C 
ATOM     14  O   UNL     1       3.425   1.831  17.879  0.00  0.00    +0.000 OA
BRANCH  13  15
ATOM     15  C   UNL     1       4.656   3.758  17.192  0.00  0.00    +0.000 A 
ATOM     16  C   UNL     1       4.861   4.175  15.870  0.00  0.00    +0.000 A 
ATOM     17  C   UNL     1       6.034   4.840  15.529  0.00  0.00    +0.000 A 
ATOM     18  C   UNL     1       6.995   5.089  16.508  0.00  0.00    +0.000 A 
ATOM     19  C   UNL     1       6.781   4.710  17.838  0.00  0.00    +0.000 A 
ATOM     20  C   UNL     1       5.596   4.063  18.185  0.00  0.00    +0.000 A 
BRANCH  19  21
ATOM     21  O   UNL     1       7.808   5.013  18.689  0.00  0.00    +0.000 OA
ATOM     22  C   UNL     1       8.054   6.393  18.931  0.00  0.00    +0.000 C 
ENDBRANCH  19  21
ENDBRANCH  13  15
ENDBRANCH  12  13
ENDBRANCH   4  12
TORSDOF 7
ENDMDL
MODEL 5
REMARK VINA RESULT:      -7.1      1.996      3.350
REMARK  Name = 
REMARK  9 active torsions:
REMARK  status: ('A' for Active; 'I' for Inactive)
REMARK    1  A    between atoms: C_2  and  C_3
REMARK    2  A    between atoms: C_3  and  C_4
REMARK    3  A    between atoms: C_7  and  O_8
REMARK    4  A    between atoms: O_8  and  C_9
REMARK    5  A    between atoms: C_9  and  C_11
REMARK    6  A    between atoms: C_15  and  O_16
REMARK    7  A    between atoms: O_16  and  C_17
REMARK    8  A    between atoms: C_19  and  O_20
REMARK    9  A    between atoms: O_20  and  C_21
REMARK                            x       y       z     vdW  Elec       q    Type
REMARK                         _______ _______ _______ _____ _____    ______ ____
ROOT
ATOM      1  C   UNL     1       6.038   4.936  15.707  0.00  0.00    +0.000 A 
ATOM      2  C   UNL     1       5.277   6.110  15.646  0.00  0.00    +0.000 A 
ATOM      3  C   UNL     1       4.565   6.538  16.759  0.00  0.00    +0.000 A 
ATOM      4  C   UNL     1       4.603   5.789  17.938  0.00  0.00    +0.000 A 
ATOM      5  C   UNL     1       5.359   4.609  18.027  0.00  0.00    +0.000 A 
ATOM      6  C   UNL     1       6.070   4.188  16.901  0.00  0.00    +0.000 A 
ENDROOT
BRANCH   5   7
ATOM      7  O   UNL     1       5.383   3.988  19.248  0.00  0.00    +0.000 OA
ATOM      8  C   UNL     1       4.529   2.857  19.408  0.00  0.00    +0.000 C 
ENDBRANCH   5   7
BRANCH   1   9
ATOM      9  C   UNL     1       6.873   4.524  14.518  0.00  0.00    +0.000 C 
BRANCH   9  11
ATOM     10  C   UNL     1       6.430   3.552  12.239  0.00  0.00    +0.000 C 
ATOM     11  C   UNL     1       6.077   3.729  13.520  0.00  0.00    +0.000 C 
ENDBRANCH   9  11
ENDBRANCH   1   9
BRANCH   4  12
ATOM     12  O   UNL     1       4.017   6.300  19.110  0.00  0.00    +0.000 OA
BRANCH  12  13
ATOM     13  C   UNL     1       2.649   6.169  19.275  0.00  0.00    +0.000 C 
ATOM     14  O   UNL     1       2.000   5.144  19.382  0.00  0.00    +0.000 OA
BRANCH  13  15
ATOM     15  C   UNL     1       2.066   7.530  19.312  0.00  0.00    +0.000 A 
ATOM     16  C   UNL     1       2.011   8.326  18.159  0.00  0.00    +0.000 A 
ATOM     17  C   UNL     1       1.496   9.615  18.233  0.00  0.00    +0.000 A 
ATOM     18  C   UNL     1       1.036  10.105  19.455  0.00  0.00    +0.000 A 
ATOM     19  C   UNL     1       1.053   9.303  20.603  0.00  0.00    +0.000 A 
ATOM     20  C   UNL     1       1.549   8.003  20.525  0.00  0.00    +0.000 A 
BRANCH  19  21
ATOM     21  O   UNL     1       0.575   9.914  21.730  0.00  0.00    +0.000 OA
ATOM     22  C   UNL     1      -0.085  11.161  21.554  0.00  0.00    +0.000 C 
ENDBRANCH  19  21
ENDBRANCH  13  15
ENDBRANCH  12  13
ENDBRANCH   4  12
TORSDOF 7
ENDMDL
MODEL 6
REMARK VINA RESULT:      -7.1      2.157      7.258
REMARK  Name = 
REMARK  9 active torsions:
REMARK  status: ('A' for Active; 'I' for Inactive)
REMARK    1  A    between atoms: C_2  and  C_3
REMARK    2  A    between atoms: C_3  and  C_4
REMARK    3  A    between atoms: C_7  and  O_8
REMARK    4  A    between atoms: O_8  and  C_9
REMARK    5  A    between atoms: C_9  and  C_11
REMARK    6  A    between atoms: C_15  and  O_16
REMARK    7  A    between atoms: O_16  and  C_17
REMARK    8  A    between atoms: C_19  and  O_20
REMARK    9  A    between atoms: O_20  and  C_21
REMARK                            x       y       z     vdW  Elec       q    Type
REMARK                         _______ _______ _______ _____ _____    ______ ____
ROOT
ATOM      1  C   UNL     1       3.025   4.420  19.051  0.00  0.00    +0.000 A 
ATOM      2  C   UNL     1       2.769   4.292  17.680  0.00  0.00    +0.000 A 
ATOM      3  C   UNL     1       3.821   4.233  16.776  0.00  0.00    +0.000 A 
ATOM      4  C   UNL     1       5.138   4.310  17.238  0.00  0.00    +0.000 A 
ATOM      5  C   UNL     1       5.424   4.437  18.606  0.00  0.00    +0.000 A 
ATOM      6  C   UNL     1       4.357   4.497  19.506  0.00  0.00    +0.000 A 
ENDROOT
BRANCH   5   7
ATOM      7  O   UNL     1       6.748   4.435  18.958  0.00  0.00    +0.000 OA
ATOM      8  C   UNL     1       7.297   5.678  19.391  0.00  0.00    +0.000 C 
ENDBRANCH   5   7
BRANCH   1   9
ATOM      9  C   UNL     1       1.877   4.401  20.032  0.00  0.00    +0.000 C 
BRANCH   9  11
ATOM     10  C   UNL     1       1.763   6.907  20.237  0.00  0.00    +0.000 C 
ATOM     11  C   UNL     1       1.771   5.690  20.799  0.00  0.00    +0.000 C 
ENDBRANCH   9  11
ENDBRANCH   1   9
BRANCH   4  12
ATOM     12  O   UNL     1       6.204   4.089  16.347  0.00  0.00    +0.000 OA
BRANCH  12  13
ATOM     13  C   UNL     1       6.706   5.168  15.640  0.00  0.00    +0.000 C 
ATOM     14  O   UNL     1       7.001   6.271  16.061  0.00  0.00    +0.000 OA
BRANCH  13  15
ATOM     15  C   UNL     1       6.846   4.753  14.224  0.00  0.00    +0.000 A 
ATOM     16  C   UNL     1       7.706   5.434  13.352  0.00  0.00    +0.000 A 
ATOM     17  C   UNL     1       7.786   5.048  12.019  0.00  0.00    +0.000 A 
ATOM     18  C   UNL     1       7.012   3.982  11.562  0.00  0.00    +0.000 A 
ATOM     19  C   UNL     1       6.179   3.272  12.436  0.00  0.00    +0.000 A 
ATOM     20  C   UNL     1       6.114   3.645  13.777  0.00  0.00    +0.000 A 
BRANCH  19  21
ATOM     21  O   UNL     1       5.476   2.256  11.851  0.00  0.00    +0.000 OA
ATOM     22  C   UNL     1       6.225   1.299  11.111  0.00  0.00    +0.000 C 
ENDBRANCH  19  21
ENDBRANCH  13  15
ENDBRANCH  12  13
ENDBRANCH   4  12
TORSDOF 7
ENDMDL
MODEL 7
REMARK VINA RESULT:      -7.1      1.910      6.834
REMARK  Name = 
REMARK  9 active torsions:
REMARK  status: ('A' for Active; 'I' for Inactive)
REMARK    1  A    between atoms: C_2  and  C_3
REMARK    2  A    between atoms: C_3  and  C_4
REMARK    3  A    between atoms: C_7  and  O_8
REMARK    4  A    between atoms: O_8  and  C_9
REMARK    5  A    between atoms: C_9  and  C_11
REMARK    6  A    between atoms: C_15  and  O_16
REMARK    7  A    between atoms: O_16  and  C_17
REMARK    8  A    between atoms: C_19  and  O_20
REMARK    9  A    between atoms: O_20  and  C_21
REMARK                            x       y       z     vdW  Elec       q    Type
REMARK                         _______ _______ _______ _____ _____    ______ ____
ROOT
ATOM      1  C   UNL     1       1.685   7.604  20.194  0.00  0.00    +0.000 A 
ATOM      2  C   UNL     1       2.281   7.589  18.926  0.00  0.00    +0.000 A 
ATOM      3  C   UNL     1       2.870   6.426  18.446  0.00  0.00    +0.000 A 
ATOM      4  C   UNL     1       2.875   5.274  19.235  0.00  0.00    +0.000 A 
ATOM      5  C   UNL     1       2.284   5.260  20.508  0.00  0.00    +0.000 A 
ATOM      6  C   UNL     1       1.695   6.435  20.981  0.00  0.00    +0.000 A 
ENDROOT
BRANCH   5   7
ATOM      7  O   UNL     1       2.283   4.060  21.170  0.00  0.00    +0.000 OA
ATOM      8  C   UNL     1       1.174   3.197  20.930  0.00  0.00    +0.000 C 
ENDBRANCH   5   7
BRANCH   1   9
ATOM      9  C   UNL     1       0.976   8.848  20.672  0.00  0.00    +0.000 C 
BRANCH   9  11
ATOM     10  C   UNL     1      -0.455   9.388  22.672  0.00  0.00    +0.000 C 
ATOM     11  C   UNL     1      -0.064   8.536  21.713  0.00  0.00    +0.000 C 
ENDBRANCH   9  11
ENDBRANCH   1   9
BRANCH   4  12
ATOM     12  O   UNL     1       3.325   4.057  18.691  0.00  0.00    +0.000 OA
BRANCH  12  13
ATOM     13  C   UNL     1       4.619   3.650  18.968  0.00  0.00    +0.000 C 
ATOM     14  O   UNL     1       4.985   2.790  19.748  0.00  0.00    +0.000 OA
BRANCH  13  15
ATOM     15  C   UNL     1       5.535   4.451  18.123  0.00  0.00    +0.000 A 
ATOM     16  C   UNL     1       5.583   4.269  16.733  0.00  0.00    +0.000 A 
ATOM     17  C   UNL     1       6.481   5.006  15.970  0.00  0.00    +0.000 A 
ATOM     18  C   UNL     1       7.325   5.923  16.594  0.00  0.00    +0.000 A 
ATOM     19  C   UNL     1       7.256   6.139  17.976  0.00  0.00    +0.000 A 
ATOM     20  C   UNL     1       6.341   5.416  18.739  0.00  0.00    +0.000 A 
BRANCH  19  21
ATOM     21  O   UNL     1       8.144   7.064  18.452  0.00  0.00    +0.000 OA
ATOM     22  C   UNL     1       8.081   8.367  17.885  0.00  0.00    +0.000 C 
ENDBRANCH  19  21
ENDBRANCH  13  15
ENDBRANCH  12  13
ENDBRANCH   4  12
TORSDOF 7
ENDMDL
MODEL 8
REMARK VINA RESULT:      -7.0      2.063      3.936
REMARK  Name = 
REMARK  9 active torsions:
REMARK  status: ('A' for Active; 'I' for Inactive)
REMARK    1  A    between atoms: C_2  and  C_3
REMARK    2  A    between atoms: C_3  and  C_4
REMARK    3  A    between atoms: C_7  and  O_8
REMARK    4  A    between atoms: O_8  and  C_9
REMARK    5  A    between atoms: C_9  and  C_11
REMARK    6  A    between atoms: C_15  and  O_16
REMARK    7  A    between atoms: O_16  and  C_17
REMARK    8  A    between atoms: C_19  and  O_20
REMARK    9  A    between atoms: O_20  and  C_21
REMARK                            x       y       z     vdW  Elec       q    Type
REMARK                         _______ _______ _______ _____ _____    ______ ____
ROOT
ATOM      1  C   UNL     1       5.692   3.440  12.479  0.00  0.00    +0.000 A 
ATOM      2  C   UNL     1       5.081   3.372  13.737  0.00  0.00    +0.000 A 
ATOM      3  C   UNL     1       5.619   4.065  14.813  0.00  0.00    +0.000 A 
ATOM      4  C   UNL     1       6.779   4.824  14.639  0.00  0.00    +0.000 A 
ATOM      5  C   UNL     1       7.412   4.912  13.389  0.00  0.00    +0.000 A 
ATOM      6  C   UNL     1       6.862   4.210  12.314  0.00  0.00    +0.000 A 
ENDROOT
BRANCH   5   7
ATOM      7  O   UNL     1       8.502   5.738  13.311  0.00  0.00    +0.000 OA
ATOM      8  C   UNL     1       8.704   6.417  12.073  0.00  0.00    +0.000 C 
ENDBRANCH   5   7
BRANCH   1   9
ATOM      9  C   UNL     1       5.053   2.750  11.298  0.00  0.00    +0.000 C 
BRANCH   9  11
ATOM     10  C   UNL     1       3.211   3.791   9.934  0.00  0.00    +0.000 C 
ATOM     11  C   UNL     1       3.643   3.221  11.068  0.00  0.00    +0.000 C 
ENDBRANCH   9  11
ENDBRANCH   1   9
BRANCH   4  12
ATOM     12  O   UNL     1       7.234   5.653  15.681  0.00  0.00    +0.000 OA
BRANCH  12  13
ATOM     13  C   UNL     1       7.128   5.194  16.983  0.00  0.00    +0.000 C 
ATOM     14  O   UNL     1       7.940   4.551  17.621  0.00  0.00    +0.000 OA
BRANCH  13  15
ATOM     15  C   UNL     1       5.815   5.634  17.510  0.00  0.00    +0.000 A 
ATOM     16  C   UNL     1       5.170   6.767  16.994  0.00  0.00    +0.000 A 
ATOM     17  C   UNL     1       3.959   7.180  17.536  0.00  0.00    +0.000 A 
ATOM     18  C   UNL     1       3.393   6.460  18.587  0.00  0.00    +0.000 A 
ATOM     19  C   UNL     1       4.010   5.305  19.082  0.00  0.00    +0.000 A 
ATOM     20  C   UNL     1       5.215   4.878  18.525  0.00  0.00    +0.000 A 
BRANCH  19  21
ATOM     21  O   UNL     1       3.346   4.703  20.115  0.00  0.00    +0.000 OA
ATOM     22  C   UNL     1       2.868   3.382  19.888  0.00  0.00    +0.000 C 
ENDBRANCH  19  21
ENDBRANCH  13  15
ENDBRANCH  12  13
ENDBRANCH   4  12
TORSDOF 7
ENDMDL
MODEL 9
REMARK VINA RESULT:      -7.0      1.756      2.512
REMARK  Name = 
REMARK  9 active torsions:
REMARK  status: ('A' for Active; 'I' for Inactive)
REMARK    1  A    between atoms: C_2  and  C_3
REMARK    2  A    between atoms: C_3  and  C_4
REMARK    3  A    between atoms: C_7  and  O_8
REMARK    4  A    between atoms: O_8  and  C_9
REMARK    5  A    between atoms: C_9  and  C_11
REMARK    6  A    between atoms: C_15  and  O_16
REMARK    7  A    between atoms: O_16  and  C_17
REMARK    8  A    between atoms: C_19  and  O_20
REMARK    9  A    between atoms: O_20  and  C_21
REMARK                            x       y       z     vdW  Elec       q    Type
REMARK                         _______ _______ _______ _____ _____    ______ ____
ROOT
ATOM      1  C   UNL     1       6.492   4.377  14.288  0.00  0.00    +0.000 A 
ATOM      2  C   UNL     1       5.221   4.001  14.740  0.00  0.00    +0.000 A 
ATOM      3  C   UNL     1       4.816   4.321  16.030  0.00  0.00    +0.000 A 
ATOM      4  C   UNL     1       5.686   5.010  16.879  0.00  0.00    +0.000 A 
ATOM      5  C   UNL     1       6.965   5.401  16.451  0.00  0.00    +0.000 A 
ATOM      6  C   UNL     1       7.361   5.073  15.152  0.00  0.00    +0.000 A 
ENDROOT
BRANCH   5   7
ATOM      7  O   UNL     1       7.710   6.132  17.338  0.00  0.00    +0.000 OA
ATOM      8  C   UNL     1       7.530   7.546  17.313  0.00  0.00    +0.000 C 
ENDBRANCH   5   7
BRANCH   1   9
ATOM      9  C   UNL     1       6.890   4.097  12.859  0.00  0.00    +0.000 C 
BRANCH   9  11
ATOM     10  C   UNL     1       4.847   3.321  11.608  0.00  0.00    +0.000 C 
ATOM     11  C   UNL     1       6.009   3.057  12.223  0.00  0.00    +0.000 C 
ENDBRANCH   9  11
ENDBRANCH   1   9
BRANCH   4  12
ATOM     12  O   UNL     1       5.224   5.475  18.123  0.00  0.00    +0.000 OA
BRANCH  12  13
ATOM     13  C   UNL     1       4.022   6.161  18.166  0.00  0.00    +0.000 C 
ATOM     14  O   UNL     1       3.805   7.317  17.856  0.00  0.00    +0.000 OA
BRANCH  13  15
ATOM     15  C   UNL     1       2.987   5.225  18.664  0.00  0.00    +0.000 A 
ATOM     16  C   UNL     1       2.006   4.707  17.806  0.00  0.00    +0.000 A 
ATOM     17  C   UNL     1       1.023   3.863  18.309  0.00  0.00    +0.000 A 
ATOM     18  C   UNL     1       1.023   3.536  19.665  0.00  0.00    +0.000 A 
ATOM     19  C   UNL     1       2.020   4.018  20.520  0.00  0.00    +0.000 A 
ATOM     20  C   UNL     1       3.019   4.847  20.012  0.00  0.00    +0.000 A 
BRANCH  19  21
ATOM     21  O   UNL     1       1.893   3.621  21.823  0.00  0.00    +0.000 OA
ATOM     22  C   UNL     1       1.873   2.220  22.068  0.00  0.00    +0.000 C 
ENDBRANCH  19  21
ENDBRANCH  13  15
ENDBRANCH  12  13
ENDBRANCH   4  12
TORSDOF 7
ENDMDL
