MODEL 1
REMARK VINA RESULT:      -7.6      0.000      0.000
REMARK  Name = 
REMARK  6 active torsions:
REMARK  status: ('A' for Active; 'I' for Inactive)
REMARK    1  A    between atoms: C_1  and  O_2
REMARK    2  A    between atoms: O_2  and  C_3
REMARK    3  A    between atoms: C_8  and  C_9
REMARK    4  A    between atoms: C_15  and  C_16
REMARK    5  A    between atoms: C_15  and  C_17
REMARK    6  A    between atoms: C_17  and  C_18
REMARK                            x       y       z     vdW  Elec       q    Type
REMARK                         _______ _______ _______ _____ _____    ______ ____
ROOT
ATOM      1  C   UNL     1       1.987   7.940  18.536  0.00  0.00    +0.000 A 
ATOM      2  C   UNL     1       2.977   8.629  17.822  0.00  0.00    +0.000 A 
ATOM      3  C   UNL     1       4.072   7.940  17.298  0.00  0.00    +0.000 A 
ATOM      4  C   UNL     1       4.129   6.589  17.542  0.00  0.00    +0.000 A 
ATOM      5  C   UNL     1       2.983   5.829  17.608  0.00  0.00    +0.000 A 
ATOM      6  C   UNL     1       1.910   6.532  18.259  0.00  0.00    +0.000 A 
ATOM      7  C   UNL     1       3.415   4.394  18.030  0.00  0.00    +0.000 C 
ATOM      8  C   UNL     1       2.216   3.477  17.855  0.00  0.00    +0.000 C 
ATOM      9  C   UNL     1       4.197   4.954  19.232  0.00  0.00    +0.000 C 
ATOM     10  O   UNL     1       4.320   4.506  20.348  0.00  0.00    +0.000 OA
ATOM     11  N   UNL     1       4.877   6.085  18.657  0.00  0.00    +0.000 N 
ATOM     12  H   UNL     1       5.443   6.706  19.225  0.00  0.00    +0.000 HD
ENDROOT
BRANCH   1  18
ATOM     13  C   UNL     1       0.310   9.718  19.467  0.00  0.00    +0.000 A 
ATOM     14  C   UNL     1      -0.291  10.374  20.567  0.00  0.00    +0.000 A 
ATOM     15  C   UNL     1      -0.016   9.984  21.883  0.00  0.00    +0.000 A 
ATOM     16  C   UNL     1       0.866   8.939  22.090  0.00  0.00    +0.000 A 
ATOM     17  C   UNL     1       1.469   8.273  21.012  0.00  0.00    +0.000 A 
ATOM     18  C   UNL     1       1.231   8.629  19.663  0.00  0.00    +0.000 A 
BRANCH  13  20
ATOM     19  C   UNL     1      -1.208   9.996  17.630  0.00  0.00    +0.000 C 
ATOM     20  O   UNL     1       0.095  10.184  18.188  0.00  0.00    +0.000 OA
ENDBRANCH  13  20
ENDBRANCH   1  18
BRANCH   7  21
ATOM     21  C   UNL     1       4.678   3.531  17.554  0.00  0.00    +0.000 C 
BRANCH  21  22
ATOM     22  C   UNL     1       5.436   3.928  16.336  0.00  0.00    +0.000 A 
ATOM     23  C   UNL     1       6.700   4.519  16.475  0.00  0.00    +0.000 A 
ATOM     24  C   UNL     1       7.409   4.903  15.348  0.00  0.00    +0.000 A 
ATOM     25  C   UNL     1       6.860   4.678  14.088  0.00  0.00    +0.000 A 
ATOM     26  F   UNL     1       7.541   5.108  13.015  0.00  0.00    +0.000 F 
ATOM     27  C   UNL     1       5.636   4.030  13.937  0.00  0.00    +0.000 A 
ATOM     28 CL   UNL     1       4.982   3.719  12.381  0.00  0.00    +0.000 Cl
ATOM     29  C   UNL     1       4.933   3.634  15.066  0.00  0.00    +0.000 A 
ENDBRANCH  21  22
ENDBRANCH   7  21
TORSDOF 4
ENDMDL
MODEL 2
REMARK VINA RESULT:      -7.6      1.588      2.392
REMARK  Name = 
REMARK  6 active torsions:
REMARK  status: ('A' for Active; 'I' for Inactive)
REMARK    1  A    between atoms: C_1  and  O_2
REMARK    2  A    between atoms: O_2  and  C_3
REMARK    3  A    between atoms: C_8  and  C_9
REMARK    4  A    between atoms: C_15  and  C_16
REMARK    5  A    between atoms: C_15  and  C_17
REMARK    6  A    between atoms: C_17  and  C_18
REMARK                            x       y       z     vdW  Elec       q    Type
REMARK                         _______ _______ _______ _____ _____    ______ ____
ROOT
ATOM      1  C   UNL     1       1.738   6.211  20.569  0.00  0.00    +0.000 A 
ATOM      2  C   UNL     1       0.882   5.115  20.389  0.00  0.00    +0.000 A 
ATOM      3  C   UNL     1       1.272   4.047  19.580  0.00  0.00    +0.000 A 
ATOM      4  C   UNL     1       2.497   4.147  18.968  0.00  0.00    +0.000 A 
ATOM      5  C   UNL     1       3.552   4.779  19.587  0.00  0.00    +0.000 A 
ATOM      6  C   UNL     1       3.127   5.943  20.317  0.00  0.00    +0.000 A 
ATOM      7  C   UNL     1       4.721   4.822  18.560  0.00  0.00    +0.000 C 
ATOM      8  C   UNL     1       5.972   5.272  19.296  0.00  0.00    +0.000 C 
ATOM      9  C   UNL     1       3.798   5.442  17.495  0.00  0.00    +0.000 C 
ATOM     10  O   UNL     1       4.036   6.290  16.666  0.00  0.00    +0.000 OA
ATOM     11  N   UNL     1       2.600   4.654  17.630  0.00  0.00    +0.000 N 
ATOM     12  H   UNL     1       1.768   4.860  17.088  0.00  0.00    +0.000 HD
ENDROOT
BRANCH   1  18
ATOM     13  C   UNL     1       1.406   8.724  19.926  0.00  0.00    +0.000 A 
ATOM     14  C   UNL     1       0.919  10.013  20.243  0.00  0.00    +0.000 A 
ATOM     15  C   UNL     1       0.183  10.244  21.412  0.00  0.00    +0.000 A 
ATOM     16  C   UNL     1      -0.057   9.178  22.260  0.00  0.00    +0.000 A 
ATOM     17  C   UNL     1       0.415   7.891  21.960  0.00  0.00    +0.000 A 
ATOM     18  C   UNL     1       1.167   7.603  20.796  0.00  0.00    +0.000 A 
BRANCH  13  20
ATOM     19  C   UNL     1       1.840   9.239  17.622  0.00  0.00    +0.000 C 
ATOM     20  O   UNL     1       2.207   8.546  18.818  0.00  0.00    +0.000 OA
ENDBRANCH  13  20
ENDBRANCH   1  18
BRANCH   7  21
ATOM     21  C   UNL     1       5.217   3.694  17.536  0.00  0.00    +0.000 C 
BRANCH  21  22
ATOM     22  C   UNL     1       5.895   4.083  16.269  0.00  0.00    +0.000 A 
ATOM     23  C   UNL     1       7.046   4.881  16.321  0.00  0.00    +0.000 A 
ATOM     24  C   UNL     1       7.679   5.258  15.147  0.00  0.00    +0.000 A 
ATOM     25  C   UNL     1       7.166   4.822  13.927  0.00  0.00    +0.000 A 
ATOM     26  F   UNL     1       7.763   5.245  12.803  0.00  0.00    +0.000 F 
ATOM     27  C   UNL     1       6.063   3.973  13.868  0.00  0.00    +0.000 A 
ATOM     28 CL   UNL     1       5.460   3.405  12.365  0.00  0.00    +0.000 Cl
ATOM     29  C   UNL     1       5.440   3.584  15.045  0.00  0.00    +0.000 A 
ENDBRANCH  21  22
ENDBRANCH   7  21
TORSDOF 4
ENDMDL
MODEL 3
REMARK VINA RESULT:      -7.4      5.556     10.005
REMARK  Name = 
REMARK  6 active torsions:
REMARK  status: ('A' for Active; 'I' for Inactive)
REMARK    1  A    between atoms: C_1  and  O_2
REMARK    2  A    between atoms: O_2  and  C_3
REMARK    3  A    between atoms: C_8  and  C_9
REMARK    4  A    between atoms: C_15  and  C_16
REMARK    5  A    between atoms: C_15  and  C_17
REMARK    6  A    between atoms: C_17  and  C_18
REMARK                            x       y       z     vdW  Elec       q    Type
REMARK                         _______ _______ _______ _____ _____    ______ ____
ROOT
ATOM      1  C   UNL     1       1.252   8.168  20.160  0.00  0.00    +0.000 A 
ATOM      2  C   UNL     1       1.493   8.345  21.529  0.00  0.00    +0.000 A 
ATOM      3  C   UNL     1       1.045   9.497  22.177  0.00  0.00    +0.000 A 
ATOM      4  C   UNL     1       0.396  10.430  21.406  0.00  0.00    +0.000 A 
ATOM      5  C   UNL     1      -0.401  10.050  20.350  0.00  0.00    +0.000 A 
ATOM      6  C   UNL     1       0.153   8.931  19.635  0.00  0.00    +0.000 A 
ATOM      7  C   UNL     1      -0.854  11.354  19.631  0.00  0.00    +0.000 C 
ATOM      8  C   UNL     1      -1.938  10.983  18.632  0.00  0.00    +0.000 C 
ATOM      9  C   UNL     1       0.604  11.838  19.532  0.00  0.00    +0.000 C 
ATOM     10  O   UNL     1       1.160  12.434  18.639  0.00  0.00    +0.000 OA
ATOM     11  N   UNL     1       1.119  11.533  20.842  0.00  0.00    +0.000 N 
ATOM     12  H   UNL     1       2.093  11.689  21.076  0.00  0.00    +0.000 HD
ENDROOT
BRANCH   1  18
ATOM     13  C   UNL     1       2.678   6.053  19.585  0.00  0.00    +0.000 A 
ATOM     14  C   UNL     1       3.667   5.422  18.794  0.00  0.00    +0.000 A 
ATOM     15  C   UNL     1       4.249   6.078  17.702  0.00  0.00    +0.000 A 
ATOM     16  C   UNL     1       3.838   7.366  17.411  0.00  0.00    +0.000 A 
ATOM     17  C   UNL     1       2.856   8.006  18.182  0.00  0.00    +0.000 A 
ATOM     18  C   UNL     1       2.239   7.393  19.299  0.00  0.00    +0.000 A 
BRANCH  13  20
ATOM     19  C   UNL     1       1.227   4.383  20.515  0.00  0.00    +0.000 C 
ATOM     20  O   UNL     1       2.192   5.421  20.709  0.00  0.00    +0.000 OA
ENDBRANCH  13  20
ENDBRANCH   1  18
BRANCH   7  21
ATOM     21  C   UNL     1      -1.322  12.752  20.260  0.00  0.00    +0.000 C 
BRANCH  21  22
ATOM     22  C   UNL     1      -2.417  12.787  21.267  0.00  0.00    +0.000 A 
ATOM     23  C   UNL     1      -2.113  12.587  22.621  0.00  0.00    +0.000 A 
ATOM     24  C   UNL     1      -3.127  12.607  23.566  0.00  0.00    +0.000 A 
ATOM     25  C   UNL     1      -4.437  12.843  23.155  0.00  0.00    +0.000 A 
ATOM     26  F   UNL     1      -5.407  12.803  24.079  0.00  0.00    +0.000 F 
ATOM     27  C   UNL     1      -4.739  13.110  21.821  0.00  0.00    +0.000 A 
ATOM     28 CL   UNL     1      -6.349  13.441  21.325  0.00  0.00    +0.000 Cl
ATOM     29  C   UNL     1      -3.722  13.105  20.879  0.00  0.00    +0.000 A 
ENDBRANCH  21  22
ENDBRANCH   7  21
TORSDOF 4
ENDMDL
MODEL 4
REMARK VINA RESULT:      -7.4      5.646     10.097
REMARK  Name = 
REMARK  6 active torsions:
REMARK  status: ('A' for Active; 'I' for Inactive)
REMARK    1  A    between atoms: C_1  and  O_2
REMARK    2  A    between atoms: O_2  and  C_3
REMARK    3  A    between atoms: C_8  and  C_9
REMARK    4  A    between atoms: C_15  and  C_16
REMARK    5  A    between atoms: C_15  and  C_17
REMARK    6  A    between atoms: C_17  and  C_18
REMARK                            x       y       z     vdW  Elec       q    Type
REMARK                         _______ _______ _______ _____ _____    ______ ____
ROOT
ATOM      1  C   UNL     1       1.194   8.214  20.160  0.00  0.00    +0.000 A 
ATOM      2  C   UNL     1       1.417   8.406  21.531  0.00  0.00    +0.000 A 
ATOM      3  C   UNL     1       0.947   9.559  22.163  0.00  0.00    +0.000 A 
ATOM      4  C   UNL     1       0.296  10.476  21.374  0.00  0.00    +0.000 A 
ATOM      5  C   UNL     1      -0.483  10.077  20.313  0.00  0.00    +0.000 A 
ATOM      6  C   UNL     1       0.093   8.958  19.615  0.00  0.00    +0.000 A 
ATOM      7  C   UNL     1      -0.944  11.369  19.577  0.00  0.00    +0.000 C 
ATOM      8  C   UNL     1      -2.011  10.975  18.569  0.00  0.00    +0.000 C 
ATOM      9  C   UNL     1       0.509  11.870  19.490  0.00  0.00    +0.000 C 
ATOM     10  O   UNL     1       1.068  12.464  18.598  0.00  0.00    +0.000 OA
ATOM     11  N   UNL     1       1.012  11.583  20.808  0.00  0.00    +0.000 N 
ATOM     12  H   UNL     1       1.981  11.753  21.053  0.00  0.00    +0.000 HD
ENDROOT
BRANCH   1  18
ATOM     13  C   UNL     1       2.673   6.122  19.637  0.00  0.00    +0.000 A 
ATOM     14  C   UNL     1       3.678   5.497  18.861  0.00  0.00    +0.000 A 
ATOM     15  C   UNL     1       4.244   6.140  17.754  0.00  0.00    +0.000 A 
ATOM     16  C   UNL     1       3.801   7.410  17.432  0.00  0.00    +0.000 A 
ATOM     17  C   UNL     1       2.803   8.044  18.187  0.00  0.00    +0.000 A 
ATOM     18  C   UNL     1       2.201   7.443  19.318  0.00  0.00    +0.000 A 
BRANCH  13  20
ATOM     19  C   UNL     1       1.431   4.313  20.609  0.00  0.00    +0.000 C 
ATOM     20  O   UNL     1       2.203   5.505  20.777  0.00  0.00    +0.000 OA
ENDBRANCH  13  20
ENDBRANCH   1  18
BRANCH   7  21
ATOM     21  C   UNL     1      -1.436  12.766  20.187  0.00  0.00    +0.000 C 
BRANCH  21  22
ATOM     22  C   UNL     1      -2.734  12.849  20.910  0.00  0.00    +0.000 A 
ATOM     23  C   UNL     1      -3.907  13.119  20.190  0.00  0.00    +0.000 A 
ATOM     24  C   UNL     1      -5.119  13.210  20.855  0.00  0.00    +0.000 A 
ATOM     25  C   UNL     1      -5.157  13.014  22.233  0.00  0.00    +0.000 A 
ATOM     26  F   UNL     1      -6.332  13.161  22.862  0.00  0.00    +0.000 F 
ATOM     27  C   UNL     1      -4.008  12.678  22.947  0.00  0.00    +0.000 A 
ATOM     28 CL   UNL     1      -4.066  12.398  24.640  0.00  0.00    +0.000 Cl
ATOM     29  C   UNL     1      -2.797  12.573  22.279  0.00  0.00    +0.000 A 
ENDBRANCH  21  22
ENDBRANCH   7  21
TORSDOF 4
ENDMDL
MODEL 5
REMARK VINA RESULT:      -7.3      4.792      8.095
REMARK  Name = 
REMARK  6 active torsions:
REMARK  status: ('A' for Active; 'I' for Inactive)
REMARK    1  A    between atoms: C_1  and  O_2
REMARK    2  A    between atoms: O_2  and  C_3
REMARK    3  A    between atoms: C_8  and  C_9
REMARK    4  A    between atoms: C_15  and  C_16
REMARK    5  A    between atoms: C_15  and  C_17
REMARK    6  A    between atoms: C_17  and  C_18
REMARK                            x       y       z     vdW  Elec       q    Type
REMARK                         _______ _______ _______ _____ _____    ______ ____
ROOT
ATOM      1  C   UNL     1      -4.294  11.307  18.175  0.00  0.00    +0.000 A 
ATOM      2  C   UNL     1      -3.955  10.662  16.977  0.00  0.00    +0.000 A 
ATOM      3  C   UNL     1      -2.618  10.393  16.680  0.00  0.00    +0.000 A 
ATOM      4  C   UNL     1      -1.683  10.811  17.594  0.00  0.00    +0.000 A 
ATOM      5  C   UNL     1      -1.956  10.807  18.944  0.00  0.00    +0.000 A 
ATOM      6  C   UNL     1      -3.312  11.202  19.218  0.00  0.00    +0.000 A 
ATOM      7  C   UNL     1      -0.737  11.465  19.655  0.00  0.00    +0.000 C 
ATOM      8  C   UNL     1      -0.891  11.237  21.149  0.00  0.00    +0.000 C 
ATOM      9  C   UNL     1      -0.819  12.688  18.722  0.00  0.00    +0.000 C 
ATOM     10  O   UNL     1      -0.635  13.857  18.965  0.00  0.00    +0.000 OA
ATOM     11  N   UNL     1      -1.029  12.078  17.434  0.00  0.00    +0.000 N 
ATOM     12  H   UNL     1      -1.180  12.638  16.603  0.00  0.00    +0.000 HD
ENDROOT
BRANCH   1  18
ATOM     13  C   UNL     1      -6.237  12.506  19.449  0.00  0.00    +0.000 A 
ATOM     14  C   UNL     1      -7.416  13.288  19.426  0.00  0.00    +0.000 A 
ATOM     15  C   UNL     1      -7.917  13.810  18.227  0.00  0.00    +0.000 A 
ATOM     16  C   UNL     1      -7.233  13.541  17.055  0.00  0.00    +0.000 A 
ATOM     17  C   UNL     1      -6.060  12.772  17.059  0.00  0.00    +0.000 A 
ATOM     18  C   UNL     1      -5.513  12.216  18.240  0.00  0.00    +0.000 A 
BRANCH  13  20
ATOM     19  C   UNL     1      -6.210  12.565  21.848  0.00  0.00    +0.000 C 
ATOM     20  O   UNL     1      -5.821  11.927  20.628  0.00  0.00    +0.000 OA
ENDBRANCH  13  20
ENDBRANCH   1  18
BRANCH   7  21
ATOM     21  C   UNL     1       0.828  11.290  19.361  0.00  0.00    +0.000 C 
BRANCH  21  22
ATOM     22  C   UNL     1       1.387   9.940  19.077  0.00  0.00    +0.000 A 
ATOM     23  C   UNL     1       2.076   9.720  17.876  0.00  0.00    +0.000 A 
ATOM     24  C   UNL     1       2.591   8.464  17.596  0.00  0.00    +0.000 A 
ATOM     25  C   UNL     1       2.429   7.439  18.525  0.00  0.00    +0.000 A 
ATOM     26  F   UNL     1       2.887   6.220  18.207  0.00  0.00    +0.000 F 
ATOM     27  C   UNL     1       1.805   7.665  19.750  0.00  0.00    +0.000 A 
ATOM     28 CL   UNL     1       1.644   6.409  20.909  0.00  0.00    +0.000 Cl
ATOM     29  C   UNL     1       1.303   8.927  20.035  0.00  0.00    +0.000 A 
ENDBRANCH  21  22
ENDBRANCH   7  21
TORSDOF 4
ENDMDL
MODEL 6
REMARK VINA RESULT:      -7.3      5.633     10.074
REMARK  Name = 
REMARK  6 active torsions:
REMARK  status: ('A' for Active; 'I' for Inactive)
REMARK    1  A    between atoms: C_1  and  O_2
REMARK    2  A    between atoms: O_2  and  C_3
REMARK    3  A    between atoms: C_8  and  C_9
REMARK    4  A    between atoms: C_15  and  C_16
REMARK    5  A    between atoms: C_15  and  C_17
REMARK    6  A    between atoms: C_17  and  C_18
REMARK                            x       y       z     vdW  Elec       q    Type
REMARK                         _______ _______ _______ _____ _____    ______ ____
ROOT
ATOM      1  C   UNL     1       1.150   8.500  20.036  0.00  0.00    +0.000 A 
ATOM      2  C   UNL     1       1.307   8.615  21.425  0.00  0.00    +0.000 A 
ATOM      3  C   UNL     1       0.932   9.790  22.078  0.00  0.00    +0.000 A 
ATOM      4  C   UNL     1       0.439  10.804  21.294  0.00  0.00    +0.000 A 
ATOM      5  C   UNL     1      -0.313  10.536  20.173  0.00  0.00    +0.000 A 
ATOM      6  C   UNL     1       0.176   9.385  19.461  0.00  0.00    +0.000 A 
ATOM      7  C   UNL     1      -0.579  11.899  19.468  0.00  0.00    +0.000 C 
ATOM      8  C   UNL     1      -1.618  11.668  18.383  0.00  0.00    +0.000 C 
ATOM      9  C   UNL     1       0.925  12.232  19.487  0.00  0.00    +0.000 C 
ATOM     10  O   UNL     1       1.602  12.790  18.656  0.00  0.00    +0.000 OA
ATOM     11  N   UNL     1       1.309  11.842  20.819  0.00  0.00    +0.000 N 
ATOM     12  H   UNL     1       2.274  11.890  21.126  0.00  0.00    +0.000 HD
ENDROOT
BRANCH   1  18
ATOM     13  C   UNL     1       2.474   6.296  19.555  0.00  0.00    +0.000 A 
ATOM     14  C   UNL     1       3.445   5.592  18.806  0.00  0.00    +0.000 A 
ATOM     15  C   UNL     1       4.087   6.185  17.712  0.00  0.00    +0.000 A 
ATOM     16  C   UNL     1       3.753   7.484  17.376  0.00  0.00    +0.000 A 
ATOM     17  C   UNL     1       2.789   8.197  18.105  0.00  0.00    +0.000 A 
ATOM     18  C   UNL     1       2.114   7.649  19.222  0.00  0.00    +0.000 A 
BRANCH  13  20
ATOM     19  C   UNL     1       1.210   4.498  20.517  0.00  0.00    +0.000 C 
ATOM     20  O   UNL     1       1.929   5.723  20.684  0.00  0.00    +0.000 OA
ENDBRANCH  13  20
ENDBRANCH   1  18
BRANCH   7  21
ATOM     21  C   UNL     1      -0.947  13.320  20.108  0.00  0.00    +0.000 C 
BRANCH  21  22
ATOM     22  C   UNL     1      -1.688  13.388  21.397  0.00  0.00    +0.000 A 
ATOM     23  C   UNL     1      -2.880  12.665  21.544  0.00  0.00    +0.000 A 
ATOM     24  C   UNL     1      -3.584  12.730  22.736  0.00  0.00    +0.000 A 
ATOM     25  C   UNL     1      -3.085  13.505  23.781  0.00  0.00    +0.000 A 
ATOM     26  F   UNL     1      -3.812  13.596  24.904  0.00  0.00    +0.000 F 
ATOM     27  C   UNL     1      -1.868  14.173  23.668  0.00  0.00    +0.000 A 
ATOM     28 CL   UNL     1      -1.237  15.093  24.972  0.00  0.00    +0.000 Cl
ATOM     29  C   UNL     1      -1.156  14.095  22.479  0.00  0.00    +0.000 A 
ENDBRANCH  21  22
ENDBRANCH   7  21
TORSDOF 4
ENDMDL
MODEL 7
REMARK VINA RESULT:      -7.2      4.890      8.329
REMARK  Name = 
REMARK  6 active torsions:
REMARK  status: ('A' for Active; 'I' for Inactive)
REMARK    1  A    between atoms: C_1  and  O_2
REMARK    2  A    between atoms: O_2  and  C_3
REMARK    3  A    between atoms: C_8  and  C_9
REMARK    4  A    between atoms: C_15  and  C_16
REMARK    5  A    between atoms: C_15  and  C_17
REMARK    6  A    between atoms: C_17  and  C_18
REMARK                            x       y       z     vdW  Elec       q    Type
REMARK                         _______ _______ _______ _____ _____    ______ ____
ROOT
ATOM      1  C   UNL     1      -4.498  11.461  18.162  0.00  0.00    +0.000 A 
ATOM      2  C   UNL     1      -4.249  10.563  17.115  0.00  0.00    +0.000 A 
ATOM      3  C   UNL     1      -2.944  10.150  16.842  0.00  0.00    +0.000 A 
ATOM      4  C   UNL     1      -1.948  10.683  17.623  0.00  0.00    +0.000 A 
ATOM      5  C   UNL     1      -2.164  10.973  18.951  0.00  0.00    +0.000 A 
ATOM      6  C   UNL     1      -3.481  11.506  19.176  0.00  0.00    +0.000 A 
ATOM      7  C   UNL     1      -0.880  11.679  19.476  0.00  0.00    +0.000 C 
ATOM      8  C   UNL     1      -0.985  11.773  20.989  0.00  0.00    +0.000 C 
ATOM      9  C   UNL     1      -0.927  12.687  18.313  0.00  0.00    +0.000 C 
ATOM     10  O   UNL     1      -0.663  13.867  18.304  0.00  0.00    +0.000 OA
ATOM     11  N   UNL     1      -1.226  11.843  17.186  0.00  0.00    +0.000 N 
ATOM     12  H   UNL     1      -1.378  12.230  16.261  0.00  0.00    +0.000 HD
ENDROOT
BRANCH   1  18
ATOM     13  C   UNL     1      -6.634  12.634  19.112  0.00  0.00    +0.000 A 
ATOM     14  C   UNL     1      -7.738  13.499  18.928  0.00  0.00    +0.000 A 
ATOM     15  C   UNL     1      -7.916  14.204  17.731  0.00  0.00    +0.000 A 
ATOM     16  C   UNL     1      -6.986  14.034  16.722  0.00  0.00    +0.000 A 
ATOM     17  C   UNL     1      -5.882  13.184  16.887  0.00  0.00    +0.000 A 
ATOM     18  C   UNL     1      -5.656  12.444  18.073  0.00  0.00    +0.000 A 
BRANCH  13  20
ATOM     19  C   UNL     1      -7.345  12.272  21.375  0.00  0.00    +0.000 C 
ATOM     20  O   UNL     1      -6.536  11.881  20.262  0.00  0.00    +0.000 OA
ENDBRANCH  13  20
ENDBRANCH   1  18
BRANCH   7  21
ATOM     21  C   UNL     1       0.658  11.343  19.180  0.00  0.00    +0.000 C 
BRANCH  21  22
ATOM     22  C   UNL     1       1.171   9.960  19.379  0.00  0.00    +0.000 A 
ATOM     23  C   UNL     1       0.894   9.289  20.579  0.00  0.00    +0.000 A 
ATOM     24  C   UNL     1       1.377   8.006  20.779  0.00  0.00    +0.000 A 
ATOM     25  C   UNL     1       2.120   7.392  19.773  0.00  0.00    +0.000 A 
ATOM     26  F   UNL     1       2.622   6.172  20.011  0.00  0.00    +0.000 F 
ATOM     27  C   UNL     1       2.342   8.024  18.551  0.00  0.00    +0.000 A 
ATOM     28 CL   UNL     1       3.223   7.249  17.299  0.00  0.00    +0.000 Cl
ATOM     29  C   UNL     1       1.846   9.303  18.346  0.00  0.00    +0.000 A 
ENDBRANCH  21  22
ENDBRANCH   7  21
TORSDOF 4
ENDMDL
MODEL 8
REMARK VINA RESULT:      -7.2      3.759      6.376
REMARK  Name = 
REMARK  6 active torsions:
REMARK  status: ('A' for Active; 'I' for Inactive)
REMARK    1  A    between atoms: C_1  and  O_2
REMARK    2  A    between atoms: O_2  and  C_3
REMARK    3  A    between atoms: C_8  and  C_9
REMARK    4  A    between atoms: C_15  and  C_16
REMARK    5  A    between atoms: C_15  and  C_17
REMARK    6  A    between atoms: C_17  and  C_18
REMARK                            x       y       z     vdW  Elec       q    Type
REMARK                         _______ _______ _______ _____ _____    ______ ____
ROOT
ATOM      1  C   UNL     1      -0.277  11.642  22.170  0.00  0.00    +0.000 A 
ATOM      2  C   UNL     1      -0.518  10.390  22.755  0.00  0.00    +0.000 A 
ATOM      3  C   UNL     1      -0.337   9.223  22.011  0.00  0.00    +0.000 A 
ATOM      4  C   UNL     1       0.054   9.376  20.703  0.00  0.00    +0.000 A 
ATOM      5  C   UNL     1       0.891  10.401  20.326  0.00  0.00    +0.000 A 
ATOM      6  C   UNL     1       0.598  11.620  21.031  0.00  0.00    +0.000 A 
ATOM      7  C   UNL     1       1.007  10.345  18.774  0.00  0.00    +0.000 C 
ATOM      8  C   UNL     1       2.121  11.289  18.356  0.00  0.00    +0.000 C 
ATOM      9  C   UNL     1      -0.527  10.334  18.634  0.00  0.00    +0.000 C 
ATOM     10  O   UNL     1      -1.229  10.871  17.810  0.00  0.00    +0.000 OA
ATOM     11  N   UNL     1      -0.922   9.396  19.652  0.00  0.00    +0.000 N 
ATOM     12  H   UNL     1      -1.899   9.210  19.848  0.00  0.00    +0.000 HD
ENDROOT
BRANCH   1  18
ATOM     13  C   UNL     1      -0.517  14.179  22.755  0.00  0.00    +0.000 A 
ATOM     14  C   UNL     1      -1.294  15.251  23.253  0.00  0.00    +0.000 A 
ATOM     15  C   UNL     1      -2.634  15.069  23.616  0.00  0.00    +0.000 A 
ATOM     16  C   UNL     1      -3.188  13.809  23.481  0.00  0.00    +0.000 A 
ATOM     17  C   UNL     1      -2.434  12.734  22.985  0.00  0.00    +0.000 A 
ATOM     18  C   UNL     1      -1.075  12.861  22.608  0.00  0.00    +0.000 A 
BRANCH  13  20
ATOM     19  C   UNL     1       1.174  15.339  21.510  0.00  0.00    +0.000 C 
ATOM     20  O   UNL     1       0.824  14.366  22.497  0.00  0.00    +0.000 OA
ENDBRANCH  13  20
ENDBRANCH   1  18
BRANCH   7  21
ATOM     21  C   UNL     1       1.148   9.073  17.811  0.00  0.00    +0.000 C 
BRANCH  21  22
ATOM     22  C   UNL     1       2.152   8.017  18.112  0.00  0.00    +0.000 A 
ATOM     23  C   UNL     1       3.355   7.986  17.393  0.00  0.00    +0.000 A 
ATOM     24  C   UNL     1       4.292   7.000  17.657  0.00  0.00    +0.000 A 
ATOM     25  C   UNL     1       4.029   6.059  18.651  0.00  0.00    +0.000 A 
ATOM     26  F   UNL     1       4.926   5.082  18.851  0.00  0.00    +0.000 F 
ATOM     27  C   UNL     1       2.867   6.122  19.417  0.00  0.00    +0.000 A 
ATOM     28 CL   UNL     1       2.566   4.985  20.667  0.00  0.00    +0.000 Cl
ATOM     29  C   UNL     1       1.937   7.118  19.161  0.00  0.00    +0.000 A 
ENDBRANCH  21  22
ENDBRANCH   7  21
TORSDOF 4
ENDMDL
MODEL 9
REMARK VINA RESULT:      -7.2      1.566      2.193
REMARK  Name = 
REMARK  6 active torsions:
REMARK  status: ('A' for Active; 'I' for Inactive)
REMARK    1  A    between atoms: C_1  and  O_2
REMARK    2  A    between atoms: O_2  and  C_3
REMARK    3  A    between atoms: C_8  and  C_9
REMARK    4  A    between atoms: C_15  and  C_16
REMARK    5  A    between atoms: C_15  and  C_17
REMARK    6  A    between atoms: C_17  and  C_18
REMARK                            x       y       z     vdW  Elec       q    Type
REMARK                         _______ _______ _______ _____ _____    ______ ____
ROOT
ATOM      1  C   UNL     1       2.594   7.406  18.210  0.00  0.00    +0.000 A 
ATOM      2  C   UNL     1       3.349   8.312  17.452  0.00  0.00    +0.000 A 
ATOM      3  C   UNL     1       4.502   7.885  16.793  0.00  0.00    +0.000 A 
ATOM      4  C   UNL     1       4.854   6.566  16.952  0.00  0.00    +0.000 A 
ATOM      5  C   UNL     1       3.898   5.584  17.075  0.00  0.00    +0.000 A 
ATOM      6  C   UNL     1       2.775   6.024  17.859  0.00  0.00    +0.000 A 
ATOM      7  C   UNL     1       4.649   4.253  17.372  0.00  0.00    +0.000 C 
ATOM      8  C   UNL     1       3.648   3.116  17.251  0.00  0.00    +0.000 C 
ATOM      9  C   UNL     1       5.418   4.915  18.531  0.00  0.00    +0.000 C 
ATOM     10  O   UNL     1       5.739   4.458  19.603  0.00  0.00    +0.000 OA
ATOM     11  N   UNL     1       5.795   6.183  17.965  0.00  0.00    +0.000 N 
ATOM     12  H   UNL     1       6.278   6.885  18.514  0.00  0.00    +0.000 HD
ENDROOT
BRANCH   1  18
ATOM     13  C   UNL     1       1.623   7.080  20.616  0.00  0.00    +0.000 A 
ATOM     14  C   UNL     1       0.826   7.548  21.687  0.00  0.00    +0.000 A 
ATOM     15  C   UNL     1       0.215   8.807  21.641  0.00  0.00    +0.000 A 
ATOM     16  C   UNL     1       0.404   9.590  20.517  0.00  0.00    +0.000 A 
ATOM     17  C   UNL     1       1.194   9.144  19.446  0.00  0.00    +0.000 A 
ATOM     18  C   UNL     1       1.830   7.880  19.438  0.00  0.00    +0.000 A 
BRANCH  13  20
ATOM     19  C   UNL     1       1.197   4.718  20.616  0.00  0.00    +0.000 C 
ATOM     20  O   UNL     1       2.132   5.800  20.649  0.00  0.00    +0.000 OA
ENDBRANCH  13  20
ENDBRANCH   1  18
BRANCH   7  21
ATOM     21  C   UNL     1       6.006   3.689  16.735  0.00  0.00    +0.000 C 
BRANCH  21  22
ATOM     22  C   UNL     1       6.349   3.992  15.319  0.00  0.00    +0.000 A 
ATOM     23  C   UNL     1       7.406   4.870  15.040  0.00  0.00    +0.000 A 
ATOM     24  C   UNL     1       7.726   5.169  13.726  0.00  0.00    +0.000 A 
ATOM     25  C   UNL     1       7.000   4.576  12.696  0.00  0.00    +0.000 A 
ATOM     26  F   UNL     1       7.292   4.922  11.434  0.00  0.00    +0.000 F 
ATOM     27  C   UNL     1       5.993   3.649  12.961  0.00  0.00    +0.000 A 
ATOM     28 CL   UNL     1       5.128   2.890  11.688  0.00  0.00    +0.000 Cl
ATOM     29  C   UNL     1       5.683   3.340  14.278  0.00  0.00    +0.000 A 
ENDBRANCH  21  22
ENDBRANCH   7  21
TORSDOF 4
ENDMDL
