MODEL 1
REMARK VINA RESULT:      -8.3      0.000      0.000
REMARK  Name = 
REMARK  7 active torsions:
REMARK  status: ('A' for Active; 'I' for Inactive)
REMARK    1  A    between atoms: C_1  and  S_2
REMARK    2  A    between atoms: S_2  and  N_5
REMARK    3  A    between atoms: C_6  and  C_8
REMARK    4  A    between atoms: C_8  and  C_9
REMARK    5  A    between atoms: C_9  and  C_10
REMARK    6  A    between atoms: N_12  and  C_13
REMARK    7  A    between atoms: C_21  and  C_22
REMARK                            x       y       z     vdW  Elec       q    Type
REMARK                         _______ _______ _______ _____ _____    ______ ____
ROOT
ATOM      1  C   UNL     1       2.766   6.956  18.655  0.00  0.00    +0.000 A 
ATOM      2  C   UNL     1       2.239   8.195  18.944  0.00  0.00    +0.000 A 
ATOM      3  N   UNL     1       1.561   8.099  20.133  0.00  0.00    +0.000 N 
ATOM      4  N   UNL     1       1.653   6.849  20.643  0.00  0.00    +0.000 NA
ATOM      5  C   UNL     1       2.337   6.139  19.734  0.00  0.00    +0.000 A 
ENDROOT
BRANCH   3   6
ATOM      6  C   UNL     1       0.836   9.133  20.788  0.00  0.00    +0.000 A 
ATOM      7  C   UNL     1       0.445   8.994  22.130  0.00  0.00    +0.000 A 
ATOM      8  C   UNL     1      -0.260  10.015  22.768  0.00  0.00    +0.000 A 
ATOM      9  C   UNL     1      -0.580  11.175  22.067  0.00  0.00    +0.000 A 
ATOM     10 BR   UNL     1      -1.537  12.552  22.939  0.00  0.00    +0.000 Br
ATOM     11  C   UNL     1      -0.198  11.326  20.735  0.00  0.00    +0.000 A 
ATOM     12  C   UNL     1       0.515  10.307  20.092  0.00  0.00    +0.000 A 
ENDBRANCH   3   6
BRANCH   5  13
ATOM     13  C   UNL     1       2.557   4.658  19.935  0.00  0.00    +0.000 C 
ATOM     14  C   UNL     1       1.763   3.818  18.923  0.00  0.00    +0.000 C 
ATOM     15  C   UNL     1       1.852   2.332  19.236  0.00  0.00    +0.000 C 
ATOM     16  O   UNL     1       1.454   2.072  20.581  0.00  0.00    +0.000 OA
ATOM     17  C   UNL     1       2.312   2.710  21.523  0.00  0.00    +0.000 C 
ATOM     18  C   UNL     1       2.251   4.224  21.375  0.00  0.00    +0.000 C 
ENDBRANCH   5  13
BRANCH   1  19
ATOM     19  C   UNL     1       3.561   6.586  17.453  0.00  0.00    +0.000 C 
BRANCH  19  20
ATOM     20  C   UNL     1       4.731   7.536  17.189  0.00  0.00    +0.000 C 
BRANCH  20  22
ATOM     21  N   UNL     1       5.827   5.816  15.846  0.00  0.00    +0.000 N 
ATOM     22  C   UNL     1       5.977   6.755  16.868  0.00  0.00    +0.000 C 
ATOM     23  O   UNL     1       7.017   6.885  17.497  0.00  0.00    +0.000 OA
ATOM     24  H   UNL     1       4.945   5.675  15.361  0.00  0.00    +0.000 HD
BRANCH  21  26
ATOM     25  C   UNL     1       6.198   3.683  14.263  0.00  0.00    +0.000 C 
ATOM     26  S   UNL     1       7.060   4.857  15.291  0.00  0.00    +0.000 S 
ATOM     27  O   UNL     1       7.669   4.180  16.412  0.00  0.00    +0.000 OA
ATOM     28  O   UNL     1       7.841   5.716  14.425  0.00  0.00    +0.000 OA
ENDBRANCH  21  26
ENDBRANCH  20  22
ENDBRANCH  19  20
ENDBRANCH   1  19
TORSDOF 6
ENDMDL
MODEL 2
REMARK VINA RESULT:      -8.2      0.735      1.057
REMARK  Name = 
REMARK  7 active torsions:
REMARK  status: ('A' for Active; 'I' for Inactive)
REMARK    1  A    between atoms: C_1  and  S_2
REMARK    2  A    between atoms: S_2  and  N_5
REMARK    3  A    between atoms: C_6  and  C_8
REMARK    4  A    between atoms: C_8  and  C_9
REMARK    5  A    between atoms: C_9  and  C_10
REMARK    6  A    between atoms: N_12  and  C_13
REMARK    7  A    between atoms: C_21  and  C_22
REMARK                            x       y       z     vdW  Elec       q    Type
REMARK                         _______ _______ _______ _____ _____    ______ ____
ROOT
ATOM      1  C   UNL     1       2.721   6.656  18.760  0.00  0.00    +0.000 A 
ATOM      2  C   UNL     1       2.250   7.917  19.049  0.00  0.00    +0.000 A 
ATOM      3  N   UNL     1       1.531   7.843  20.215  0.00  0.00    +0.000 N 
ATOM      4  N   UNL     1       1.542   6.585  20.712  0.00  0.00    +0.000 NA
ATOM      5  C   UNL     1       2.217   5.850  19.816  0.00  0.00    +0.000 A 
ENDROOT
BRANCH   3   6
ATOM      6  C   UNL     1       0.839   8.906  20.859  0.00  0.00    +0.000 A 
ATOM      7  C   UNL     1       0.559   8.847  22.235  0.00  0.00    +0.000 A 
ATOM      8  C   UNL     1      -0.114   9.897  22.862  0.00  0.00    +0.000 A 
ATOM      9  C   UNL     1      -0.511  11.004  22.118  0.00  0.00    +0.000 A 
ATOM     10 BR   UNL     1      -1.424  12.420  22.975  0.00  0.00    +0.000 Br
ATOM     11  C   UNL     1      -0.240  11.075  20.752  0.00  0.00    +0.000 A 
ATOM     12  C   UNL     1       0.440  10.028  20.120  0.00  0.00    +0.000 A 
ENDBRANCH   3   6
BRANCH   5  13
ATOM     13  C   UNL     1       2.355   4.358  20.005  0.00  0.00    +0.000 C 
ATOM     14  C   UNL     1       3.815   3.895  19.875  0.00  0.00    +0.000 C 
ATOM     15  C   UNL     1       3.925   2.378  19.894  0.00  0.00    +0.000 C 
ATOM     16  O   UNL     1       3.086   1.795  18.900  0.00  0.00    +0.000 OA
ATOM     17  C   UNL     1       1.708   2.078  19.133  0.00  0.00    +0.000 C 
ATOM     18  C   UNL     1       1.440   3.574  19.054  0.00  0.00    +0.000 C 
ENDBRANCH   5  13
BRANCH   1  19
ATOM     19  C   UNL     1       3.535   6.258  17.580  0.00  0.00    +0.000 C 
BRANCH  19  20
ATOM     20  C   UNL     1       4.483   7.360  17.102  0.00  0.00    +0.000 C 
BRANCH  20  22
ATOM     21  N   UNL     1       5.685   5.599  15.913  0.00  0.00    +0.000 N 
ATOM     22  C   UNL     1       5.797   6.768  16.668  0.00  0.00    +0.000 C 
ATOM     23  O   UNL     1       6.874   7.233  17.007  0.00  0.00    +0.000 OA
ATOM     24  H   UNL     1       4.787   5.185  15.678  0.00  0.00    +0.000 HD
BRANCH  21  26
ATOM     25  C   UNL     1       6.205   3.514  14.306  0.00  0.00    +0.000 C 
ATOM     26  S   UNL     1       6.986   4.777  15.294  0.00  0.00    +0.000 S 
ATOM     27  O   UNL     1       7.719   4.173  16.381  0.00  0.00    +0.000 OA
ATOM     28  O   UNL     1       7.625   5.714  14.393  0.00  0.00    +0.000 OA
ENDBRANCH  21  26
ENDBRANCH  20  22
ENDBRANCH  19  20
ENDBRANCH   1  19
TORSDOF 6
ENDMDL
MODEL 3
REMARK VINA RESULT:      -8.2      0.778      1.064
REMARK  Name = 
REMARK  7 active torsions:
REMARK  status: ('A' for Active; 'I' for Inactive)
REMARK    1  A    between atoms: C_1  and  S_2
REMARK    2  A    between atoms: S_2  and  N_5
REMARK    3  A    between atoms: C_6  and  C_8
REMARK    4  A    between atoms: C_8  and  C_9
REMARK    5  A    between atoms: C_9  and  C_10
REMARK    6  A    between atoms: N_12  and  C_13
REMARK    7  A    between atoms: C_21  and  C_22
REMARK                            x       y       z     vdW  Elec       q    Type
REMARK                         _______ _______ _______ _____ _____    ______ ____
ROOT
ATOM      1  C   UNL     1       2.742   6.848  18.792  0.00  0.00    +0.000 A 
ATOM      2  C   UNL     1       2.210   8.077  19.111  0.00  0.00    +0.000 A 
ATOM      3  N   UNL     1       1.465   7.931  20.254  0.00  0.00    +0.000 N 
ATOM      4  N   UNL     1       1.517   6.658  20.707  0.00  0.00    +0.000 NA
ATOM      5  C   UNL     1       2.246   5.984  19.805  0.00  0.00    +0.000 A 
ENDROOT
BRANCH   3   6
ATOM      6  C   UNL     1       0.712   8.941  20.916  0.00  0.00    +0.000 A 
ATOM      7  C   UNL     1       0.509   8.886  22.306  0.00  0.00    +0.000 A 
ATOM      8  C   UNL     1      -0.224   9.884  22.950  0.00  0.00    +0.000 A 
ATOM      9  C   UNL     1      -0.759  10.934  22.209  0.00  0.00    +0.000 A 
ATOM     10 BR   UNL     1      -1.753  12.280  23.090  0.00  0.00    +0.000 Br
ATOM     11  C   UNL     1      -0.565  11.000  20.830  0.00  0.00    +0.000 A 
ATOM     12  C   UNL     1       0.175  10.006  20.180  0.00  0.00    +0.000 A 
ENDBRANCH   3   6
BRANCH   5  13
ATOM     13  C   UNL     1       2.442   4.494  19.945  0.00  0.00    +0.000 C 
ATOM     14  C   UNL     1       1.936   3.973  21.300  0.00  0.00    +0.000 C 
ATOM     15  C   UNL     1       2.291   2.508  21.505  0.00  0.00    +0.000 C 
ATOM     16  O   UNL     1       3.691   2.297  21.337  0.00  0.00    +0.000 OA
ATOM     17  C   UNL     1       4.122   2.609  20.015  0.00  0.00    +0.000 C 
ATOM     18  C   UNL     1       3.901   4.083  19.706  0.00  0.00    +0.000 C 
ENDBRANCH   5  13
BRANCH   1  19
ATOM     19  C   UNL     1       3.601   6.527  17.620  0.00  0.00    +0.000 C 
BRANCH  19  20
ATOM     20  C   UNL     1       4.663   7.592  17.342  0.00  0.00    +0.000 C 
BRANCH  20  22
ATOM     21  N   UNL     1       5.776   5.696  16.282  0.00  0.00    +0.000 N 
ATOM     22  C   UNL     1       5.941   6.948  16.877  0.00  0.00    +0.000 C 
ATOM     23  O   UNL     1       7.039   7.449  17.065  0.00  0.00    +0.000 OA
ATOM     24  H   UNL     1       4.865   5.259  16.174  0.00  0.00    +0.000 HD
BRANCH  21  26
ATOM     25  C   UNL     1       6.174   3.462  14.851  0.00  0.00    +0.000 C 
ATOM     26  S   UNL     1       7.028   4.801  15.662  0.00  0.00    +0.000 S 
ATOM     27  O   UNL     1       7.825   4.292  16.753  0.00  0.00    +0.000 OA
ATOM     28  O   UNL     1       7.614   5.639  14.637  0.00  0.00    +0.000 OA
ENDBRANCH  21  26
ENDBRANCH  20  22
ENDBRANCH  19  20
ENDBRANCH   1  19
TORSDOF 6
ENDMDL
MODEL 4
REMARK VINA RESULT:      -8.2      0.875      1.341
REMARK  Name = 
REMARK  7 active torsions:
REMARK  status: ('A' for Active; 'I' for Inactive)
REMARK    1  A    between atoms: C_1  and  S_2
REMARK    2  A    between atoms: S_2  and  N_5
REMARK    3  A    between atoms: C_6  and  C_8
REMARK    4  A    between atoms: C_8  and  C_9
REMARK    5  A    between atoms: C_9  and  C_10
REMARK    6  A    between atoms: N_12  and  C_13
REMARK    7  A    between atoms: C_21  and  C_22
REMARK                            x       y       z     vdW  Elec       q    Type
REMARK                         _______ _______ _______ _____ _____    ______ ____
ROOT
ATOM      1  C   UNL     1       2.489   7.402  18.734  0.00  0.00    +0.000 A 
ATOM      2  C   UNL     1       1.884   8.588  19.087  0.00  0.00    +0.000 A 
ATOM      3  N   UNL     1       1.250   8.398  20.289  0.00  0.00    +0.000 N 
ATOM      4  N   UNL     1       1.445   7.139  20.746  0.00  0.00    +0.000 NA
ATOM      5  C   UNL     1       2.151   6.516  19.791  0.00  0.00    +0.000 A 
ENDROOT
BRANCH   3   6
ATOM      6  C   UNL     1       0.473   9.351  21.003  0.00  0.00    +0.000 A 
ATOM      7  C   UNL     1      -0.036  10.490  20.355  0.00  0.00    +0.000 A 
ATOM      8  C   UNL     1      -0.803  11.418  21.060  0.00  0.00    +0.000 A 
ATOM      9  C   UNL     1      -1.061  11.214  22.413  0.00  0.00    +0.000 A 
ATOM     10 BR   UNL     1      -2.100  12.478  23.361  0.00  0.00    +0.000 Br
ATOM     11  C   UNL     1      -0.563  10.089  23.068  0.00  0.00    +0.000 A 
ATOM     12  C   UNL     1       0.202   9.152  22.364  0.00  0.00    +0.000 A 
ENDBRANCH   3   6
BRANCH   5  13
ATOM     13  C   UNL     1       2.482   5.048  19.927  0.00  0.00    +0.000 C 
ATOM     14  C   UNL     1       1.783   4.201  18.852  0.00  0.00    +0.000 C 
ATOM     15  C   UNL     1       1.980   2.712  19.096  0.00  0.00    +0.000 C 
ATOM     16  O   UNL     1       1.570   2.355  20.415  0.00  0.00    +0.000 OA
ATOM     17  C   UNL     1       2.351   3.010  21.411  0.00  0.00    +0.000 C 
ATOM     18  C   UNL     1       2.175   4.519  21.334  0.00  0.00    +0.000 C 
ENDBRANCH   5  13
BRANCH   1  19
ATOM     19  C   UNL     1       3.273   7.136  17.498  0.00  0.00    +0.000 C 
BRANCH  19  20
ATOM     20  C   UNL     1       4.782   7.287  17.698  0.00  0.00    +0.000 C 
BRANCH  20  22
ATOM     21  N   UNL     1       5.916   5.785  16.143  0.00  0.00    +0.000 N 
ATOM     22  C   UNL     1       5.476   5.974  17.455  0.00  0.00    +0.000 C 
ATOM     23  O   UNL     1       5.585   5.115  18.317  0.00  0.00    +0.000 OA
ATOM     24  H   UNL     1       5.777   6.481  15.416  0.00  0.00    +0.000 HD
BRANCH  21  26
ATOM     25  C   UNL     1       7.165   4.859  13.956  0.00  0.00    +0.000 C 
ATOM     26  S   UNL     1       6.734   4.435  15.634  0.00  0.00    +0.000 S 
ATOM     27  O   UNL     1       5.831   3.308  15.644  0.00  0.00    +0.000 OA
ATOM     28  O   UNL     1       7.954   4.420  16.415  0.00  0.00    +0.000 OA
ENDBRANCH  21  26
ENDBRANCH  20  22
ENDBRANCH  19  20
ENDBRANCH   1  19
TORSDOF 6
ENDMDL
MODEL 5
REMARK VINA RESULT:      -8.2      1.208      1.873
REMARK  Name = 
REMARK  7 active torsions:
REMARK  status: ('A' for Active; 'I' for Inactive)
REMARK    1  A    between atoms: C_1  and  S_2
REMARK    2  A    between atoms: S_2  and  N_5
REMARK    3  A    between atoms: C_6  and  C_8
REMARK    4  A    between atoms: C_8  and  C_9
REMARK    5  A    between atoms: C_9  and  C_10
REMARK    6  A    between atoms: N_12  and  C_13
REMARK    7  A    between atoms: C_21  and  C_22
REMARK                            x       y       z     vdW  Elec       q    Type
REMARK                         _______ _______ _______ _____ _____    ______ ____
ROOT
ATOM      1  C   UNL     1       2.450   6.678  19.700  0.00  0.00    +0.000 A 
ATOM      2  C   UNL     1       2.224   8.009  19.973  0.00  0.00    +0.000 A 
ATOM      3  N   UNL     1       1.151   8.090  20.825  0.00  0.00    +0.000 N 
ATOM      4  N   UNL     1       0.689   6.858  21.140  0.00  0.00    +0.000 NA
ATOM      5  C   UNL     1       1.435   6.001  20.428  0.00  0.00    +0.000 A 
ENDROOT
BRANCH   3   6
ATOM      6  C   UNL     1       0.556   9.277  21.337  0.00  0.00    +0.000 A 
ATOM      7  C   UNL     1       0.726  10.505  20.675  0.00  0.00    +0.000 A 
ATOM      8  C   UNL     1       0.135  11.663  21.178  0.00  0.00    +0.000 A 
ATOM      9  C   UNL     1      -0.624  11.601  22.344  0.00  0.00    +0.000 A 
ATOM     10 BR   UNL     1      -1.420  13.176  23.020  0.00  0.00    +0.000 Br
ATOM     11  C   UNL     1      -0.800  10.389  23.011  0.00  0.00    +0.000 A 
ATOM     12  C   UNL     1      -0.214   9.222  22.507  0.00  0.00    +0.000 A 
ENDBRANCH   3   6
BRANCH   5  13
ATOM     13  C   UNL     1       1.137   4.521  20.466  0.00  0.00    +0.000 C 
ATOM     14  C   UNL     1       2.054   3.776  21.450  0.00  0.00    +0.000 C 
ATOM     15  C   UNL     1       1.868   2.269  21.358  0.00  0.00    +0.000 C 
ATOM     16  O   UNL     1       2.039   1.817  20.017  0.00  0.00    +0.000 OA
ATOM     17  C   UNL     1       1.064   2.374  19.138  0.00  0.00    +0.000 C 
ATOM     18  C   UNL     1       1.197   3.888  19.069  0.00  0.00    +0.000 C 
ENDBRANCH   5  13
BRANCH   1  19
ATOM     19  C   UNL     1       3.499   6.118  18.807  0.00  0.00    +0.000 C 
BRANCH  19  20
ATOM     20  C   UNL     1       4.535   5.274  19.552  0.00  0.00    +0.000 C 
BRANCH  20  22
ATOM     21  N   UNL     1       5.777   5.199  17.451  0.00  0.00    +0.000 N 
ATOM     22  C   UNL     1       5.860   5.322  18.839  0.00  0.00    +0.000 C 
ATOM     23  O   UNL     1       6.926   5.395  19.432  0.00  0.00    +0.000 OA
ATOM     24  H   UNL     1       4.890   5.087  16.966  0.00  0.00    +0.000 HD
BRANCH  21  26
ATOM     25  C   UNL     1       6.369   4.902  14.852  0.00  0.00    +0.000 C 
ATOM     26  S   UNL     1       7.092   5.253  16.443  0.00  0.00    +0.000 S 
ATOM     27  O   UNL     1       8.010   4.202  16.813  0.00  0.00    +0.000 OA
ATOM     28  O   UNL     1       7.508   6.641  16.446  0.00  0.00    +0.000 OA
ENDBRANCH  21  26
ENDBRANCH  20  22
ENDBRANCH  19  20
ENDBRANCH   1  19
TORSDOF 6
ENDMDL
MODEL 6
REMARK VINA RESULT:      -8.2      0.864      1.389
REMARK  Name = 
REMARK  7 active torsions:
REMARK  status: ('A' for Active; 'I' for Inactive)
REMARK    1  A    between atoms: C_1  and  S_2
REMARK    2  A    between atoms: S_2  and  N_5
REMARK    3  A    between atoms: C_6  and  C_8
REMARK    4  A    between atoms: C_8  and  C_9
REMARK    5  A    between atoms: C_9  and  C_10
REMARK    6  A    between atoms: N_12  and  C_13
REMARK    7  A    between atoms: C_21  and  C_22
REMARK                            x       y       z     vdW  Elec       q    Type
REMARK                         _______ _______ _______ _____ _____    ______ ____
ROOT
ATOM      1  C   UNL     1       2.546   7.022  18.733  0.00  0.00    +0.000 A 
ATOM      2  C   UNL     1       2.051   8.269  19.040  0.00  0.00    +0.000 A 
ATOM      3  N   UNL     1       1.409   8.184  20.250  0.00  0.00    +0.000 N 
ATOM      4  N   UNL     1       1.494   6.932  20.756  0.00  0.00    +0.000 NA
ATOM      5  C   UNL     1       2.137   6.211  19.826  0.00  0.00    +0.000 A 
ENDROOT
BRANCH   3   6
ATOM      6  C   UNL     1       0.724   9.230  20.927  0.00  0.00    +0.000 A 
ATOM      7  C   UNL     1       0.555  10.486  20.319  0.00  0.00    +0.000 A 
ATOM      8  C   UNL     1      -0.124  11.506  20.987  0.00  0.00    +0.000 A 
ATOM      9  C   UNL     1      -0.632  11.277  22.263  0.00  0.00    +0.000 A 
ATOM     10 BR   UNL     1      -1.550  12.665  23.160  0.00  0.00    +0.000 Br
ATOM     11  C   UNL     1      -0.472  10.035  22.877  0.00  0.00    +0.000 A 
ATOM     12  C   UNL     1       0.203   9.007  22.210  0.00  0.00    +0.000 A 
ENDBRANCH   3   6
BRANCH   5  13
ATOM     13  C   UNL     1       2.337   4.726  20.018  0.00  0.00    +0.000 C 
ATOM     14  C   UNL     1       1.349   3.901  19.179  0.00  0.00    +0.000 C 
ATOM     15  C   UNL     1       1.439   2.418  19.506  0.00  0.00    +0.000 C 
ATOM     16  O   UNL     1       1.274   2.195  20.905  0.00  0.00    +0.000 OA
ATOM     17  C   UNL     1       2.305   2.815  21.669  0.00  0.00    +0.000 C 
ATOM     18  C   UNL     1       2.273   4.327  21.499  0.00  0.00    +0.000 C 
ENDBRANCH   5  13
BRANCH   1  19
ATOM     19  C   UNL     1       3.297   6.638  17.507  0.00  0.00    +0.000 C 
BRANCH  19  20
ATOM     20  C   UNL     1       4.363   7.661  17.110  0.00  0.00    +0.000 C 
BRANCH  20  22
ATOM     21  N   UNL     1       5.519   5.654  16.339  0.00  0.00    +0.000 N 
ATOM     22  C   UNL     1       5.660   6.967  16.790  0.00  0.00    +0.000 C 
ATOM     23  O   UNL     1       6.750   7.488  16.974  0.00  0.00    +0.000 OA
ATOM     24  H   UNL     1       4.612   5.207  16.237  0.00  0.00    +0.000 HD
BRANCH  21  26
ATOM     25  C   UNL     1       7.643   4.440  17.442  0.00  0.00    +0.000 C 
ATOM     26  S   UNL     1       6.796   4.693  15.894  0.00  0.00    +0.000 S 
ATOM     27  O   UNL     1       7.640   5.428  14.981  0.00  0.00    +0.000 OA
ATOM     28  O   UNL     1       6.197   3.433  15.505  0.00  0.00    +0.000 OA
ENDBRANCH  21  26
ENDBRANCH  20  22
ENDBRANCH  19  20
ENDBRANCH   1  19
TORSDOF 6
ENDMDL
MODEL 7
REMARK VINA RESULT:      -8.0      1.069      1.703
REMARK  Name = 
REMARK  7 active torsions:
REMARK  status: ('A' for Active; 'I' for Inactive)
REMARK    1  A    between atoms: C_1  and  S_2
REMARK    2  A    between atoms: S_2  and  N_5
REMARK    3  A    between atoms: C_6  and  C_8
REMARK    4  A    between atoms: C_8  and  C_9
REMARK    5  A    between atoms: C_9  and  C_10
REMARK    6  A    between atoms: N_12  and  C_13
REMARK    7  A    between atoms: C_21  and  C_22
REMARK                            x       y       z     vdW  Elec       q    Type
REMARK                         _______ _______ _______ _____ _____    ______ ____
ROOT
ATOM      1  C   UNL     1       2.375   6.749  19.586  0.00  0.00    +0.000 A 
ATOM      2  C   UNL     1       2.110   8.080  19.816  0.00  0.00    +0.000 A 
ATOM      3  N   UNL     1       1.149   8.157  20.793  0.00  0.00    +0.000 N 
ATOM      4  N   UNL     1       0.800   6.925  21.227  0.00  0.00    +0.000 NA
ATOM      5  C   UNL     1       1.500   6.065  20.471  0.00  0.00    +0.000 A 
ENDROOT
BRANCH   3   6
ATOM      6  C   UNL     1       0.556   9.340  21.314  0.00  0.00    +0.000 A 
ATOM      7  C   UNL     1       0.687  10.565  20.636  0.00  0.00    +0.000 A 
ATOM      8  C   UNL     1       0.097  11.720  21.150  0.00  0.00    +0.000 A 
ATOM      9  C   UNL     1      -0.622  11.657  22.341  0.00  0.00    +0.000 A 
ATOM     10 BR   UNL     1      -1.416  13.228  23.030  0.00  0.00    +0.000 Br
ATOM     11  C   UNL     1      -0.760  10.449  23.023  0.00  0.00    +0.000 A 
ATOM     12  C   UNL     1      -0.175   9.286  22.509  0.00  0.00    +0.000 A 
ENDBRANCH   3   6
BRANCH   5  13
ATOM     13  C   UNL     1       1.295   4.577  20.623  0.00  0.00    +0.000 C 
ATOM     14  C   UNL     1       2.377   3.936  21.506  0.00  0.00    +0.000 C 
ATOM     15  C   UNL     1       2.266   2.419  21.516  0.00  0.00    +0.000 C 
ATOM     16  O   UNL     1       2.279   1.900  20.187  0.00  0.00    +0.000 OA
ATOM     17  C   UNL     1       1.164   2.357  19.426  0.00  0.00    +0.000 C 
ATOM     18  C   UNL     1       1.200   3.870  19.264  0.00  0.00    +0.000 C 
ENDBRANCH   5  13
BRANCH   1  19
ATOM     19  C   UNL     1       3.336   6.191  18.596  0.00  0.00    +0.000 C 
BRANCH  19  20
ATOM     20  C   UNL     1       3.809   7.221  17.568  0.00  0.00    +0.000 C 
BRANCH  20  22
ATOM     21  N   UNL     1       5.784   5.797  17.398  0.00  0.00    +0.000 N 
ATOM     22  C   UNL     1       4.908   6.645  16.717  0.00  0.00    +0.000 C 
ATOM     23  O   UNL     1       5.063   6.949  15.544  0.00  0.00    +0.000 OA
ATOM     24  H   UNL     1       5.682   5.588  18.387  0.00  0.00    +0.000 HD
BRANCH  21  26
ATOM     25  C   UNL     1       6.231   3.841  15.616  0.00  0.00    +0.000 C 
ATOM     26  S   UNL     1       7.056   5.016  16.673  0.00  0.00    +0.000 S 
ATOM     27  O   UNL     1       7.817   4.323  17.686  0.00  0.00    +0.000 OA
ATOM     28  O   UNL     1       7.675   6.016  15.828  0.00  0.00    +0.000 OA
ENDBRANCH  21  26
ENDBRANCH  20  22
ENDBRANCH  19  20
ENDBRANCH   1  19
TORSDOF 6
ENDMDL
MODEL 8
REMARK VINA RESULT:      -8.0      1.469      2.200
REMARK  Name = 
REMARK  7 active torsions:
REMARK  status: ('A' for Active; 'I' for Inactive)
REMARK    1  A    between atoms: C_1  and  S_2
REMARK    2  A    between atoms: S_2  and  N_5
REMARK    3  A    between atoms: C_6  and  C_8
REMARK    4  A    between atoms: C_8  and  C_9
REMARK    5  A    between atoms: C_9  and  C_10
REMARK    6  A    between atoms: N_12  and  C_13
REMARK    7  A    between atoms: C_21  and  C_22
REMARK                            x       y       z     vdW  Elec       q    Type
REMARK                         _______ _______ _______ _____ _____    ______ ____
ROOT
ATOM      1  C   UNL     1       2.514   7.170  18.718  0.00  0.00    +0.000 A 
ATOM      2  C   UNL     1       1.963   8.384  19.059  0.00  0.00    +0.000 A 
ATOM      3  N   UNL     1       1.293   8.226  20.247  0.00  0.00    +0.000 N 
ATOM      4  N   UNL     1       1.414   6.959  20.706  0.00  0.00    +0.000 NA
ATOM      5  C   UNL     1       2.108   6.301  19.766  0.00  0.00    +0.000 A 
ENDROOT
BRANCH   3   6
ATOM      6  C   UNL     1       0.550   9.218  20.945  0.00  0.00    +0.000 A 
ATOM      7  C   UNL     1       0.041  10.340  20.268  0.00  0.00    +0.000 A 
ATOM      8  C   UNL     1      -0.692  11.305  20.958  0.00  0.00    +0.000 A 
ATOM      9  C   UNL     1      -0.917  11.156  22.324  0.00  0.00    +0.000 A 
ATOM     10 BR   UNL     1      -1.911  12.470  23.251  0.00  0.00    +0.000 Br
ATOM     11  C   UNL     1      -0.419  10.048  23.007  0.00  0.00    +0.000 A 
ATOM     12  C   UNL     1       0.313   9.073  22.319  0.00  0.00    +0.000 A 
ENDBRANCH   3   6
BRANCH   5  13
ATOM     13  C   UNL     1       2.361   4.819  19.907  0.00  0.00    +0.000 C 
ATOM     14  C   UNL     1       1.345   3.985  19.110  0.00  0.00    +0.000 C 
ATOM     15  C   UNL     1       1.497   2.498  19.391  0.00  0.00    +0.000 C 
ATOM     16  O   UNL     1       1.427   2.236  20.791  0.00  0.00    +0.000 OA
ATOM     17  C   UNL     1       2.488   2.867  21.505  0.00  0.00    +0.000 C 
ATOM     18  C   UNL     1       2.402   4.381  21.377  0.00  0.00    +0.000 C 
ENDBRANCH   5  13
BRANCH   1  19
ATOM     19  C   UNL     1       3.311   6.864  17.499  0.00  0.00    +0.000 C 
BRANCH  19  20
ATOM     20  C   UNL     1       3.816   5.421  17.456  0.00  0.00    +0.000 C 
BRANCH  20  22
ATOM     21  N   UNL     1       5.929   5.494  18.677  0.00  0.00    +0.000 N 
ATOM     22  C   UNL     1       5.320   5.393  17.424  0.00  0.00    +0.000 C 
ATOM     23  O   UNL     1       5.958   5.355  16.383  0.00  0.00    +0.000 OA
ATOM     24  H   UNL     1       5.394   5.578  19.538  0.00  0.00    +0.000 HD
BRANCH  21  26
ATOM     25  C   UNL     1       8.064   7.096  18.413  0.00  0.00    +0.000 C 
ATOM     26  S   UNL     1       7.571   5.456  18.907  0.00  0.00    +0.000 S 
ATOM     27  O   UNL     1       8.146   4.476  18.016  0.00  0.00    +0.000 OA
ATOM     28  O   UNL     1       7.745   5.353  20.341  0.00  0.00    +0.000 OA
ENDBRANCH  21  26
ENDBRANCH  20  22
ENDBRANCH  19  20
ENDBRANCH   1  19
TORSDOF 6
ENDMDL
MODEL 9
REMARK VINA RESULT:      -7.9      1.603      2.151
REMARK  Name = 
REMARK  7 active torsions:
REMARK  status: ('A' for Active; 'I' for Inactive)
REMARK    1  A    between atoms: C_1  and  S_2
REMARK    2  A    between atoms: S_2  and  N_5
REMARK    3  A    between atoms: C_6  and  C_8
REMARK    4  A    between atoms: C_8  and  C_9
REMARK    5  A    between atoms: C_9  and  C_10
REMARK    6  A    between atoms: N_12  and  C_13
REMARK    7  A    between atoms: C_21  and  C_22
REMARK                            x       y       z     vdW  Elec       q    Type
REMARK                         _______ _______ _______ _____ _____    ______ ____
ROOT
ATOM      1  C   UNL     1       2.608   6.600  18.777  0.00  0.00    +0.000 A 
ATOM      2  C   UNL     1       2.155   7.873  19.040  0.00  0.00    +0.000 A 
ATOM      3  N   UNL     1       1.482   7.844  20.236  0.00  0.00    +0.000 N 
ATOM      4  N   UNL     1       1.507   6.604  20.776  0.00  0.00    +0.000 NA
ATOM      5  C   UNL     1       2.143   5.834  19.880  0.00  0.00    +0.000 A 
ENDROOT
BRANCH   3   6
ATOM      6  C   UNL     1       0.822   8.933  20.869  0.00  0.00    +0.000 A 
ATOM      7  C   UNL     1       0.460  10.075  20.135  0.00  0.00    +0.000 A 
ATOM      8  C   UNL     1      -0.193  11.137  20.762  0.00  0.00    +0.000 A 
ATOM      9  C   UNL     1      -0.482  11.064  22.121  0.00  0.00    +0.000 A 
ATOM     10 BR   UNL     1      -1.366  12.509  22.962  0.00  0.00    +0.000 Br
ATOM     11  C   UNL     1      -0.128   9.937  22.862  0.00  0.00    +0.000 A 
ATOM     12  C   UNL     1       0.522   8.866  22.237  0.00  0.00    +0.000 A 
ENDBRANCH   3   6
BRANCH   5  13
ATOM     13  C   UNL     1       2.281   4.349  20.115  0.00  0.00    +0.000 C 
ATOM     14  C   UNL     1       3.734   3.875  19.953  0.00  0.00    +0.000 C 
ATOM     15  C   UNL     1       3.840   2.359  20.021  0.00  0.00    +0.000 C 
ATOM     16  O   UNL     1       2.966   1.746  19.076  0.00  0.00    +0.000 OA
ATOM     17  C   UNL     1       1.598   2.043  19.344  0.00  0.00    +0.000 C 
ATOM     18  C   UNL     1       1.332   3.537  19.223  0.00  0.00    +0.000 C 
ENDBRANCH   5  13
BRANCH   1  19
ATOM     19  C   UNL     1       3.372   6.156  17.580  0.00  0.00    +0.000 C 
BRANCH  19  20
ATOM     20  C   UNL     1       4.282   7.244  17.008  0.00  0.00    +0.000 C 
BRANCH  20  22
ATOM     21  N   UNL     1       5.982   6.267  18.462  0.00  0.00    +0.000 N 
ATOM     22  C   UNL     1       5.727   6.893  17.241  0.00  0.00    +0.000 C 
ATOM     23  O   UNL     1       6.614   7.194  16.457  0.00  0.00    +0.000 OA
ATOM     24  H   UNL     1       5.248   6.065  19.136  0.00  0.00    +0.000 HD
BRANCH  21  26
ATOM     25  C   UNL     1       7.872   4.514  17.715  0.00  0.00    +0.000 C 
ATOM     26  S   UNL     1       7.487   5.755  18.937  0.00  0.00    +0.000 S 
ATOM     27  O   UNL     1       7.386   5.150  20.244  0.00  0.00    +0.000 OA
ATOM     28  O   UNL     1       8.357   6.890  18.706  0.00  0.00    +0.000 OA
ENDBRANCH  21  26
ENDBRANCH  20  22
ENDBRANCH  19  20
ENDBRANCH   1  19
TORSDOF 6
ENDMDL
