MODEL 1
REMARK VINA RESULT:      -8.5      0.000      0.000
REMARK  Name = 
REMARK  5 active torsions:
REMARK  status: ('A' for Active; 'I' for Inactive)
REMARK    1  A    between atoms: C_1  and  O_2
REMARK    2  A    between atoms: O_2  and  C_3
REMARK    3  A    between atoms: C_6  and  N_7
REMARK    4  A    between atoms: C_12  and  C_13
REMARK    5  A    between atoms: C_13  and  N_14
REMARK                            x       y       z     vdW  Elec       q    Type
REMARK                         _______ _______ _______ _____ _____    ______ ____
ROOT
ATOM      1  N   UNL     1       4.275   3.667  19.438  0.00  0.00    +0.000 N 
ATOM      2  N   UNL     1       4.606   2.472  19.878  0.00  0.00    +0.000 NA
ATOM      3  O   UNL     1       3.723   2.233  20.931  0.00  0.00    +0.000 OA
ATOM      4  C   UNL     1       2.837   3.298  21.081  0.00  0.00    +0.000 A 
ATOM      5  O   UNL     1       1.968   3.224  21.925  0.00  0.00    +0.000 OA
ATOM      6  C   UNL     1       3.221   4.230  20.122  0.00  0.00    +0.000 A 
ENDROOT
BRANCH   1  10
ATOM      7  C   UNL     1       6.722   4.999  16.188  0.00  0.00    +0.000 A 
ATOM      8  C   UNL     1       5.491   4.383  15.946  0.00  0.00    +0.000 A 
ATOM      9  C   UNL     1       4.686   3.949  17.010  0.00  0.00    +0.000 A 
ATOM     10  C   UNL     1       5.109   4.139  18.332  0.00  0.00    +0.000 A 
ATOM     11  C   UNL     1       6.335   4.758  18.561  0.00  0.00    +0.000 A 
ATOM     12  C   UNL     1       7.147   5.166  17.500  0.00  0.00    +0.000 A 
BRANCH   7  14
ATOM     13  C   UNL     1       7.043   4.752  13.856  0.00  0.00    +0.000 C 
ATOM     14  O   UNL     1       7.431   5.370  15.082  0.00  0.00    +0.000 OA
ENDBRANCH   7  14
ENDBRANCH   1  10
BRANCH   6  15
ATOM     15  C   UNL     1       2.594   5.533  19.797  0.00  0.00    +0.000 C 
BRANCH  15  16
ATOM     16  N   UNL     1       1.960   6.385  20.819  0.00  0.00    +0.000 N 
ATOM     17  C   UNL     1       1.553   7.648  20.537  0.00  0.00    +0.000 A 
ATOM     18  N   UNL     1       1.783   8.269  19.407  0.00  0.00    +0.000 NA
ATOM     19  C   UNL     1       1.282   9.549  19.437  0.00  0.00    +0.000 A 
ATOM     20  C   UNL     1       1.495  10.536  18.457  0.00  0.00    +0.000 A 
ATOM     21  C   UNL     1       0.894  11.785  18.599  0.00  0.00    +0.000 A 
ATOM     22  C   UNL     1       0.060  12.042  19.685  0.00  0.00    +0.000 A 
ATOM     23 CL   UNL     1      -0.683  13.587  19.829  0.00  0.00    +0.000 Cl
ATOM     24  C   UNL     1      -0.171  11.078  20.670  0.00  0.00    +0.000 A 
ATOM     25  C   UNL     1       0.488   9.846  20.545  0.00  0.00    +0.000 A 
ATOM     26  S   UNL     1       0.529   8.500  21.623  0.00  0.00    +0.000 S 
ATOM     27  H   UNL     1       2.444   6.311  21.714  0.00  0.00    +0.000 HD
ENDBRANCH  15  16
ENDBRANCH   6  15
TORSDOF 4
ENDMDL
MODEL 2
REMARK VINA RESULT:      -8.3      0.488      1.061
REMARK  Name = 
REMARK  5 active torsions:
REMARK  status: ('A' for Active; 'I' for Inactive)
REMARK    1  A    between atoms: C_1  and  O_2
REMARK    2  A    between atoms: O_2  and  C_3
REMARK    3  A    between atoms: C_6  and  N_7
REMARK    4  A    between atoms: C_12  and  C_13
REMARK    5  A    between atoms: C_13  and  N_14
REMARK                            x       y       z     vdW  Elec       q    Type
REMARK                         _______ _______ _______ _____ _____    ______ ____
ROOT
ATOM      1  N   UNL     1       4.223   3.473  19.685  0.00  0.00    +0.000 N 
ATOM      2  N   UNL     1       4.691   2.360  20.208  0.00  0.00    +0.000 NA
ATOM      3  O   UNL     1       3.823   2.079  21.264  0.00  0.00    +0.000 OA
ATOM      4  C   UNL     1       2.808   3.031  21.330  0.00  0.00    +0.000 A 
ATOM      5  O   UNL     1       1.937   2.904  22.166  0.00  0.00    +0.000 OA
ATOM      6  C   UNL     1       3.093   3.940  20.315  0.00  0.00    +0.000 A 
ENDROOT
BRANCH   1  10
ATOM      7  C   UNL     1       6.523   4.984  16.407  0.00  0.00    +0.000 A 
ATOM      8  C   UNL     1       6.882   5.280  17.724  0.00  0.00    +0.000 A 
ATOM      9  C   UNL     1       6.132   4.783  18.800  0.00  0.00    +0.000 A 
ATOM     10  C   UNL     1       5.014   3.973  18.561  0.00  0.00    +0.000 A 
ATOM     11  C   UNL     1       4.668   3.680  17.244  0.00  0.00    +0.000 A 
ATOM     12  C   UNL     1       5.402   4.198  16.172  0.00  0.00    +0.000 A 
BRANCH   7  14
ATOM     13  C   UNL     1       7.197   4.945  14.138  0.00  0.00    +0.000 C 
ATOM     14  O   UNL     1       7.313   5.529  15.435  0.00  0.00    +0.000 OA
ENDBRANCH   7  14
ENDBRANCH   1  10
BRANCH   6  15
ATOM     15  C   UNL     1       2.314   5.130  19.897  0.00  0.00    +0.000 C 
BRANCH  15  16
ATOM     16  N   UNL     1       1.852   6.153  20.851  0.00  0.00    +0.000 N 
ATOM     17  C   UNL     1       1.627   7.434  20.466  0.00  0.00    +0.000 A 
ATOM     18  N   UNL     1       1.906   7.914  19.280  0.00  0.00    +0.000 NA
ATOM     19  C   UNL     1       1.602   9.253  19.206  0.00  0.00    +0.000 A 
ATOM     20  C   UNL     1       1.925  10.108  18.136  0.00  0.00    +0.000 A 
ATOM     21  C   UNL     1       1.522  11.442  18.179  0.00  0.00    +0.000 A 
ATOM     22  C   UNL     1       0.775  11.914  19.256  0.00  0.00    +0.000 A 
ATOM     23 CL   UNL     1       0.275  13.560  19.277  0.00  0.00    +0.000 Cl
ATOM     24  C   UNL     1       0.438  11.084  20.329  0.00  0.00    +0.000 A 
ATOM     25  C   UNL     1       0.902   9.760  20.300  0.00  0.00    +0.000 A 
ATOM     26  S   UNL     1       0.781   8.521  21.494  0.00  0.00    +0.000 S 
ATOM     27  H   UNL     1       2.351   6.084  21.738  0.00  0.00    +0.000 HD
ENDBRANCH  15  16
ENDBRANCH   6  15
TORSDOF 4
ENDMDL
MODEL 3
REMARK VINA RESULT:      -8.3      1.175      1.526
REMARK  Name = 
REMARK  5 active torsions:
REMARK  status: ('A' for Active; 'I' for Inactive)
REMARK    1  A    between atoms: C_1  and  O_2
REMARK    2  A    between atoms: O_2  and  C_3
REMARK    3  A    between atoms: C_6  and  N_7
REMARK    4  A    between atoms: C_12  and  C_13
REMARK    5  A    between atoms: C_13  and  N_14
REMARK                            x       y       z     vdW  Elec       q    Type
REMARK                         _______ _______ _______ _____ _____    ______ ____
ROOT
ATOM      1  N   UNL     1       3.917   3.666  18.704  0.00  0.00    +0.000 N 
ATOM      2  N   UNL     1       3.694   2.370  18.675  0.00  0.00    +0.000 NA
ATOM      3  O   UNL     1       2.748   2.158  19.678  0.00  0.00    +0.000 OA
ATOM      4  C   UNL     1       2.387   3.364  20.275  0.00  0.00    +0.000 A 
ATOM      5  O   UNL     1       1.533   3.359  21.137  0.00  0.00    +0.000 OA
ATOM      6  C   UNL     1       3.170   4.329  19.650  0.00  0.00    +0.000 A 
ENDROOT
BRANCH   1  10
ATOM      7  C   UNL     1       6.850   4.924  15.850  0.00  0.00    +0.000 A 
ATOM      8  C   UNL     1       5.569   4.551  15.436  0.00  0.00    +0.000 A 
ATOM      9  C   UNL     1       4.605   4.141  16.370  0.00  0.00    +0.000 A 
ATOM     10  C   UNL     1       4.919   4.112  17.735  0.00  0.00    +0.000 A 
ATOM     11  C   UNL     1       6.198   4.491  18.137  0.00  0.00    +0.000 A 
ATOM     12  C   UNL     1       7.164   4.874  17.203  0.00  0.00    +0.000 A 
BRANCH   7  14
ATOM     13  C   UNL     1       7.345   4.910  13.536  0.00  0.00    +0.000 C 
ATOM     14  O   UNL     1       7.714   5.293  14.860  0.00  0.00    +0.000 OA
ENDBRANCH   7  14
ENDBRANCH   1  10
BRANCH   6  15
ATOM     15  C   UNL     1       3.165   5.797  19.856  0.00  0.00    +0.000 C 
BRANCH  15  16
ATOM     16  N   UNL     1       2.778   6.746  18.797  0.00  0.00    +0.000 N 
ATOM     17  C   UNL     1       2.076   7.873  19.076  0.00  0.00    +0.000 A 
ATOM     18  N   UNL     1       1.576   8.167  20.251  0.00  0.00    +0.000 NA
ATOM     19  C   UNL     1       0.884   9.355  20.209  0.00  0.00    +0.000 A 
ATOM     20  C   UNL     1       0.093   9.878  21.248  0.00  0.00    +0.000 A 
ATOM     21  C   UNL     1      -0.526  11.116  21.081  0.00  0.00    +0.000 A 
ATOM     22  C   UNL     1      -0.333  11.844  19.909  0.00  0.00    +0.000 A 
ATOM     23 CL   UNL     1      -1.094  13.376  19.735  0.00  0.00    +0.000 Cl
ATOM     24  C   UNL     1       0.452  11.347  18.864  0.00  0.00    +0.000 A 
ATOM     25  C   UNL     1       1.019  10.074  19.022  0.00  0.00    +0.000 A 
ATOM     26  S   UNL     1       1.922   9.121  17.904  0.00  0.00    +0.000 S 
ATOM     27  H   UNL     1       2.437   6.258  17.969  0.00  0.00    +0.000 HD
ENDBRANCH  15  16
ENDBRANCH   6  15
TORSDOF 4
ENDMDL
MODEL 4
REMARK VINA RESULT:      -8.3      1.628      2.112
REMARK  Name = 
REMARK  5 active torsions:
REMARK  status: ('A' for Active; 'I' for Inactive)
REMARK    1  A    between atoms: C_1  and  O_2
REMARK    2  A    between atoms: O_2  and  C_3
REMARK    3  A    between atoms: C_6  and  N_7
REMARK    4  A    between atoms: C_12  and  C_13
REMARK    5  A    between atoms: C_13  and  N_14
REMARK                            x       y       z     vdW  Elec       q    Type
REMARK                         _______ _______ _______ _____ _____    ______ ____
ROOT
ATOM      1  N   UNL     1       3.511   4.034  18.276  0.00  0.00    +0.000 N 
ATOM      2  N   UNL     1       3.040   2.817  18.104  0.00  0.00    +0.000 NA
ATOM      3  O   UNL     1       1.999   2.714  19.027  0.00  0.00    +0.000 OA
ATOM      4  C   UNL     1       1.839   3.911  19.722  0.00  0.00    +0.000 A 
ATOM      5  O   UNL     1       0.940   4.004  20.531  0.00  0.00    +0.000 OA
ATOM      6  C   UNL     1       2.841   4.749  19.241  0.00  0.00    +0.000 A 
ENDROOT
BRANCH   1  10
ATOM      7  C   UNL     1       6.840   4.915  15.734  0.00  0.00    +0.000 A 
ATOM      8  C   UNL     1       5.571   4.695  15.193  0.00  0.00    +0.000 A 
ATOM      9  C   UNL     1       4.478   4.409  16.024  0.00  0.00    +0.000 A 
ATOM     10  C   UNL     1       4.650   4.351  17.413  0.00  0.00    +0.000 A 
ATOM     11  C   UNL     1       5.918   4.577  17.942  0.00  0.00    +0.000 A 
ATOM     12  C   UNL     1       7.011   4.836  17.110  0.00  0.00    +0.000 A 
BRANCH   7  14
ATOM     13  C   UNL     1       7.503   4.975  13.462  0.00  0.00    +0.000 C 
ATOM     14  O   UNL     1       7.836   5.172  14.835  0.00  0.00    +0.000 OA
ENDBRANCH   7  14
ENDBRANCH   1  10
BRANCH   6  15
ATOM     15  C   UNL     1       3.109   6.164  19.594  0.00  0.00    +0.000 C 
BRANCH  15  16
ATOM     16  N   UNL     1       2.378   7.287  18.981  0.00  0.00    +0.000 N 
ATOM     17  C   UNL     1       1.648   8.152  19.729  0.00  0.00    +0.000 A 
ATOM     18  N   UNL     1       1.418   8.016  21.011  0.00  0.00    +0.000 NA
ATOM     19  C   UNL     1       0.614   9.028  21.478  0.00  0.00    +0.000 A 
ATOM     20  C   UNL     1       0.046   9.097  22.764  0.00  0.00    +0.000 A 
ATOM     21  C   UNL     1      -0.724  10.204  23.116  0.00  0.00    +0.000 A 
ATOM     22  C   UNL     1      -0.898  11.251  22.213  0.00  0.00    +0.000 A 
ATOM     23 CL   UNL     1      -1.839  12.615  22.678  0.00  0.00    +0.000 Cl
ATOM     24  C   UNL     1      -0.342  11.209  20.932  0.00  0.00    +0.000 A 
ATOM     25  C   UNL     1       0.380  10.061  20.571  0.00  0.00    +0.000 A 
ATOM     26  S   UNL     1       1.082   9.629  19.057  0.00  0.00    +0.000 S 
ATOM     27  H   UNL     1       1.901   6.996  18.127  0.00  0.00    +0.000 HD
ENDBRANCH  15  16
ENDBRANCH   6  15
TORSDOF 4
ENDMDL
MODEL 5
REMARK VINA RESULT:      -8.3      1.494      2.118
REMARK  Name = 
REMARK  5 active torsions:
REMARK  status: ('A' for Active; 'I' for Inactive)
REMARK    1  A    between atoms: C_1  and  O_2
REMARK    2  A    between atoms: O_2  and  C_3
REMARK    3  A    between atoms: C_6  and  N_7
REMARK    4  A    between atoms: C_12  and  C_13
REMARK    5  A    between atoms: C_13  and  N_14
REMARK                            x       y       z     vdW  Elec       q    Type
REMARK                         _______ _______ _______ _____ _____    ______ ____
ROOT
ATOM      1  N   UNL     1       4.130   3.547  18.002  0.00  0.00    +0.000 N 
ATOM      2  N   UNL     1       3.821   2.274  17.882  0.00  0.00    +0.000 NA
ATOM      3  O   UNL     1       2.933   2.032  18.931  0.00  0.00    +0.000 OA
ATOM      4  C   UNL     1       2.694   3.201  19.651  0.00  0.00    +0.000 A 
ATOM      5  O   UNL     1       1.902   3.172  20.570  0.00  0.00    +0.000 OA
ATOM      6  C   UNL     1       3.494   4.169  19.051  0.00  0.00    +0.000 A 
ENDROOT
BRANCH   1  10
ATOM      7  C   UNL     1       6.939   4.965  15.099  0.00  0.00    +0.000 A 
ATOM      8  C   UNL     1       7.294   4.874  16.447  0.00  0.00    +0.000 A 
ATOM      9  C   UNL     1       6.376   4.407  17.399  0.00  0.00    +0.000 A 
ATOM     10  C   UNL     1       5.091   4.016  17.002  0.00  0.00    +0.000 A 
ATOM     11  C   UNL     1       4.750   4.105  15.655  0.00  0.00    +0.000 A 
ATOM     12  C   UNL     1       5.657   4.596  14.711  0.00  0.00    +0.000 A 
BRANCH   7  14
ATOM     13  C   UNL     1       7.741   5.123  12.878  0.00  0.00    +0.000 C 
ATOM     14  O   UNL     1       7.902   5.445  14.258  0.00  0.00    +0.000 OA
ENDBRANCH   7  14
ENDBRANCH   1  10
BRANCH   6  15
ATOM     15  C   UNL     1       3.599   5.611  19.378  0.00  0.00    +0.000 C 
BRANCH  15  16
ATOM     16  N   UNL     1       2.955   6.658  18.565  0.00  0.00    +0.000 N 
ATOM     17  C   UNL     1       2.196   7.630  19.130  0.00  0.00    +0.000 A 
ATOM     18  N   UNL     1       1.861   7.670  20.395  0.00  0.00    +0.000 NA
ATOM     19  C   UNL     1       1.054   8.753  20.657  0.00  0.00    +0.000 A 
ATOM     20  C   UNL     1       0.389   9.003  21.871  0.00  0.00    +0.000 A 
ATOM     21  C   UNL     1      -0.371  10.164  22.010  0.00  0.00    +0.000 A 
ATOM     22  C   UNL     1      -0.440  11.084  20.967  0.00  0.00    +0.000 A 
ATOM     23 CL   UNL     1      -1.371  12.517  21.169  0.00  0.00    +0.000 Cl
ATOM     24  C   UNL     1       0.216  10.861  19.753  0.00  0.00    +0.000 A 
ATOM     25  C   UNL     1       0.926   9.660  19.607  0.00  0.00    +0.000 A 
ATOM     26  S   UNL     1       1.733   9.016  18.225  0.00  0.00    +0.000 S 
ATOM     27  H   UNL     1       2.539   6.266  17.719  0.00  0.00    +0.000 HD
ENDBRANCH  15  16
ENDBRANCH   6  15
TORSDOF 4
ENDMDL
MODEL 6
REMARK VINA RESULT:      -8.2      0.645      1.137
REMARK  Name = 
REMARK  5 active torsions:
REMARK  status: ('A' for Active; 'I' for Inactive)
REMARK    1  A    between atoms: C_1  and  O_2
REMARK    2  A    between atoms: O_2  and  C_3
REMARK    3  A    between atoms: C_6  and  N_7
REMARK    4  A    between atoms: C_12  and  C_13
REMARK    5  A    between atoms: C_13  and  N_14
REMARK                            x       y       z     vdW  Elec       q    Type
REMARK                         _______ _______ _______ _____ _____    ______ ____
ROOT
ATOM      1  N   UNL     1       3.775   3.737  18.840  0.00  0.00    +0.000 N 
ATOM      2  N   UNL     1       3.633   2.436  18.973  0.00  0.00    +0.000 NA
ATOM      3  O   UNL     1       2.683   2.291  19.984  0.00  0.00    +0.000 OA
ATOM      4  C   UNL     1       2.237   3.537  20.420  0.00  0.00    +0.000 A 
ATOM      5  O   UNL     1       1.368   3.586  21.266  0.00  0.00    +0.000 OA
ATOM      6  C   UNL     1       2.970   4.465  19.686  0.00  0.00    +0.000 A 
ENDROOT
BRANCH   1  10
ATOM      7  C   UNL     1       6.669   4.910  15.913  0.00  0.00    +0.000 A 
ATOM      8  C   UNL     1       6.977   4.955  17.275  0.00  0.00    +0.000 A 
ATOM      9  C   UNL     1       6.031   4.568  18.236  0.00  0.00    +0.000 A 
ATOM     10  C   UNL     1       4.766   4.122  17.834  0.00  0.00    +0.000 A 
ATOM     11  C   UNL     1       4.472   4.076  16.473  0.00  0.00    +0.000 A 
ATOM     12  C   UNL     1       5.406   4.487  15.519  0.00  0.00    +0.000 A 
BRANCH   7  14
ATOM     13  C   UNL     1       7.443   5.045  13.680  0.00  0.00    +0.000 C 
ATOM     14  O   UNL     1       7.657   5.321  15.064  0.00  0.00    +0.000 OA
ENDBRANCH   7  14
ENDBRANCH   1  10
BRANCH   6  15
ATOM     15  C   UNL     1       2.870   5.943  19.705  0.00  0.00    +0.000 C 
BRANCH  15  16
ATOM     16  N   UNL     1       2.152   6.677  20.763  0.00  0.00    +0.000 N 
ATOM     17  C   UNL     1       1.567   7.877  20.522  0.00  0.00    +0.000 A 
ATOM     18  N   UNL     1       1.678   8.548  19.403  0.00  0.00    +0.000 NA
ATOM     19  C   UNL     1       1.006   9.745  19.477  0.00  0.00    +0.000 A 
ATOM     20  C   UNL     1       1.055  10.773  18.517  0.00  0.00    +0.000 A 
ATOM     21  C   UNL     1       0.291  11.924  18.705  0.00  0.00    +0.000 A 
ATOM     22  C   UNL     1      -0.541  12.038  19.816  0.00  0.00    +0.000 A 
ATOM     23 CL   UNL     1      -1.487  13.462  20.016  0.00  0.00    +0.000 Cl
ATOM     24  C   UNL     1      -0.611  11.030  20.782  0.00  0.00    +0.000 A 
ATOM     25  C   UNL     1       0.209   9.905  20.610  0.00  0.00    +0.000 A 
ATOM     26  S   UNL     1       0.464   8.556  21.653  0.00  0.00    +0.000 S 
ATOM     27  H   UNL     1       2.665   6.652  21.644  0.00  0.00    +0.000 HD
ENDBRANCH  15  16
ENDBRANCH   6  15
TORSDOF 4
ENDMDL
MODEL 7
REMARK VINA RESULT:      -8.2      1.841      2.447
REMARK  Name = 
REMARK  5 active torsions:
REMARK  status: ('A' for Active; 'I' for Inactive)
REMARK    1  A    between atoms: C_1  and  O_2
REMARK    2  A    between atoms: O_2  and  C_3
REMARK    3  A    between atoms: C_6  and  N_7
REMARK    4  A    between atoms: C_12  and  C_13
REMARK    5  A    between atoms: C_13  and  N_14
REMARK                            x       y       z     vdW  Elec       q    Type
REMARK                         _______ _______ _______ _____ _____    ______ ____
ROOT
ATOM      1  N   UNL     1       4.034   4.138  19.043  0.00  0.00    +0.000 N 
ATOM      2  N   UNL     1       4.196   2.916  18.582  0.00  0.00    +0.000 NA
ATOM      3  O   UNL     1       3.173   2.180  19.180  0.00  0.00    +0.000 OA
ATOM      4  C   UNL     1       2.378   3.002  19.976  0.00  0.00    +0.000 A 
ATOM      5  O   UNL     1       1.410   2.523  20.529  0.00  0.00    +0.000 OA
ATOM      6  C   UNL     1       2.961   4.263  19.895  0.00  0.00    +0.000 A 
ENDROOT
BRANCH   1  10
ATOM      7  C   UNL     1       6.968   6.891  17.583  0.00  0.00    +0.000 A 
ATOM      8  C   UNL     1       5.701   6.826  16.998  0.00  0.00    +0.000 A 
ATOM      9  C   UNL     1       4.736   5.927  17.478  0.00  0.00    +0.000 A 
ATOM     10  C   UNL     1       5.036   5.088  18.558  0.00  0.00    +0.000 A 
ATOM     11  C   UNL     1       6.300   5.165  19.136  0.00  0.00    +0.000 A 
ATOM     12  C   UNL     1       7.269   6.043  18.641  0.00  0.00    +0.000 A 
BRANCH   7  14
ATOM     13  C   UNL     1       8.131   8.939  17.826  0.00  0.00    +0.000 C 
ATOM     14  O   UNL     1       7.835   7.791  17.031  0.00  0.00    +0.000 OA
ENDBRANCH   7  14
ENDBRANCH   1  10
BRANCH   6  15
ATOM     15  C   UNL     1       2.501   5.533  20.505  0.00  0.00    +0.000 C 
BRANCH  15  16
ATOM     16  N   UNL     1       2.141   6.715  19.703  0.00  0.00    +0.000 N 
ATOM     17  C   UNL     1       1.523   7.788  20.256  0.00  0.00    +0.000 A 
ATOM     18  N   UNL     1       1.082   7.839  21.488  0.00  0.00    +0.000 NA
ATOM     19  C   UNL     1       0.467   9.042  21.743  0.00  0.00    +0.000 A 
ATOM     20  C   UNL     1      -0.255   9.363  22.907  0.00  0.00    +0.000 A 
ATOM     21  C   UNL     1      -0.798  10.639  23.048  0.00  0.00    +0.000 A 
ATOM     22  C   UNL     1      -0.597  11.598  22.058  0.00  0.00    +0.000 A 
ATOM     23 CL   UNL     1      -1.264  13.171  22.263  0.00  0.00    +0.000 Cl
ATOM     24  C   UNL     1       0.119  11.306  20.894  0.00  0.00    +0.000 A 
ATOM     25  C   UNL     1       0.608  10.000  20.740  0.00  0.00    +0.000 A 
ATOM     26  S   UNL     1       1.411   9.273  19.398  0.00  0.00    +0.000 S 
ATOM     27  H   UNL     1       1.743   6.444  18.803  0.00  0.00    +0.000 HD
ENDBRANCH  15  16
ENDBRANCH   6  15
TORSDOF 4
ENDMDL
MODEL 8
REMARK VINA RESULT:      -8.2      1.411      1.868
REMARK  Name = 
REMARK  5 active torsions:
REMARK  status: ('A' for Active; 'I' for Inactive)
REMARK    1  A    between atoms: C_1  and  O_2
REMARK    2  A    between atoms: O_2  and  C_3
REMARK    3  A    between atoms: C_6  and  N_7
REMARK    4  A    between atoms: C_12  and  C_13
REMARK    5  A    between atoms: C_13  and  N_14
REMARK                            x       y       z     vdW  Elec       q    Type
REMARK                         _______ _______ _______ _____ _____    ______ ____
ROOT
ATOM      1  N   UNL     1       4.321   4.198  19.448  0.00  0.00    +0.000 N 
ATOM      2  N   UNL     1       4.849   3.009  19.646  0.00  0.00    +0.000 NA
ATOM      3  O   UNL     1       3.856   2.294  20.315  0.00  0.00    +0.000 OA
ATOM      4  C   UNL     1       2.713   3.074  20.474  0.00  0.00    +0.000 A 
ATOM      5  O   UNL     1       1.734   2.581  20.996  0.00  0.00    +0.000 OA
ATOM      6  C   UNL     1       3.037   4.313  19.928  0.00  0.00    +0.000 A 
ENDROOT
BRANCH   1  10
ATOM      7  C   UNL     1       6.948   6.974  17.520  0.00  0.00    +0.000 A 
ATOM      8  C   UNL     1       7.389   6.215  18.607  0.00  0.00    +0.000 A 
ATOM      9  C   UNL     1       6.530   5.302  19.238  0.00  0.00    +0.000 A 
ATOM     10  C   UNL     1       5.219   5.137  18.774  0.00  0.00    +0.000 A 
ATOM     11  C   UNL     1       4.792   5.895  17.687  0.00  0.00    +0.000 A 
ATOM     12  C   UNL     1       5.640   6.823  17.076  0.00  0.00    +0.000 A 
BRANCH   7  14
ATOM     13  C   UNL     1       8.117   9.019  17.752  0.00  0.00    +0.000 C 
ATOM     14  O   UNL     1       7.859   7.842  16.989  0.00  0.00    +0.000 OA
ENDBRANCH   7  14
ENDBRANCH   1  10
BRANCH   6  15
ATOM     15  C   UNL     1       2.176   5.510  19.782  0.00  0.00    +0.000 C 
BRANCH  15  16
ATOM     16  N   UNL     1       1.943   6.461  20.884  0.00  0.00    +0.000 N 
ATOM     17  C   UNL     1       1.622   7.757  20.648  0.00  0.00    +0.000 A 
ATOM     18  N   UNL     1       1.609   8.316  19.463  0.00  0.00    +0.000 NA
ATOM     19  C   UNL     1       1.285   9.650  19.551  0.00  0.00    +0.000 A 
ATOM     20  C   UNL     1       1.338  10.577  18.494  0.00  0.00    +0.000 A 
ATOM     21  C   UNL     1       0.944  11.895  18.718  0.00  0.00    +0.000 A 
ATOM     22  C   UNL     1       0.469  12.281  19.970  0.00  0.00    +0.000 A 
ATOM     23 CL   UNL     1      -0.026  13.911  20.216  0.00  0.00    +0.000 Cl
ATOM     24  C   UNL     1       0.403  11.379  21.034  0.00  0.00    +0.000 A 
ATOM     25  C   UNL     1       0.859  10.071  20.810  0.00  0.00    +0.000 A 
ATOM     26  S   UNL     1       1.034   8.758  21.915  0.00  0.00    +0.000 S 
ATOM     27  H   UNL     1       2.638   6.349  21.622  0.00  0.00    +0.000 HD
ENDBRANCH  15  16
ENDBRANCH   6  15
TORSDOF 4
ENDMDL
MODEL 9
REMARK VINA RESULT:      -8.1      1.519      1.641
REMARK  Name = 
REMARK  5 active torsions:
REMARK  status: ('A' for Active; 'I' for Inactive)
REMARK    1  A    between atoms: C_1  and  O_2
REMARK    2  A    between atoms: O_2  and  C_3
REMARK    3  A    between atoms: C_6  and  N_7
REMARK    4  A    between atoms: C_12  and  C_13
REMARK    5  A    between atoms: C_13  and  N_14
REMARK                            x       y       z     vdW  Elec       q    Type
REMARK                         _______ _______ _______ _____ _____    ______ ____
ROOT
ATOM      1  N   UNL     1       2.905   4.033  17.794  0.00  0.00    +0.000 N 
ATOM      2  N   UNL     1       2.143   3.191  17.130  0.00  0.00    +0.000 NA
ATOM      3  O   UNL     1       1.113   2.879  18.018  0.00  0.00    +0.000 OA
ATOM      4  C   UNL     1       1.263   3.585  19.209  0.00  0.00    +0.000 A 
ATOM      5  O   UNL     1       0.418   3.463  20.073  0.00  0.00    +0.000 OA
ATOM      6  C   UNL     1       2.440   4.310  19.059  0.00  0.00    +0.000 A 
ENDROOT
BRANCH   1  10
ATOM      7  C   UNL     1       6.382   5.306  15.646  0.00  0.00    +0.000 A 
ATOM      8  C   UNL     1       6.080   3.948  15.768  0.00  0.00    +0.000 A 
ATOM      9  C   UNL     1       4.938   3.528  16.469  0.00  0.00    +0.000 A 
ATOM     10  C   UNL     1       4.083   4.475  17.047  0.00  0.00    +0.000 A 
ATOM     11  C   UNL     1       4.392   5.826  16.914  0.00  0.00    +0.000 A 
ATOM     12  C   UNL     1       5.543   6.241  16.238  0.00  0.00    +0.000 A 
BRANCH   7  14
ATOM     13  C   UNL     1       7.585   5.116  13.616  0.00  0.00    +0.000 C 
ATOM     14  O   UNL     1       7.522   5.604  14.955  0.00  0.00    +0.000 OA
ENDBRANCH   7  14
ENDBRANCH   1  10
BRANCH   6  15
ATOM     15  C   UNL     1       3.057   5.275  20.000  0.00  0.00    +0.000 C 
BRANCH  15  16
ATOM     16  N   UNL     1       2.259   6.130  20.898  0.00  0.00    +0.000 N 
ATOM     17  C   UNL     1       1.788   7.336  20.496  0.00  0.00    +0.000 A 
ATOM     18  N   UNL     1       2.085   7.909  19.356  0.00  0.00    +0.000 NA
ATOM     19  C   UNL     1       1.488   9.144  19.255  0.00  0.00    +0.000 A 
ATOM     20  C   UNL     1       1.725  10.087  18.238  0.00  0.00    +0.000 A 
ATOM     21  C   UNL     1       1.020  11.289  18.240  0.00  0.00    +0.000 A 
ATOM     22  C   UNL     1       0.062  11.538  19.220  0.00  0.00    +0.000 A 
ATOM     23 CL   UNL     1      -0.807  13.023  19.190  0.00  0.00    +0.000 Cl
ATOM     24  C   UNL     1      -0.195  10.616  20.238  0.00  0.00    +0.000 A 
ATOM     25  C   UNL     1       0.565   9.437  20.258  0.00  0.00    +0.000 A 
ATOM     26  S   UNL     1       0.597   8.163  21.420  0.00  0.00    +0.000 S 
ATOM     27  H   UNL     1       2.653   6.147  21.838  0.00  0.00    +0.000 HD
ENDBRANCH  15  16
ENDBRANCH   6  15
TORSDOF 4
ENDMDL
