MODEL 1
REMARK VINA RESULT:      -8.3      0.000      0.000
REMARK  Name = 
REMARK  8 active torsions:
REMARK  status: ('A' for Active; 'I' for Inactive)
REMARK    1  A    between atoms: C_1  and  O_2
REMARK    2  A    between atoms: O_2  and  C_3
REMARK    3  A    between atoms: C_3  and  C_4
REMARK    4  A    between atoms: C_4  and  N_5
REMARK    5  A    between atoms: C_6  and  C_8
REMARK    6  A    between atoms: C_9  and  N_10
REMARK    7  A    between atoms: N_11  and  C_12
REMARK    8  A    between atoms: C_16  and  C_17
REMARK                            x       y       z     vdW  Elec       q    Type
REMARK                         _______ _______ _______ _____ _____    ______ ____
ROOT
ATOM      1  C   UNL     1       6.566   6.450  17.272  0.00  0.00    +0.000 A 
ATOM      2  C   UNL     1       7.338   5.268  17.139  0.00  0.00    +0.000 A 
ATOM      3  N   UNL     1       6.548   4.608  16.209  0.00  0.00    +0.000 N 
ATOM      4  C   UNL     1       5.375   4.538  16.889  0.00  0.00    +0.000 A 
ATOM      5  N   UNL     1       4.559   3.483  16.830  0.00  0.00    +0.000 NA
ATOM      6  C   UNL     1       3.485   3.625  17.524  0.00  0.00    +0.000 A 
ATOM      7  C   UNL     1       2.701   2.480  17.526  0.00  0.00    +0.000 A 
ATOM      8  C   UNL     1       1.514   2.430  18.224  0.00  0.00    +0.000 A 
ATOM      9  C   UNL     1       1.130   3.573  18.902  0.00  0.00    +0.000 A 
ATOM     10  C   UNL     1       1.937   4.748  18.880  0.00  0.00    +0.000 A 
ATOM     11  C   UNL     1       3.168   4.850  18.195  0.00  0.00    +0.000 A 
ATOM     12  N   UNL     1       4.026   5.988  18.179  0.00  0.00    +0.000 NA
ATOM     13  C   UNL     1       5.241   5.784  17.538  0.00  0.00    +0.000 A 
ENDROOT
BRANCH   3  14
ATOM     14  C   UNL     1       6.679   4.466  14.807  0.00  0.00    +0.000 A 
ATOM     15  C   UNL     1       7.727   5.068  14.133  0.00  0.00    +0.000 A 
ATOM     16  C   UNL     1       7.777   4.967  12.741  0.00  0.00    +0.000 A 
ATOM     17  C   UNL     1       6.768   4.305  12.027  0.00  0.00    +0.000 A 
ATOM     18  C   UNL     1       5.692   3.719  12.693  0.00  0.00    +0.000 A 
ATOM     19  C   UNL     1       4.561   3.060  11.957  0.00  0.00    +0.000 C 
ATOM     20  C   UNL     1       5.667   3.785  14.087  0.00  0.00    +0.000 A 
ENDBRANCH   3  14
BRANCH   1  22
ATOM     21  N   UNL     1       7.173   8.854  17.879  0.00  0.00    +0.000 N 
ATOM     22  C   UNL     1       7.435   7.658  17.242  0.00  0.00    +0.000 C 
ATOM     23  O   UNL     1       8.500   7.606  16.604  0.00  0.00    +0.000 OA
ATOM     24  H   UNL     1       6.306   8.999  18.366  0.00  0.00    +0.000 HD
BRANCH  21  25
ATOM     25  C   UNL     1       8.261   9.878  18.003  0.00  0.00    +0.000 C 
BRANCH  25  26
ATOM     26  C   UNL     1       9.138   9.857  19.275  0.00  0.00    +0.000 C 
BRANCH  26  28
ATOM     27  C   UNL     1      10.288  11.453  17.955  0.00  0.00    +0.000 C 
ATOM     28  O   UNL     1      10.055  10.954  19.270  0.00  0.00    +0.000 OA
ENDBRANCH  26  28
ENDBRANCH  25  26
ENDBRANCH  21  25
ENDBRANCH   1  22
BRANCH   2  29
ATOM     29  N   UNL     1       7.888   4.610  18.228  0.00  0.00    +0.000 N 
ATOM     30  H   UNL     1       7.714   5.081  19.119  0.00  0.00    +0.000 HD
ATOM     31  H   UNL     1       7.502   3.667  18.372  0.00  0.00    +0.000 HD
ENDBRANCH   2  29
TORSDOF 6
ENDMDL
MODEL 2
REMARK VINA RESULT:      -8.2      4.075      6.465
REMARK  Name = 
REMARK  8 active torsions:
REMARK  status: ('A' for Active; 'I' for Inactive)
REMARK    1  A    between atoms: C_1  and  O_2
REMARK    2  A    between atoms: O_2  and  C_3
REMARK    3  A    between atoms: C_3  and  C_4
REMARK    4  A    between atoms: C_4  and  N_5
REMARK    5  A    between atoms: C_6  and  C_8
REMARK    6  A    between atoms: C_9  and  N_10
REMARK    7  A    between atoms: N_11  and  C_12
REMARK    8  A    between atoms: C_16  and  C_17
REMARK                            x       y       z     vdW  Elec       q    Type
REMARK                         _______ _______ _______ _____ _____    ______ ____
ROOT
ATOM      1  C   UNL     1       3.384   3.809  19.864  0.00  0.00    +0.000 A 
ATOM      2  C   UNL     1       3.043   3.448  18.536  0.00  0.00    +0.000 A 
ATOM      3  N   UNL     1       3.683   4.482  17.869  0.00  0.00    +0.000 N 
ATOM      4  C   UNL     1       3.063   5.555  18.426  0.00  0.00    +0.000 A 
ATOM      5  N   UNL     1       2.749   6.654  17.737  0.00  0.00    +0.000 NA
ATOM      6  C   UNL     1       2.192   7.567  18.453  0.00  0.00    +0.000 A 
ATOM      7  C   UNL     1       1.787   8.658  17.697  0.00  0.00    +0.000 A 
ATOM      8  C   UNL     1       1.157   9.735  18.281  0.00  0.00    +0.000 A 
ATOM      9  C   UNL     1       0.967   9.691  19.651  0.00  0.00    +0.000 A 
ATOM     10  C   UNL     1       1.401   8.570  20.418  0.00  0.00    +0.000 A 
ATOM     11  C   UNL     1       2.036   7.433  19.870  0.00  0.00    +0.000 A 
ATOM     12  N   UNL     1       2.450   6.275  20.590  0.00  0.00    +0.000 NA
ATOM     13  C   UNL     1       2.930   5.244  19.795  0.00  0.00    +0.000 A 
ENDROOT
BRANCH   3  14
ATOM     14  C   UNL     1       4.926   4.529  17.194  0.00  0.00    +0.000 A 
ATOM     15  C   UNL     1       6.048   5.042  17.820  0.00  0.00    +0.000 A 
ATOM     16  C   UNL     1       7.237   5.141  17.094  0.00  0.00    +0.000 A 
ATOM     17  C   UNL     1       7.293   4.767  15.743  0.00  0.00    +0.000 A 
ATOM     18  C   UNL     1       6.161   4.276  15.093  0.00  0.00    +0.000 A 
ATOM     19  C   UNL     1       6.167   3.929  13.633  0.00  0.00    +0.000 C 
ATOM     20  C   UNL     1       4.985   4.139  15.834  0.00  0.00    +0.000 A 
ENDBRANCH   3  14
BRANCH   1  22
ATOM     21  N   UNL     1       4.966   1.872  20.377  0.00  0.00    +0.000 N 
ATOM     22  C   UNL     1       3.836   2.620  20.638  0.00  0.00    +0.000 C 
ATOM     23  O   UNL     1       3.159   2.257  21.614  0.00  0.00    +0.000 OA
ATOM     24  H   UNL     1       5.535   2.062  19.570  0.00  0.00    +0.000 HD
BRANCH  21  25
ATOM     25  C   UNL     1       5.452   0.888  21.399  0.00  0.00    +0.000 C 
BRANCH  25  26
ATOM     26  C   UNL     1       6.012  -0.463  20.899  0.00  0.00    +0.000 C 
BRANCH  26  28
ATOM     27  C   UNL     1       6.456  -1.608  22.924  0.00  0.00    +0.000 C 
ATOM     28  O   UNL     1       7.017  -0.950  21.790  0.00  0.00    +0.000 OA
ENDBRANCH  26  28
ENDBRANCH  25  26
ENDBRANCH  21  25
ENDBRANCH   1  22
BRANCH   2  29
ATOM     29  N   UNL     1       1.770   3.028  18.181  0.00  0.00    +0.000 N 
ATOM     30  H   UNL     1       1.711   2.670  17.225  0.00  0.00    +0.000 HD
ATOM     31  H   UNL     1       1.423   2.247  18.755  0.00  0.00    +0.000 HD
ENDBRANCH   2  29
TORSDOF 6
ENDMDL
MODEL 3
REMARK VINA RESULT:      -8.2      2.942      6.554
REMARK  Name = 
REMARK  8 active torsions:
REMARK  status: ('A' for Active; 'I' for Inactive)
REMARK    1  A    between atoms: C_1  and  O_2
REMARK    2  A    between atoms: O_2  and  C_3
REMARK    3  A    between atoms: C_3  and  C_4
REMARK    4  A    between atoms: C_4  and  N_5
REMARK    5  A    between atoms: C_6  and  C_8
REMARK    6  A    between atoms: C_9  and  N_10
REMARK    7  A    between atoms: N_11  and  C_12
REMARK    8  A    between atoms: C_16  and  C_17
REMARK                            x       y       z     vdW  Elec       q    Type
REMARK                         _______ _______ _______ _____ _____    ______ ____
ROOT
ATOM      1  C   UNL     1       5.038   5.878  16.881  0.00  0.00    +0.000 A 
ATOM      2  C   UNL     1       5.457   5.472  18.174  0.00  0.00    +0.000 A 
ATOM      3  N   UNL     1       4.214   5.172  18.710  0.00  0.00    +0.000 N 
ATOM      4  C   UNL     1       3.594   6.373  18.581  0.00  0.00    +0.000 A 
ATOM      5  N   UNL     1       2.747   6.859  19.491  0.00  0.00    +0.000 NA
ATOM      6  C   UNL     1       2.244   7.998  19.170  0.00  0.00    +0.000 A 
ATOM      7  C   UNL     1       1.445   8.527  20.173  0.00  0.00    +0.000 A 
ATOM      8  C   UNL     1       0.827   9.749  20.024  0.00  0.00    +0.000 A 
ATOM      9  C   UNL     1       1.020  10.412  18.825  0.00  0.00    +0.000 A 
ATOM     10  C   UNL     1       1.831   9.852  17.795  0.00  0.00    +0.000 A 
ATOM     11  C   UNL     1       2.501   8.612  17.902  0.00  0.00    +0.000 A 
ATOM     12  N   UNL     1       3.353   8.033  16.917  0.00  0.00    +0.000 NA
ATOM     13  C   UNL     1       3.992   6.869  17.322  0.00  0.00    +0.000 A 
ENDROOT
BRANCH   3  14
ATOM     14  C   UNL     1       3.549   3.935  18.889  0.00  0.00    +0.000 A 
ATOM     15  C   UNL     1       3.461   3.026  17.850  0.00  0.00    +0.000 A 
ATOM     16  C   UNL     1       2.730   1.852  18.043  0.00  0.00    +0.000 A 
ATOM     17  C   UNL     1       2.062   1.606  19.252  0.00  0.00    +0.000 A 
ATOM     18  C   UNL     1       2.120   2.529  20.297  0.00  0.00    +0.000 A 
ATOM     19  C   UNL     1       1.364   2.330  21.579  0.00  0.00    +0.000 C 
ATOM     20  C   UNL     1       2.885   3.682  20.114  0.00  0.00    +0.000 A 
ENDBRANCH   3  14
BRANCH   1  22
ATOM     21  N   UNL     1       5.488   4.377  14.866  0.00  0.00    +0.000 N 
ATOM     22  C   UNL     1       5.901   5.275  15.829  0.00  0.00    +0.000 C 
ATOM     23  O   UNL     1       7.099   5.601  15.787  0.00  0.00    +0.000 OA
ATOM     24  H   UNL     1       4.550   4.016  14.867  0.00  0.00    +0.000 HD
BRANCH  21  25
ATOM     25  C   UNL     1       6.385   4.076  13.703  0.00  0.00    +0.000 C 
BRANCH  25  26
ATOM     26  C   UNL     1       5.813   3.232  12.542  0.00  0.00    +0.000 C 
BRANCH  26  28
ATOM     27  C   UNL     1       3.942   2.978  11.112  0.00  0.00    +0.000 C 
ATOM     28  O   UNL     1       4.629   3.838  12.019  0.00  0.00    +0.000 OA
ENDBRANCH  26  28
ENDBRANCH  25  26
ENDBRANCH  21  25
ENDBRANCH   1  22
BRANCH   2  29
ATOM     29  N   UNL     1       6.417   6.162  18.898  0.00  0.00    +0.000 N 
ATOM     30  H   UNL     1       6.046   6.976  19.394  0.00  0.00    +0.000 HD
ATOM     31  H   UNL     1       6.849   5.599  19.643  0.00  0.00    +0.000 HD
ENDBRANCH   2  29
TORSDOF 6
ENDMDL
MODEL 4
REMARK VINA RESULT:      -8.1      4.143      6.774
REMARK  Name = 
REMARK  8 active torsions:
REMARK  status: ('A' for Active; 'I' for Inactive)
REMARK    1  A    between atoms: C_1  and  O_2
REMARK    2  A    between atoms: O_2  and  C_3
REMARK    3  A    between atoms: C_3  and  C_4
REMARK    4  A    between atoms: C_4  and  N_5
REMARK    5  A    between atoms: C_6  and  C_8
REMARK    6  A    between atoms: C_9  and  N_10
REMARK    7  A    between atoms: N_11  and  C_12
REMARK    8  A    between atoms: C_16  and  C_17
REMARK                            x       y       z     vdW  Elec       q    Type
REMARK                         _______ _______ _______ _____ _____    ______ ____
ROOT
ATOM      1  C   UNL     1       2.656   4.583  19.487  0.00  0.00    +0.000 A 
ATOM      2  C   UNL     1       2.427   4.463  18.093  0.00  0.00    +0.000 A 
ATOM      3  N   UNL     1       3.208   5.524  17.661  0.00  0.00    +0.000 N 
ATOM      4  C   UNL     1       2.618   6.550  18.326  0.00  0.00    +0.000 A 
ATOM      5  N   UNL     1       2.460   7.767  17.799  0.00  0.00    +0.000 NA
ATOM      6  C   UNL     1       1.904   8.606  18.600  0.00  0.00    +0.000 A 
ATOM      7  C   UNL     1       1.662   9.832  17.998  0.00  0.00    +0.000 A 
ATOM      8  C   UNL     1       1.059  10.860  18.689  0.00  0.00    +0.000 A 
ATOM      9  C   UNL     1       0.727  10.623  20.011  0.00  0.00    +0.000 A 
ATOM     10  C   UNL     1       0.993   9.364  20.623  0.00  0.00    +0.000 A 
ATOM     11  C   UNL     1       1.593   8.271  19.957  0.00  0.00    +0.000 A 
ATOM     12  N   UNL     1       1.842   6.983  20.515  0.00  0.00    +0.000 NA
ATOM     13  C   UNL     1       2.322   6.047  19.610  0.00  0.00    +0.000 A 
ENDROOT
BRANCH   3  14
ATOM     14  C   UNL     1       4.514   5.561  17.117  0.00  0.00    +0.000 A 
ATOM     15  C   UNL     1       4.953   4.556  16.272  0.00  0.00    +0.000 A 
ATOM     16  C   UNL     1       6.273   4.588  15.818  0.00  0.00    +0.000 A 
ATOM     17  C   UNL     1       7.157   5.594  16.234  0.00  0.00    +0.000 A 
ATOM     18  C   UNL     1       6.734   6.596  17.107  0.00  0.00    +0.000 A 
ATOM     19  C   UNL     1       7.670   7.650  17.625  0.00  0.00    +0.000 C 
ATOM     20  C   UNL     1       5.402   6.584  17.527  0.00  0.00    +0.000 A 
ENDBRANCH   3  14
BRANCH   1  22
ATOM     21  N   UNL     1       4.186   2.740  20.371  0.00  0.00    +0.000 N 
ATOM     22  C   UNL     1       2.935   3.253  20.095  0.00  0.00    +0.000 C 
ATOM     23  O   UNL     1       1.973   2.529  20.402  0.00  0.00    +0.000 OA
ATOM     24  H   UNL     1       5.017   3.236  20.099  0.00  0.00    +0.000 HD
BRANCH  21  25
ATOM     25  C   UNL     1       4.311   1.525  21.241  0.00  0.00    +0.000 C 
BRANCH  25  26
ATOM     26  C   UNL     1       5.550   0.621  21.053  0.00  0.00    +0.000 C 
BRANCH  26  28
ATOM     27  C   UNL     1       6.825  -0.865  22.386  0.00  0.00    +0.000 C 
ATOM     28  O   UNL     1       6.220   0.424  22.299  0.00  0.00    +0.000 OA
ENDBRANCH  26  28
ENDBRANCH  25  26
ENDBRANCH  21  25
ENDBRANCH   1  22
BRANCH   2  29
ATOM     29  N   UNL     1       1.169   4.220  17.562  0.00  0.00    +0.000 N 
ATOM     30  H   UNL     1       0.410   4.364  18.232  0.00  0.00    +0.000 HD
ATOM     31  H   UNL     1       0.928   4.845  16.781  0.00  0.00    +0.000 HD
ENDBRANCH   2  29
TORSDOF 6
ENDMDL
MODEL 5
REMARK VINA RESULT:      -8.1      3.364      6.724
REMARK  Name = 
REMARK  8 active torsions:
REMARK  status: ('A' for Active; 'I' for Inactive)
REMARK    1  A    between atoms: C_1  and  O_2
REMARK    2  A    between atoms: O_2  and  C_3
REMARK    3  A    between atoms: C_3  and  C_4
REMARK    4  A    between atoms: C_4  and  N_5
REMARK    5  A    between atoms: C_6  and  C_8
REMARK    6  A    between atoms: C_9  and  N_10
REMARK    7  A    between atoms: N_11  and  C_12
REMARK    8  A    between atoms: C_16  and  C_17
REMARK                            x       y       z     vdW  Elec       q    Type
REMARK                         _______ _______ _______ _____ _____    ______ ____
ROOT
ATOM      1  C   UNL     1       4.470   5.830  17.167  0.00  0.00    +0.000 A 
ATOM      2  C   UNL     1       4.815   5.410  18.477  0.00  0.00    +0.000 A 
ATOM      3  N   UNL     1       3.536   5.281  18.997  0.00  0.00    +0.000 N 
ATOM      4  C   UNL     1       3.073   6.546  18.826  0.00  0.00    +0.000 A 
ATOM      5  N   UNL     1       2.279   7.158  19.708  0.00  0.00    +0.000 NA
ATOM      6  C   UNL     1       1.927   8.341  19.349  0.00  0.00    +0.000 A 
ATOM      7  C   UNL     1       1.184   8.992  20.323  0.00  0.00    +0.000 A 
ATOM      8  C   UNL     1       0.725  10.277  20.132  0.00  0.00    +0.000 A 
ATOM      9  C   UNL     1       1.018  10.878  18.920  0.00  0.00    +0.000 A 
ATOM     10  C   UNL     1       1.769  10.194  17.921  0.00  0.00    +0.000 A 
ATOM     11  C   UNL     1       2.277   8.884  18.071  0.00  0.00    +0.000 A 
ATOM     12  N   UNL     1       3.066   8.177  17.117  0.00  0.00    +0.000 NA
ATOM     13  C   UNL     1       3.550   6.955  17.563  0.00  0.00    +0.000 A 
ENDROOT
BRANCH   3  14
ATOM     14  C   UNL     1       2.720   4.142  19.195  0.00  0.00    +0.000 A 
ATOM     15  C   UNL     1       2.099   3.526  18.122  0.00  0.00    +0.000 A 
ATOM     16  C   UNL     1       1.241   2.452  18.367  0.00  0.00    +0.000 A 
ATOM     17  C   UNL     1       0.976   2.023  19.677  0.00  0.00    +0.000 A 
ATOM     18  C   UNL     1       1.572   2.655  20.767  0.00  0.00    +0.000 A 
ATOM     19  C   UNL     1       1.261   2.265  22.183  0.00  0.00    +0.000 C 
ATOM     20  C   UNL     1       2.462   3.701  20.515  0.00  0.00    +0.000 A 
ENDBRANCH   3  14
BRANCH   1  22
ATOM     21  N   UNL     1       6.137   5.668  15.241  0.00  0.00    +0.000 N 
ATOM     22  C   UNL     1       5.268   5.096  16.147  0.00  0.00    +0.000 C 
ATOM     23  O   UNL     1       5.169   3.859  16.096  0.00  0.00    +0.000 OA
ATOM     24  H   UNL     1       6.230   6.667  15.176  0.00  0.00    +0.000 HD
BRANCH  21  25
ATOM     25  C   UNL     1       7.084   4.795  14.473  0.00  0.00    +0.000 C 
BRANCH  25  26
ATOM     26  C   UNL     1       6.752   4.485  12.995  0.00  0.00    +0.000 C 
BRANCH  26  28
ATOM     27  C   UNL     1       4.978   3.335  11.928  0.00  0.00    +0.000 C 
ATOM     28  O   UNL     1       6.027   3.258  12.891  0.00  0.00    +0.000 OA
ENDBRANCH  26  28
ENDBRANCH  25  26
ENDBRANCH  21  25
ENDBRANCH   1  22
BRANCH   2  29
ATOM     29  N   UNL     1       5.843   5.996  19.202  0.00  0.00    +0.000 N 
ATOM     30  H   UNL     1       6.751   5.946  18.734  0.00  0.00    +0.000 HD
ATOM     31  H   UNL     1       5.706   7.003  19.362  0.00  0.00    +0.000 HD
ENDBRANCH   2  29
TORSDOF 6
ENDMDL
MODEL 6
REMARK VINA RESULT:      -7.9      0.599      1.379
REMARK  Name = 
REMARK  8 active torsions:
REMARK  status: ('A' for Active; 'I' for Inactive)
REMARK    1  A    between atoms: C_1  and  O_2
REMARK    2  A    between atoms: O_2  and  C_3
REMARK    3  A    between atoms: C_3  and  C_4
REMARK    4  A    between atoms: C_4  and  N_5
REMARK    5  A    between atoms: C_6  and  C_8
REMARK    6  A    between atoms: C_9  and  N_10
REMARK    7  A    between atoms: N_11  and  C_12
REMARK    8  A    between atoms: C_16  and  C_17
REMARK                            x       y       z     vdW  Elec       q    Type
REMARK                         _______ _______ _______ _____ _____    ______ ____
ROOT
ATOM      1  C   UNL     1       6.565   6.339  17.477  0.00  0.00    +0.000 A 
ATOM      2  C   UNL     1       7.257   5.121  17.260  0.00  0.00    +0.000 A 
ATOM      3  N   UNL     1       6.367   4.530  16.377  0.00  0.00    +0.000 N 
ATOM      4  C   UNL     1       5.243   4.506  17.139  0.00  0.00    +0.000 A 
ATOM      5  N   UNL     1       4.367   3.499  17.117  0.00  0.00    +0.000 NA
ATOM      6  C   UNL     1       3.356   3.681  17.891  0.00  0.00    +0.000 A 
ATOM      7  C   UNL     1       2.510   2.581  17.925  0.00  0.00    +0.000 A 
ATOM      8  C   UNL     1       1.377   2.577  18.707  0.00  0.00    +0.000 A 
ATOM      9  C   UNL     1       1.107   3.721  19.437  0.00  0.00    +0.000 A 
ATOM     10  C   UNL     1       1.975   4.850  19.382  0.00  0.00    +0.000 A 
ATOM     11  C   UNL     1       3.158   4.903  18.611  0.00  0.00    +0.000 A 
ATOM     12  N   UNL     1       4.076   5.992  18.557  0.00  0.00    +0.000 NA
ATOM     13  C   UNL     1       5.227   5.739  17.824  0.00  0.00    +0.000 A 
ENDROOT
BRANCH   3  14
ATOM     14  C   UNL     1       6.387   4.418  14.966  0.00  0.00    +0.000 A 
ATOM     15  C   UNL     1       5.639   3.445  14.326  0.00  0.00    +0.000 A 
ATOM     16  C   UNL     1       5.747   3.319  12.939  0.00  0.00    +0.000 A 
ATOM     17  C   UNL     1       6.623   4.131  12.205  0.00  0.00    +0.000 A 
ATOM     18  C   UNL     1       7.404   5.095  12.842  0.00  0.00    +0.000 A 
ATOM     19  C   UNL     1       8.400   5.935  12.097  0.00  0.00    +0.000 C 
ATOM     20  C   UNL     1       7.262   5.247  14.223  0.00  0.00    +0.000 A 
ENDBRANCH   3  14
BRANCH   1  22
ATOM     21  N   UNL     1       7.482   8.592  18.251  0.00  0.00    +0.000 N 
ATOM     22  C   UNL     1       7.496   7.498  17.410  0.00  0.00    +0.000 C 
ATOM     23  O   UNL     1       8.380   7.498  16.537  0.00  0.00    +0.000 OA
ATOM     24  H   UNL     1       6.762   8.698  18.946  0.00  0.00    +0.000 HD
BRANCH  21  25
ATOM     25  C   UNL     1       8.646   9.536  18.255  0.00  0.00    +0.000 C 
BRANCH  25  26
ATOM     26  C   UNL     1       9.054  10.183  19.599  0.00  0.00    +0.000 C 
BRANCH  26  28
ATOM     27  C   UNL     1      10.925  11.633  19.553  0.00  0.00    +0.000 C 
ATOM     28  O   UNL     1       9.513  11.520  19.393  0.00  0.00    +0.000 OA
ENDBRANCH  26  28
ENDBRANCH  25  26
ENDBRANCH  21  25
ENDBRANCH   1  22
BRANCH   2  29
ATOM     29  N   UNL     1       7.847   4.405  18.291  0.00  0.00    +0.000 N 
ATOM     30  H   UNL     1       8.768   4.030  18.052  0.00  0.00    +0.000 HD
ATOM     31  H   UNL     1       8.025   4.971  19.132  0.00  0.00    +0.000 HD
ENDBRANCH   2  29
TORSDOF 6
ENDMDL
MODEL 7
REMARK VINA RESULT:      -7.7      2.910      6.298
REMARK  Name = 
REMARK  8 active torsions:
REMARK  status: ('A' for Active; 'I' for Inactive)
REMARK    1  A    between atoms: C_1  and  O_2
REMARK    2  A    between atoms: O_2  and  C_3
REMARK    3  A    between atoms: C_3  and  C_4
REMARK    4  A    between atoms: C_4  and  N_5
REMARK    5  A    between atoms: C_6  and  C_8
REMARK    6  A    between atoms: C_9  and  N_10
REMARK    7  A    between atoms: N_11  and  C_12
REMARK    8  A    between atoms: C_16  and  C_17
REMARK                            x       y       z     vdW  Elec       q    Type
REMARK                         _______ _______ _______ _____ _____    ______ ____
ROOT
ATOM      1  C   UNL     1       5.175   5.827  16.725  0.00  0.00    +0.000 A 
ATOM      2  C   UNL     1       5.637   5.388  17.992  0.00  0.00    +0.000 A 
ATOM      3  N   UNL     1       4.418   5.026  18.544  0.00  0.00    +0.000 N 
ATOM      4  C   UNL     1       3.755   6.209  18.473  0.00  0.00    +0.000 A 
ATOM      5  N   UNL     1       2.914   6.632  19.420  0.00  0.00    +0.000 NA
ATOM      6  C   UNL     1       2.366   7.765  19.152  0.00  0.00    +0.000 A 
ATOM      7  C   UNL     1       1.573   8.229  20.192  0.00  0.00    +0.000 A 
ATOM      8  C   UNL     1       0.911   9.433  20.101  0.00  0.00    +0.000 A 
ATOM      9  C   UNL     1       1.054  10.146  18.924  0.00  0.00    +0.000 A 
ATOM     10  C   UNL     1       1.859   9.652  17.857  0.00  0.00    +0.000 A 
ATOM     11  C   UNL     1       2.572   8.433  17.902  0.00  0.00    +0.000 A 
ATOM     12  N   UNL     1       3.420   7.919  16.878  0.00  0.00    +0.000 NA
ATOM     13  C   UNL     1       4.108   6.764  17.226  0.00  0.00    +0.000 A 
ENDROOT
BRANCH   3  14
ATOM     14  C   UNL     1       3.799   3.762  18.692  0.00  0.00    +0.000 A 
ATOM     15  C   UNL     1       4.547   2.600  18.623  0.00  0.00    +0.000 A 
ATOM     16  C   UNL     1       3.888   1.371  18.697  0.00  0.00    +0.000 A 
ATOM     17  C   UNL     1       2.491   1.304  18.799  0.00  0.00    +0.000 A 
ATOM     18  C   UNL     1       1.724   2.468  18.839  0.00  0.00    +0.000 A 
ATOM     19  C   UNL     1       0.224   2.434  18.881  0.00  0.00    +0.000 C 
ATOM     20  C   UNL     1       2.389   3.695  18.808  0.00  0.00    +0.000 A 
ENDBRANCH   3  14
BRANCH   1  22
ATOM     21  N   UNL     1       5.643   4.378  14.676  0.00  0.00    +0.000 N 
ATOM     22  C   UNL     1       6.034   5.292  15.633  0.00  0.00    +0.000 C 
ATOM     23  O   UNL     1       7.205   5.698  15.548  0.00  0.00    +0.000 OA
ATOM     24  H   UNL     1       4.731   3.955  14.710  0.00  0.00    +0.000 HD
BRANCH  21  25
ATOM     25  C   UNL     1       6.511   4.148  13.476  0.00  0.00    +0.000 C 
BRANCH  25  26
ATOM     26  C   UNL     1       5.927   3.329  12.302  0.00  0.00    +0.000 C 
BRANCH  26  28
ATOM     27  C   UNL     1       6.613   1.384  11.137  0.00  0.00    +0.000 C 
ATOM     28  O   UNL     1       6.974   2.697  11.562  0.00  0.00    +0.000 OA
ENDBRANCH  26  28
ENDBRANCH  25  26
ENDBRANCH  21  25
ENDBRANCH   1  22
BRANCH   2  29
ATOM     29  N   UNL     1       6.591   6.084  18.721  0.00  0.00    +0.000 N 
ATOM     30  H   UNL     1       6.374   6.147  19.719  0.00  0.00    +0.000 HD
ATOM     31  H   UNL     1       7.521   5.644  18.700  0.00  0.00    +0.000 HD
ENDBRANCH   2  29
TORSDOF 6
ENDMDL
MODEL 8
REMARK VINA RESULT:      -7.7      0.923      1.002
REMARK  Name = 
REMARK  8 active torsions:
REMARK  status: ('A' for Active; 'I' for Inactive)
REMARK    1  A    between atoms: C_1  and  O_2
REMARK    2  A    between atoms: O_2  and  C_3
REMARK    3  A    between atoms: C_3  and  C_4
REMARK    4  A    between atoms: C_4  and  N_5
REMARK    5  A    between atoms: C_6  and  C_8
REMARK    6  A    between atoms: C_9  and  N_10
REMARK    7  A    between atoms: N_11  and  C_12
REMARK    8  A    between atoms: C_16  and  C_17
REMARK                            x       y       z     vdW  Elec       q    Type
REMARK                         _______ _______ _______ _____ _____    ______ ____
ROOT
ATOM      1  C   UNL     1       6.762   6.248  17.834  0.00  0.00    +0.000 A 
ATOM      2  C   UNL     1       7.465   5.042  17.584  0.00  0.00    +0.000 A 
ATOM      3  N   UNL     1       6.678   4.554  16.552  0.00  0.00    +0.000 N 
ATOM      4  C   UNL     1       5.474   4.481  17.175  0.00  0.00    +0.000 A 
ATOM      5  N   UNL     1       4.598   3.498  16.956  0.00  0.00    +0.000 NA
ATOM      6  C   UNL     1       3.505   3.626  17.622  0.00  0.00    +0.000 A 
ATOM      7  C   UNL     1       2.652   2.544  17.454  0.00  0.00    +0.000 A 
ATOM      8  C   UNL     1       1.435   2.488  18.097  0.00  0.00    +0.000 A 
ATOM      9  C   UNL     1       1.093   3.564  18.897  0.00  0.00    +0.000 A 
ATOM     10  C   UNL     1       1.971   4.676  19.051  0.00  0.00    +0.000 A 
ATOM     11  C   UNL     1       3.235   4.778  18.428  0.00  0.00    +0.000 A 
ATOM     12  N   UNL     1       4.162   5.850  18.584  0.00  0.00    +0.000 NA
ATOM     13  C   UNL     1       5.389   5.644  17.968  0.00  0.00    +0.000 A 
ENDROOT
BRANCH   3  14
ATOM     14  C   UNL     1       6.861   4.575  15.148  0.00  0.00    +0.000 A 
ATOM     15  C   UNL     1       7.807   5.406  14.574  0.00  0.00    +0.000 A 
ATOM     16  C   UNL     1       7.903   5.454  13.182  0.00  0.00    +0.000 A 
ATOM     17  C   UNL     1       7.037   4.706  12.371  0.00  0.00    +0.000 A 
ATOM     18  C   UNL     1       6.061   3.887  12.937  0.00  0.00    +0.000 A 
ATOM     19  C   UNL     1       5.075   3.125  12.100  0.00  0.00    +0.000 C 
ATOM     20  C   UNL     1       5.995   3.810  14.330  0.00  0.00    +0.000 A 
ENDBRANCH   3  14
BRANCH   1  22
ATOM     21  N   UNL     1       7.597   8.613  17.356  0.00  0.00    +0.000 N 
ATOM     22  C   UNL     1       7.705   7.390  17.986  0.00  0.00    +0.000 C 
ATOM     23  O   UNL     1       8.676   7.259  18.751  0.00  0.00    +0.000 OA
ATOM     24  H   UNL     1       6.875   8.779  16.676  0.00  0.00    +0.000 HD
BRANCH  21  25
ATOM     25  C   UNL     1       8.445   9.760  17.817  0.00  0.00    +0.000 C 
BRANCH  25  26
ATOM     26  C   UNL     1       7.972  11.193  17.486  0.00  0.00    +0.000 C 
BRANCH  26  28
ATOM     27  C   UNL     1       8.411  13.492  17.854  0.00  0.00    +0.000 C 
ATOM     28  O   UNL     1       8.713  12.153  18.242  0.00  0.00    +0.000 OA
ENDBRANCH  26  28
ENDBRANCH  25  26
ENDBRANCH  21  25
ENDBRANCH   1  22
BRANCH   2  29
ATOM     29  N   UNL     1       7.925   4.221  18.603  0.00  0.00    +0.000 N 
ATOM     30  H   UNL     1       7.730   3.229  18.445  0.00  0.00    +0.000 HD
ATOM     31  H   UNL     1       8.947   4.253  18.722  0.00  0.00    +0.000 HD
ENDBRANCH   2  29
TORSDOF 6
ENDMDL
MODEL 9
REMARK VINA RESULT:      -7.6      3.112      6.303
REMARK  Name = 
REMARK  8 active torsions:
REMARK  status: ('A' for Active; 'I' for Inactive)
REMARK    1  A    between atoms: C_1  and  O_2
REMARK    2  A    between atoms: O_2  and  C_3
REMARK    3  A    between atoms: C_3  and  C_4
REMARK    4  A    between atoms: C_4  and  N_5
REMARK    5  A    between atoms: C_6  and  C_8
REMARK    6  A    between atoms: C_9  and  N_10
REMARK    7  A    between atoms: N_11  and  C_12
REMARK    8  A    between atoms: C_16  and  C_17
REMARK                            x       y       z     vdW  Elec       q    Type
REMARK                         _______ _______ _______ _____ _____    ______ ____
ROOT
ATOM      1  C   UNL     1       4.178   6.472  17.010  0.00  0.00    +0.000 A 
ATOM      2  C   UNL     1       4.764   5.937  18.185  0.00  0.00    +0.000 A 
ATOM      3  N   UNL     1       3.603   5.576  18.851  0.00  0.00    +0.000 N 
ATOM      4  C   UNL     1       2.982   6.781  18.931  0.00  0.00    +0.000 A 
ATOM      5  N   UNL     1       2.270   7.166  19.993  0.00  0.00    +0.000 NA
ATOM      6  C   UNL     1       1.738   8.330  19.861  0.00  0.00    +0.000 A 
ATOM      7  C   UNL     1       1.087   8.748  21.013  0.00  0.00    +0.000 A 
ATOM      8  C   UNL     1       0.465   9.976  21.075  0.00  0.00    +0.000 A 
ATOM      9  C   UNL     1       0.499  10.760  19.935  0.00  0.00    +0.000 A 
ATOM     10  C   UNL     1       1.159  10.313  18.753  0.00  0.00    +0.000 A 
ATOM     11  C   UNL     1       1.826   9.072  18.640  0.00  0.00    +0.000 A 
ATOM     12  N   UNL     1       2.532   8.602  17.495  0.00  0.00    +0.000 NA
ATOM     13  C   UNL     1       3.210   7.406  17.688  0.00  0.00    +0.000 A 
ENDROOT
BRANCH   3  14
ATOM     14  C   UNL     1       2.958   4.324  18.991  0.00  0.00    +0.000 A 
ATOM     15  C   UNL     1       2.626   3.575  17.876  0.00  0.00    +0.000 A 
ATOM     16  C   UNL     1       1.922   2.382  18.053  0.00  0.00    +0.000 A 
ATOM     17  C   UNL     1       1.519   1.962  19.330  0.00  0.00    +0.000 A 
ATOM     18  C   UNL     1       1.823   2.724  20.458  0.00  0.00    +0.000 A 
ATOM     19  C   UNL     1       1.351   2.339  21.830  0.00  0.00    +0.000 C 
ATOM     20  C   UNL     1       2.563   3.894  20.281  0.00  0.00    +0.000 A 
ENDBRANCH   3  14
BRANCH   1  22
ATOM     21  N   UNL     1       5.216   4.671  15.527  0.00  0.00    +0.000 N 
ATOM     22  C   UNL     1       4.886   5.984  15.795  0.00  0.00    +0.000 C 
ATOM     23  O   UNL     1       5.207   6.811  14.925  0.00  0.00    +0.000 OA
ATOM     24  H   UNL     1       5.045   3.949  16.206  0.00  0.00    +0.000 HD
BRANCH  21  25
ATOM     25  C   UNL     1       5.664   4.288  14.149  0.00  0.00    +0.000 C 
BRANCH  25  26
ATOM     26  C   UNL     1       7.182   4.184  13.880  0.00  0.00    +0.000 C 
BRANCH  26  28
ATOM     27  C   UNL     1       8.476   5.810  12.744  0.00  0.00    +0.000 C 
ATOM     28  O   UNL     1       7.793   5.474  13.950  0.00  0.00    +0.000 OA
ENDBRANCH  26  28
ENDBRANCH  25  26
ENDBRANCH  21  25
ENDBRANCH   1  22
BRANCH   2  29
ATOM     29  N   UNL     1       5.820   6.554  18.840  0.00  0.00    +0.000 N 
ATOM     30  H   UNL     1       5.929   6.253  19.811  0.00  0.00    +0.000 HD
ATOM     31  H   UNL     1       6.736   6.352  18.417  0.00  0.00    +0.000 HD
ENDBRANCH   2  29
TORSDOF 6
ENDMDL
