MODEL 1
REMARK VINA RESULT:      -6.5      0.000      0.000
REMARK  Name = 
REMARK  10 active torsions:
REMARK  status: ('A' for Active; 'I' for Inactive)
REMARK    1  A    between atoms: C_1  and  C_2
REMARK    2  A    between atoms: C_2  and  C_3
REMARK    3  A    between atoms: C_3  and  C_4
REMARK    4  A    between atoms: C_4  and  C_5
REMARK    5  A    between atoms: C_5  and  N_6
REMARK    6  A    between atoms: C_10  and  N_11
REMARK    7  A    between atoms: C_12  and  C_13
REMARK    8  A    between atoms: C_13  and  O_15
REMARK    9  A    between atoms: O_15  and  C_16
REMARK   10  A    between atoms: C_16  and  C_17
REMARK                            x       y       z     vdW  Elec       q    Type
REMARK                         _______ _______ _______ _____ _____    ______ ____
ROOT
ATOM      1  N   UNL     1       2.873   5.095  20.257  0.00  0.00    +0.000 N 
ATOM      2  N   UNL     1       1.990   6.065  19.918  0.00  0.00    +0.000 NA
ATOM      3  C   UNL     1       2.564   6.650  18.866  0.00  0.00    +0.000 A 
ATOM      4  C   UNL     1       3.830   6.109  18.553  0.00  0.00    +0.000 A 
ATOM      5  C   UNL     1       4.829   6.343  17.590  0.00  0.00    +0.000 A 
ATOM      6  C   UNL     1       5.967   5.511  17.664  0.00  0.00    +0.000 A 
ATOM      7  C   UNL     1       6.023   4.522  18.646  0.00  0.00    +0.000 A 
ATOM      8  N   UNL     1       5.065   4.261  19.582  0.00  0.00    +0.000 NA
ATOM      9  C   UNL     1       4.009   5.091  19.482  0.00  0.00    +0.000 A 
ENDROOT
BRANCH   5  10
ATOM     10  N   UNL     1       4.632   7.256  16.548  0.00  0.00    +0.000 N 
ATOM     11  H   UNL     1       3.682   7.426  16.238  0.00  0.00    +0.000 HD
ATOM     12  H   UNL     1       5.228   8.087  16.586  0.00  0.00    +0.000 HD
ENDBRANCH   5  10
BRANCH   6  13
ATOM     13  C   UNL     1       7.086   5.715  16.708  0.00  0.00    +0.000 C 
ATOM     14  O   UNL     1       7.673   6.775  16.560  0.00  0.00    +0.000 OA
BRANCH  13  15
ATOM     15  O   UNL     1       7.317   4.589  15.980  0.00  0.00    +0.000 OA
BRANCH  15  16
ATOM     16  C   UNL     1       7.055   4.725  14.574  0.00  0.00    +0.000 C 
ATOM     17  C   UNL     1       5.624   4.271  14.352  0.00  0.00    +0.000 C 
ENDBRANCH  15  16
ENDBRANCH  13  15
ENDBRANCH   6  13
BRANCH   1  18
ATOM     18  C   UNL     1       2.539   4.172  21.323  0.00  0.00    +0.000 C 
BRANCH  18  19
ATOM     19  C   UNL     1       1.348   3.266  20.989  0.00  0.00    +0.000 C 
BRANCH  19  20
ATOM     20  C   UNL     1       1.688   2.209  19.935  0.00  0.00    +0.000 C 
BRANCH  20  22
ATOM     21  C   UNL     1       2.386   2.570  17.546  0.00  0.00    +0.000 C 
ATOM     22  C   UNL     1       1.237   2.639  18.541  0.00  0.00    +0.000 C 
ENDBRANCH  20  22
ENDBRANCH  19  20
ENDBRANCH  18  19
ENDBRANCH   1  18
TORSDOF 8
ENDMDL
MODEL 2
REMARK VINA RESULT:      -6.4      1.073      1.309
REMARK  Name = 
REMARK  10 active torsions:
REMARK  status: ('A' for Active; 'I' for Inactive)
REMARK    1  A    between atoms: C_1  and  C_2
REMARK    2  A    between atoms: C_2  and  C_3
REMARK    3  A    between atoms: C_3  and  C_4
REMARK    4  A    between atoms: C_4  and  C_5
REMARK    5  A    between atoms: C_5  and  N_6
REMARK    6  A    between atoms: C_10  and  N_11
REMARK    7  A    between atoms: C_12  and  C_13
REMARK    8  A    between atoms: C_13  and  O_15
REMARK    9  A    between atoms: O_15  and  C_16
REMARK   10  A    between atoms: C_16  and  C_17
REMARK                            x       y       z     vdW  Elec       q    Type
REMARK                         _______ _______ _______ _____ _____    ______ ____
ROOT
ATOM      1  N   UNL     1       2.822   6.000  19.674  0.00  0.00    +0.000 N 
ATOM      2  N   UNL     1       2.328   7.200  19.287  0.00  0.00    +0.000 NA
ATOM      3  C   UNL     1       2.997   7.460  18.162  0.00  0.00    +0.000 A 
ATOM      4  C   UNL     1       3.956   6.471  17.846  0.00  0.00    +0.000 A 
ATOM      5  C   UNL     1       4.898   6.256  16.824  0.00  0.00    +0.000 A 
ATOM      6  C   UNL     1       5.660   5.072  16.925  0.00  0.00    +0.000 A 
ATOM      7  C   UNL     1       5.425   4.201  17.990  0.00  0.00    +0.000 A 
ATOM      8  N   UNL     1       4.508   4.375  18.986  0.00  0.00    +0.000 NA
ATOM      9  C   UNL     1       3.820   5.526  18.855  0.00  0.00    +0.000 A 
ENDROOT
BRANCH   5  10
ATOM     10  N   UNL     1       4.971   7.104  15.713  0.00  0.00    +0.000 N 
ATOM     11  H   UNL     1       5.078   8.098  15.881  0.00  0.00    +0.000 HD
ATOM     12  H   UNL     1       5.514   6.738  14.927  0.00  0.00    +0.000 HD
ENDBRANCH   5  10
BRANCH   6  13
ATOM     13  C   UNL     1       6.705   4.785  15.908  0.00  0.00    +0.000 C 
ATOM     14  O   UNL     1       7.875   4.564  16.175  0.00  0.00    +0.000 OA
BRANCH  13  15
ATOM     15  O   UNL     1       6.196   4.869  14.650  0.00  0.00    +0.000 OA
BRANCH  15  16
ATOM     16  C   UNL     1       6.125   3.615  13.951  0.00  0.00    +0.000 C 
ATOM     17  C   UNL     1       6.636   3.870  12.545  0.00  0.00    +0.000 C 
ENDBRANCH  15  16
ENDBRANCH  13  15
ENDBRANCH   6  13
BRANCH   1  18
ATOM     18  C   UNL     1       2.255   5.340  20.833  0.00  0.00    +0.000 C 
BRANCH  18  19
ATOM     19  C   UNL     1       1.078   4.419  20.489  0.00  0.00    +0.000 C 
BRANCH  19  20
ATOM     20  C   UNL     1       1.371   2.948  20.796  0.00  0.00    +0.000 C 
BRANCH  20  22
ATOM     21  C   UNL     1       1.234   2.938  18.284  0.00  0.00    +0.000 C 
ATOM     22  C   UNL     1       1.639   2.150  19.521  0.00  0.00    +0.000 C 
ENDBRANCH  20  22
ENDBRANCH  19  20
ENDBRANCH  18  19
ENDBRANCH   1  18
TORSDOF 8
ENDMDL
MODEL 3
REMARK VINA RESULT:      -6.3      1.955      3.037
REMARK  Name = 
REMARK  10 active torsions:
REMARK  status: ('A' for Active; 'I' for Inactive)
REMARK    1  A    between atoms: C_1  and  C_2
REMARK    2  A    between atoms: C_2  and  C_3
REMARK    3  A    between atoms: C_3  and  C_4
REMARK    4  A    between atoms: C_4  and  C_5
REMARK    5  A    between atoms: C_5  and  N_6
REMARK    6  A    between atoms: C_10  and  N_11
REMARK    7  A    between atoms: C_12  and  C_13
REMARK    8  A    between atoms: C_13  and  O_15
REMARK    9  A    between atoms: O_15  and  C_16
REMARK   10  A    between atoms: C_16  and  C_17
REMARK                            x       y       z     vdW  Elec       q    Type
REMARK                         _______ _______ _______ _____ _____    ______ ____
ROOT
ATOM      1  N   UNL     1       3.513   2.857  18.783  0.00  0.00    +0.000 N 
ATOM      2  N   UNL     1       2.642   2.787  17.746  0.00  0.00    +0.000 NA
ATOM      3  C   UNL     1       3.180   3.604  16.838  0.00  0.00    +0.000 A 
ATOM      4  C   UNL     1       4.355   4.242  17.293  0.00  0.00    +0.000 A 
ATOM      5  C   UNL     1       5.280   5.165  16.771  0.00  0.00    +0.000 A 
ATOM      6  C   UNL     1       6.348   5.520  17.624  0.00  0.00    +0.000 A 
ATOM      7  C   UNL     1       6.430   4.935  18.888  0.00  0.00    +0.000 A 
ATOM      8  N   UNL     1       5.559   4.027  19.415  0.00  0.00    +0.000 NA
ATOM      9  C   UNL     1       4.550   3.735  18.572  0.00  0.00    +0.000 A 
ENDROOT
BRANCH   5  10
ATOM     10  N   UNL     1       5.207   5.592  15.440  0.00  0.00    +0.000 N 
ATOM     11  H   UNL     1       6.014   5.438  14.846  0.00  0.00    +0.000 HD
ATOM     12  H   UNL     1       4.302   5.437  14.988  0.00  0.00    +0.000 HD
ENDBRANCH   5  10
BRANCH   6  13
ATOM     13  C   UNL     1       7.349   6.517  17.166  0.00  0.00    +0.000 C 
ATOM     14  O   UNL     1       7.876   6.499  16.065  0.00  0.00    +0.000 OA
BRANCH  13  15
ATOM     15  O   UNL     1       7.645   7.400  18.157  0.00  0.00    +0.000 OA
BRANCH  15  16
ATOM     16  C   UNL     1       7.807   8.758  17.715  0.00  0.00    +0.000 C 
ATOM     17  C   UNL     1       8.784   9.414  18.673  0.00  0.00    +0.000 C 
ENDBRANCH  15  16
ENDBRANCH  13  15
ENDBRANCH   6  13
BRANCH   1  18
ATOM     18  C   UNL     1       3.304   2.012  19.942  0.00  0.00    +0.000 C 
BRANCH  18  19
ATOM     19  C   UNL     1       2.839   2.787  21.180  0.00  0.00    +0.000 C 
BRANCH  19  20
ATOM     20  C   UNL     1       1.318   2.954  21.234  0.00  0.00    +0.000 C 
BRANCH  20  22
ATOM     21  C   UNL     1       1.776   5.351  20.626  0.00  0.00    +0.000 C 
ATOM     22  C   UNL     1       0.855   4.159  20.417  0.00  0.00    +0.000 C 
ENDBRANCH  20  22
ENDBRANCH  19  20
ENDBRANCH  18  19
ENDBRANCH   1  18
TORSDOF 8
ENDMDL
MODEL 4
REMARK VINA RESULT:      -6.3      1.077      1.931
REMARK  Name = 
REMARK  10 active torsions:
REMARK  status: ('A' for Active; 'I' for Inactive)
REMARK    1  A    between atoms: C_1  and  C_2
REMARK    2  A    between atoms: C_2  and  C_3
REMARK    3  A    between atoms: C_3  and  C_4
REMARK    4  A    between atoms: C_4  and  C_5
REMARK    5  A    between atoms: C_5  and  N_6
REMARK    6  A    between atoms: C_10  and  N_11
REMARK    7  A    between atoms: C_12  and  C_13
REMARK    8  A    between atoms: C_13  and  O_15
REMARK    9  A    between atoms: O_15  and  C_16
REMARK   10  A    between atoms: C_16  and  C_17
REMARK                            x       y       z     vdW  Elec       q    Type
REMARK                         _______ _______ _______ _____ _____    ______ ____
ROOT
ATOM      1  N   UNL     1       2.709   5.364  20.047  0.00  0.00    +0.000 N 
ATOM      2  N   UNL     1       1.853   6.256  19.493  0.00  0.00    +0.000 NA
ATOM      3  C   UNL     1       2.514   6.690  18.419  0.00  0.00    +0.000 A 
ATOM      4  C   UNL     1       3.807   6.134  18.301  0.00  0.00    +0.000 A 
ATOM      5  C   UNL     1       4.885   6.242  17.403  0.00  0.00    +0.000 A 
ATOM      6  C   UNL     1       6.018   5.453  17.699  0.00  0.00    +0.000 A 
ATOM      7  C   UNL     1       5.993   4.621  18.819  0.00  0.00    +0.000 A 
ATOM      8  N   UNL     1       4.958   4.482  19.696  0.00  0.00    +0.000 NA
ATOM      9  C   UNL     1       3.909   5.267  19.383  0.00  0.00    +0.000 A 
ENDROOT
BRANCH   5  10
ATOM     10  N   UNL     1       4.776   6.988  16.224  0.00  0.00    +0.000 N 
ATOM     11  H   UNL     1       5.374   7.800  16.119  0.00  0.00    +0.000 HD
ATOM     12  H   UNL     1       4.647   6.433  15.374  0.00  0.00    +0.000 HD
ENDBRANCH   5  10
BRANCH   6  13
ATOM     13  C   UNL     1       7.216   5.536  16.824  0.00  0.00    +0.000 C 
ATOM     14  O   UNL     1       7.755   4.568  16.312  0.00  0.00    +0.000 OA
BRANCH  13  15
ATOM     15  O   UNL     1       7.662   6.817  16.729  0.00  0.00    +0.000 OA
BRANCH  15  16
ATOM     16  C   UNL     1       7.988   7.428  17.988  0.00  0.00    +0.000 C 
ATOM     17  C   UNL     1       8.000   8.927  17.755  0.00  0.00    +0.000 C 
ENDBRANCH  15  16
ENDBRANCH  13  15
ENDBRANCH   6  13
BRANCH   1  18
ATOM     18  C   UNL     1       2.287   4.602  21.206  0.00  0.00    +0.000 C 
BRANCH  18  19
ATOM     19  C   UNL     1       1.933   3.147  20.877  0.00  0.00    +0.000 C 
BRANCH  19  20
ATOM     20  C   UNL     1       0.815   3.032  19.838  0.00  0.00    +0.000 C 
BRANCH  20  22
ATOM     21  C   UNL     1       2.717   1.843  18.700  0.00  0.00    +0.000 C 
ATOM     22  C   UNL     1       1.324   2.428  18.530  0.00  0.00    +0.000 C 
ENDBRANCH  20  22
ENDBRANCH  19  20
ENDBRANCH  18  19
ENDBRANCH   1  18
TORSDOF 8
ENDMDL
MODEL 5
REMARK VINA RESULT:      -6.2      2.672      5.732
REMARK  Name = 
REMARK  10 active torsions:
REMARK  status: ('A' for Active; 'I' for Inactive)
REMARK    1  A    between atoms: C_1  and  C_2
REMARK    2  A    between atoms: C_2  and  C_3
REMARK    3  A    between atoms: C_3  and  C_4
REMARK    4  A    between atoms: C_4  and  C_5
REMARK    5  A    between atoms: C_5  and  N_6
REMARK    6  A    between atoms: C_10  and  N_11
REMARK    7  A    between atoms: C_12  and  C_13
REMARK    8  A    between atoms: C_13  and  O_15
REMARK    9  A    between atoms: O_15  and  C_16
REMARK   10  A    between atoms: C_16  and  C_17
REMARK                            x       y       z     vdW  Elec       q    Type
REMARK                         _______ _______ _______ _____ _____    ______ ____
ROOT
ATOM      1  N   UNL     1       5.965   5.403  16.243  0.00  0.00    +0.000 N 
ATOM      2  N   UNL     1       5.646   6.640  15.789  0.00  0.00    +0.000 NA
ATOM      3  C   UNL     1       4.690   7.039  16.630  0.00  0.00    +0.000 A 
ATOM      4  C   UNL     1       4.348   6.057  17.586  0.00  0.00    +0.000 A 
ATOM      5  C   UNL     1       3.443   5.951  18.658  0.00  0.00    +0.000 A 
ATOM      6  C   UNL     1       3.465   4.731  19.368  0.00  0.00    +0.000 A 
ATOM      7  C   UNL     1       4.371   3.741  18.988  0.00  0.00    +0.000 A 
ATOM      8  N   UNL     1       5.271   3.821  17.966  0.00  0.00    +0.000 NA
ATOM      9  C   UNL     1       5.199   4.995  17.309  0.00  0.00    +0.000 A 
ENDROOT
BRANCH   5  10
ATOM     10  N   UNL     1       2.669   7.044  19.065  0.00  0.00    +0.000 N 
ATOM     11  H   UNL     1       1.715   6.868  19.360  0.00  0.00    +0.000 HD
ATOM     12  H   UNL     1       3.170   7.743  19.621  0.00  0.00    +0.000 HD
ENDBRANCH   5  10
BRANCH   6  13
ATOM     13  C   UNL     1       2.515   4.521  20.491  0.00  0.00    +0.000 C 
ATOM     14  O   UNL     1       2.227   5.377  21.311  0.00  0.00    +0.000 OA
BRANCH  13  15
ATOM     15  O   UNL     1       2.068   3.236  20.516  0.00  0.00    +0.000 OA
BRANCH  15  16
ATOM     16  C   UNL     1       0.754   3.052  19.965  0.00  0.00    +0.000 C 
ATOM     17  C   UNL     1       0.925   2.247  18.690  0.00  0.00    +0.000 C 
ENDBRANCH  15  16
ENDBRANCH  13  15
ENDBRANCH   6  13
BRANCH   1  18
ATOM     18  C   UNL     1       7.056   4.680  15.621  0.00  0.00    +0.000 C 
BRANCH  18  19
ATOM     19  C   UNL     1       6.944   4.609  14.094  0.00  0.00    +0.000 C 
BRANCH  19  20
ATOM     20  C   UNL     1       5.749   3.772  13.628  0.00  0.00    +0.000 C 
BRANCH  20  22
ATOM     21  C   UNL     1       4.533   3.138  11.520  0.00  0.00    +0.000 C 
ATOM     22  C   UNL     1       5.893   3.353  12.166  0.00  0.00    +0.000 C 
ENDBRANCH  20  22
ENDBRANCH  19  20
ENDBRANCH  18  19
ENDBRANCH   1  18
TORSDOF 8
ENDMDL
MODEL 6
REMARK VINA RESULT:      -6.2      1.506      1.858
REMARK  Name = 
REMARK  10 active torsions:
REMARK  status: ('A' for Active; 'I' for Inactive)
REMARK    1  A    between atoms: C_1  and  C_2
REMARK    2  A    between atoms: C_2  and  C_3
REMARK    3  A    between atoms: C_3  and  C_4
REMARK    4  A    between atoms: C_4  and  C_5
REMARK    5  A    between atoms: C_5  and  N_6
REMARK    6  A    between atoms: C_10  and  N_11
REMARK    7  A    between atoms: C_12  and  C_13
REMARK    8  A    between atoms: C_13  and  O_15
REMARK    9  A    between atoms: O_15  and  C_16
REMARK   10  A    between atoms: C_16  and  C_17
REMARK                            x       y       z     vdW  Elec       q    Type
REMARK                         _______ _______ _______ _____ _____    ______ ____
ROOT
ATOM      1  N   UNL     1       2.885   6.046  19.240  0.00  0.00    +0.000 N 
ATOM      2  N   UNL     1       2.494   7.300  18.907  0.00  0.00    +0.000 NA
ATOM      3  C   UNL     1       3.174   7.547  17.787  0.00  0.00    +0.000 A 
ATOM      4  C   UNL     1       4.041   6.494  17.420  0.00  0.00    +0.000 A 
ATOM      5  C   UNL     1       4.953   6.240  16.379  0.00  0.00    +0.000 A 
ATOM      6  C   UNL     1       5.610   4.992  16.423  0.00  0.00    +0.000 A 
ATOM      7  C   UNL     1       5.309   4.101  17.454  0.00  0.00    +0.000 A 
ATOM      8  N   UNL     1       4.419   4.312  18.466  0.00  0.00    +0.000 NA
ATOM      9  C   UNL     1       3.832   5.522  18.391  0.00  0.00    +0.000 A 
ENDROOT
BRANCH   5  10
ATOM     10  N   UNL     1       5.090   7.125  15.303  0.00  0.00    +0.000 N 
ATOM     11  H   UNL     1       4.555   7.986  15.325  0.00  0.00    +0.000 HD
ATOM     12  H   UNL     1       6.042   7.217  14.940  0.00  0.00    +0.000 HD
ENDBRANCH   5  10
BRANCH   6  13
ATOM     13  C   UNL     1       6.618   4.658  15.383  0.00  0.00    +0.000 C 
ATOM     14  O   UNL     1       7.662   5.270  15.224  0.00  0.00    +0.000 OA
BRANCH  13  15
ATOM     15  O   UNL     1       6.188   3.633  14.599  0.00  0.00    +0.000 OA
BRANCH  15  16
ATOM     16  C   UNL     1       6.429   3.816  13.195  0.00  0.00    +0.000 C 
ATOM     17  C   UNL     1       5.123   3.507  12.485  0.00  0.00    +0.000 C 
ENDBRANCH  15  16
ENDBRANCH  13  15
ENDBRANCH   6  13
BRANCH   1  18
ATOM     18  C   UNL     1       2.272   5.389  20.377  0.00  0.00    +0.000 C 
BRANCH  18  19
ATOM     19  C   UNL     1       1.085   4.498  19.994  0.00  0.00    +0.000 C 
BRANCH  19  20
ATOM     20  C   UNL     1       1.151   3.114  20.646  0.00  0.00    +0.000 C 
BRANCH  20  22
ATOM     21  C   UNL     1       3.436   2.163  21.093  0.00  0.00    +0.000 C 
ATOM     22  C   UNL     1       2.305   3.017  21.643  0.00  0.00    +0.000 C 
ENDBRANCH  20  22
ENDBRANCH  19  20
ENDBRANCH  18  19
ENDBRANCH   1  18
TORSDOF 8
ENDMDL
MODEL 7
REMARK VINA RESULT:      -6.2      3.498      6.807
REMARK  Name = 
REMARK  10 active torsions:
REMARK  status: ('A' for Active; 'I' for Inactive)
REMARK    1  A    between atoms: C_1  and  C_2
REMARK    2  A    between atoms: C_2  and  C_3
REMARK    3  A    between atoms: C_3  and  C_4
REMARK    4  A    between atoms: C_4  and  C_5
REMARK    5  A    between atoms: C_5  and  N_6
REMARK    6  A    between atoms: C_10  and  N_11
REMARK    7  A    between atoms: C_12  and  C_13
REMARK    8  A    between atoms: C_13  and  O_15
REMARK    9  A    between atoms: O_15  and  C_16
REMARK   10  A    between atoms: C_16  and  C_17
REMARK                            x       y       z     vdW  Elec       q    Type
REMARK                         _______ _______ _______ _____ _____    ______ ____
ROOT
ATOM      1  N   UNL     1       6.792   6.510  17.389  0.00  0.00    +0.000 N 
ATOM      2  N   UNL     1       7.717   5.521  17.337  0.00  0.00    +0.000 NA
ATOM      3  C   UNL     1       6.982   4.409  17.399  0.00  0.00    +0.000 A 
ATOM      4  C   UNL     1       5.601   4.665  17.545  0.00  0.00    +0.000 A 
ATOM      5  C   UNL     1       4.429   3.895  17.661  0.00  0.00    +0.000 A 
ATOM      6  C   UNL     1       3.222   4.619  17.780  0.00  0.00    +0.000 A 
ATOM      7  C   UNL     1       3.262   6.013  17.756  0.00  0.00    +0.000 A 
ATOM      8  N   UNL     1       4.379   6.786  17.628  0.00  0.00    +0.000 NA
ATOM      9  C   UNL     1       5.504   6.051  17.536  0.00  0.00    +0.000 A 
ENDROOT
BRANCH   5  10
ATOM     10  N   UNL     1       4.460   2.502  17.530  0.00  0.00    +0.000 N 
ATOM     11  H   UNL     1       5.164   2.097  16.922  0.00  0.00    +0.000 HD
ATOM     12  H   UNL     1       4.288   1.984  18.395  0.00  0.00    +0.000 HD
ENDBRANCH   5  10
BRANCH   6  13
ATOM     13  C   UNL     1       1.941   3.884  17.945  0.00  0.00    +0.000 C 
ATOM     14  O   UNL     1       0.923   4.141  17.324  0.00  0.00    +0.000 OA
BRANCH  13  15
ATOM     15  O   UNL     1       2.042   2.943  18.921  0.00  0.00    +0.000 OA
BRANCH  15  16
ATOM     16  C   UNL     1       0.872   2.811  19.744  0.00  0.00    +0.000 C 
ATOM     17  C   UNL     1       1.309   3.090  21.171  0.00  0.00    +0.000 C 
ENDBRANCH  15  16
ENDBRANCH  13  15
ENDBRANCH   6  13
BRANCH   1  18
ATOM     18  C   UNL     1       7.219   7.888  17.249  0.00  0.00    +0.000 C 
BRANCH  18  19
ATOM     19  C   UNL     1       8.240   8.316  18.309  0.00  0.00    +0.000 C 
BRANCH  19  20
ATOM     20  C   UNL     1       8.504   9.824  18.300  0.00  0.00    +0.000 C 
BRANCH  20  22
ATOM     21  C   UNL     1       9.413  11.515  19.924  0.00  0.00    +0.000 C 
ATOM     22  C   UNL     1       9.671  10.196  19.213  0.00  0.00    +0.000 C 
ENDBRANCH  20  22
ENDBRANCH  19  20
ENDBRANCH  18  19
ENDBRANCH   1  18
TORSDOF 8
ENDMDL
MODEL 8
REMARK VINA RESULT:      -6.1      3.527      6.912
REMARK  Name = 
REMARK  10 active torsions:
REMARK  status: ('A' for Active; 'I' for Inactive)
REMARK    1  A    between atoms: C_1  and  C_2
REMARK    2  A    between atoms: C_2  and  C_3
REMARK    3  A    between atoms: C_3  and  C_4
REMARK    4  A    between atoms: C_4  and  C_5
REMARK    5  A    between atoms: C_5  and  N_6
REMARK    6  A    between atoms: C_10  and  N_11
REMARK    7  A    between atoms: C_12  and  C_13
REMARK    8  A    between atoms: C_13  and  O_15
REMARK    9  A    between atoms: O_15  and  C_16
REMARK   10  A    between atoms: C_16  and  C_17
REMARK                            x       y       z     vdW  Elec       q    Type
REMARK                         _______ _______ _______ _____ _____    ______ ____
ROOT
ATOM      1  N   UNL     1       7.251   6.904  18.191  0.00  0.00    +0.000 N 
ATOM      2  N   UNL     1       8.116   6.248  19.002  0.00  0.00    +0.000 NA
ATOM      3  C   UNL     1       7.461   5.125  19.304  0.00  0.00    +0.000 A 
ATOM      4  C   UNL     1       6.165   5.071  18.745  0.00  0.00    +0.000 A 
ATOM      5  C   UNL     1       5.091   4.162  18.749  0.00  0.00    +0.000 A 
ATOM      6  C   UNL     1       3.952   4.548  18.009  0.00  0.00    +0.000 A 
ATOM      7  C   UNL     1       3.967   5.762  17.323  0.00  0.00    +0.000 A 
ATOM      8  N   UNL     1       4.998   6.655  17.287  0.00  0.00    +0.000 NA
ATOM      9  C   UNL     1       6.053   6.252  18.021  0.00  0.00    +0.000 A 
ENDROOT
BRANCH   5  10
ATOM     10  N   UNL     1       5.210   2.900  19.342  0.00  0.00    +0.000 N 
ATOM     11  H   UNL     1       5.970   2.754  19.998  0.00  0.00    +0.000 HD
ATOM     12  H   UNL     1       4.324   2.462  19.604  0.00  0.00    +0.000 HD
ENDBRANCH   5  10
BRANCH   6  13
ATOM     13  C   UNL     1       2.758   3.664  17.991  0.00  0.00    +0.000 C 
ATOM     14  O   UNL     1       2.133   3.383  16.981  0.00  0.00    +0.000 OA
BRANCH  13  15
ATOM     15  O   UNL     1       2.422   3.272  19.250  0.00  0.00    +0.000 OA
BRANCH  15  16
ATOM     16  C   UNL     1       1.189   3.826  19.736  0.00  0.00    +0.000 C 
ATOM     17  C   UNL     1       1.555   5.030  20.583  0.00  0.00    +0.000 C 
ENDBRANCH  15  16
ENDBRANCH  13  15
ENDBRANCH   6  13
BRANCH   1  18
ATOM     18  C   UNL     1       7.663   8.150  17.576  0.00  0.00    +0.000 C 
BRANCH  18  19
ATOM     19  C   UNL     1       8.594   8.985  18.463  0.00  0.00    +0.000 C 
BRANCH  19  20
ATOM     20  C   UNL     1       8.728  10.432  17.981  0.00  0.00    +0.000 C 
BRANCH  20  22
ATOM     21  C   UNL     1      10.865  11.736  17.740  0.00  0.00    +0.000 C 
ATOM     22  C   UNL     1       9.847  11.168  18.717  0.00  0.00    +0.000 C 
ENDBRANCH  20  22
ENDBRANCH  19  20
ENDBRANCH  18  19
ENDBRANCH   1  18
TORSDOF 8
ENDMDL
MODEL 9
REMARK VINA RESULT:      -6.1      2.867      6.073
REMARK  Name = 
REMARK  10 active torsions:
REMARK  status: ('A' for Active; 'I' for Inactive)
REMARK    1  A    between atoms: C_1  and  C_2
REMARK    2  A    between atoms: C_2  and  C_3
REMARK    3  A    between atoms: C_3  and  C_4
REMARK    4  A    between atoms: C_4  and  C_5
REMARK    5  A    between atoms: C_5  and  N_6
REMARK    6  A    between atoms: C_10  and  N_11
REMARK    7  A    between atoms: C_12  and  C_13
REMARK    8  A    between atoms: C_13  and  O_15
REMARK    9  A    between atoms: O_15  and  C_16
REMARK   10  A    between atoms: C_16  and  C_17
REMARK                            x       y       z     vdW  Elec       q    Type
REMARK                         _______ _______ _______ _____ _____    ______ ____
ROOT
ATOM      1  N   UNL     1       5.666   5.102  16.447  0.00  0.00    +0.000 N 
ATOM      2  N   UNL     1       5.381   6.424  16.533  0.00  0.00    +0.000 NA
ATOM      3  C   UNL     1       4.231   6.448  17.209  0.00  0.00    +0.000 A 
ATOM      4  C   UNL     1       3.740   5.159  17.513  0.00  0.00    +0.000 A 
ATOM      5  C   UNL     1       2.618   4.626  18.174  0.00  0.00    +0.000 A 
ATOM      6  C   UNL     1       2.554   3.217  18.245  0.00  0.00    +0.000 A 
ATOM      7  C   UNL     1       3.587   2.461  17.690  0.00  0.00    +0.000 A 
ATOM      8  N   UNL     1       4.693   2.949  17.059  0.00  0.00    +0.000 NA
ATOM      9  C   UNL     1       4.700   4.295  17.001  0.00  0.00    +0.000 A 
ENDROOT
BRANCH   5  10
ATOM     10  N   UNL     1       1.701   5.455  18.830  0.00  0.00    +0.000 N 
ATOM     11  H   UNL     1       1.263   5.103  19.675  0.00  0.00    +0.000 HD
ATOM     12  H   UNL     1       1.959   6.445  18.858  0.00  0.00    +0.000 HD
ENDBRANCH   5  10
BRANCH   6  13
ATOM     13  C   UNL     1       1.383   2.570  18.893  0.00  0.00    +0.000 C 
ATOM     14  O   UNL     1       0.260   2.559  18.416  0.00  0.00    +0.000 OA
BRANCH  13  15
ATOM     15  O   UNL     1       1.720   2.059  20.107  0.00  0.00    +0.000 OA
BRANCH  15  16
ATOM     16  C   UNL     1       1.201   2.795  21.227  0.00  0.00    +0.000 C 
ATOM     17  C   UNL     1       2.359   3.589  21.801  0.00  0.00    +0.000 C 
ENDBRANCH  15  16
ENDBRANCH  13  15
ENDBRANCH   6  13
BRANCH   1  18
ATOM     18  C   UNL     1       6.917   4.684  15.846  0.00  0.00    +0.000 C 
BRANCH  18  19
ATOM     19  C   UNL     1       6.897   4.727  14.314  0.00  0.00    +0.000 C 
BRANCH  19  20
ATOM     20  C   UNL     1       5.700   3.983  13.717  0.00  0.00    +0.000 C 
BRANCH  20  22
ATOM     21  C   UNL     1       4.757   3.094  11.562  0.00  0.00    +0.000 C 
ATOM     22  C   UNL     1       6.026   3.407  12.340  0.00  0.00    +0.000 C 
ENDBRANCH  20  22
ENDBRANCH  19  20
ENDBRANCH  18  19
ENDBRANCH   1  18
TORSDOF 8
ENDMDL
