MODEL 1
REMARK VINA RESULT:      -7.3      0.000      0.000
REMARK  Name = 
REMARK  5 active torsions:
REMARK  status: ('A' for Active; 'I' for Inactive)
REMARK    1  A    between atoms: C_1  and  O_2
REMARK    2  A    between atoms: O_2  and  C_3
REMARK    3  A    between atoms: C_3  and  C_5
REMARK    4  A    between atoms: C_6  and  C_7
REMARK    5  A    between atoms: N_17  and  C_18
REMARK                            x       y       z     vdW  Elec       q    Type
REMARK                         _______ _______ _______ _____ _____    ______ ____
ROOT
ATOM      1  C   UNL     1       4.971   5.119  16.431  0.00  0.00    +0.000 A 
ATOM      2  C   UNL     1       4.425   6.236  17.107  0.00  0.00    +0.000 A 
ATOM      3  C   UNL     1       3.557   6.089  18.208  0.00  0.00    +0.000 A 
ATOM      4  C   UNL     1       3.239   4.808  18.616  0.00  0.00    +0.000 A 
ATOM      5  C   UNL     1       3.768   3.716  17.937  0.00  0.00    +0.000 A 
ATOM      6  C   UNL     1       4.620   3.831  16.852  0.00  0.00    +0.000 A 
ATOM      7  C   UNL     1       3.258   2.508  18.580  0.00  0.00    +0.000 C 
ATOM      8  O   UNL     1       3.496   1.363  18.270  0.00  0.00    +0.000 OA
ATOM      9  C   UNL     1       2.355   3.003  19.736  0.00  0.00    +0.000 C 
ATOM     10  O   UNL     1       1.751   2.289  20.506  0.00  0.00    +0.000 OA
ATOM     11  N   UNL     1       2.411   4.388  19.670  0.00  0.00    +0.000 N 
ATOM     12  C   UNL     1       1.709   5.258  20.576  0.00  0.00    +0.000 C 
ENDROOT
BRANCH   1  14
ATOM     13  C   UNL     1       6.114   4.264  14.370  0.00  0.00    +0.000 C 
ATOM     14  C   UNL     1       5.858   5.237  15.260  0.00  0.00    +0.000 C 
BRANCH  13  15
ATOM     15  C   UNL     1       6.997   4.544  13.215  0.00  0.00    +0.000 C 
ATOM     16  O   UNL     1       7.786   5.473  13.142  0.00  0.00    +0.000 OA
BRANCH  15  18
ATOM     17  C   UNL     1       5.393   3.266  12.104  0.00  0.00    +0.000 C 
ATOM     18  O   UNL     1       6.774   3.597  12.270  0.00  0.00    +0.000 OA
ENDBRANCH  15  18
ENDBRANCH  13  15
ENDBRANCH   1  14
TORSDOF 3
ENDMDL
MODEL 2
REMARK VINA RESULT:      -7.2      1.275      1.298
REMARK  Name = 
REMARK  5 active torsions:
REMARK  status: ('A' for Active; 'I' for Inactive)
REMARK    1  A    between atoms: C_1  and  O_2
REMARK    2  A    between atoms: O_2  and  C_3
REMARK    3  A    between atoms: C_3  and  C_5
REMARK    4  A    between atoms: C_6  and  C_7
REMARK    5  A    between atoms: N_17  and  C_18
REMARK                            x       y       z     vdW  Elec       q    Type
REMARK                         _______ _______ _______ _____ _____    ______ ____
ROOT
ATOM      1  C   UNL     1       5.031   4.553  17.139  0.00  0.00    +0.000 A 
ATOM      2  C   UNL     1       3.820   5.286  17.145  0.00  0.00    +0.000 A 
ATOM      3  C   UNL     1       2.850   5.112  18.152  0.00  0.00    +0.000 A 
ATOM      4  C   UNL     1       3.106   4.188  19.147  0.00  0.00    +0.000 A 
ATOM      5  C   UNL     1       4.292   3.461  19.125  0.00  0.00    +0.000 A 
ATOM      6  C   UNL     1       5.260   3.610  18.148  0.00  0.00    +0.000 A 
ATOM      7  C   UNL     1       4.283   2.570  20.283  0.00  0.00    +0.000 C 
ATOM      8  O   UNL     1       5.144   1.782  20.600  0.00  0.00    +0.000 OA
ATOM      9  C   UNL     1       2.946   2.849  21.010  0.00  0.00    +0.000 C 
ATOM     10  O   UNL     1       2.575   2.299  22.025  0.00  0.00    +0.000 OA
ATOM     11  N   UNL     1       2.319   3.828  20.253  0.00  0.00    +0.000 N 
ATOM     12  C   UNL     1       1.035   4.388  20.580  0.00  0.00    +0.000 C 
ENDROOT
BRANCH   1  14
ATOM     13  C   UNL     1       5.848   4.521  14.770  0.00  0.00    +0.000 C 
ATOM     14  C   UNL     1       6.053   4.690  16.086  0.00  0.00    +0.000 C 
BRANCH  13  15
ATOM     15  C   UNL     1       6.968   4.734  13.823  0.00  0.00    +0.000 C 
ATOM     16  O   UNL     1       7.883   5.525  13.983  0.00  0.00    +0.000 OA
BRANCH  15  18
ATOM     17  C   UNL     1       5.435   3.503  12.568  0.00  0.00    +0.000 C 
ATOM     18  O   UNL     1       6.793   3.903  12.765  0.00  0.00    +0.000 OA
ENDBRANCH  15  18
ENDBRANCH  13  15
ENDBRANCH   1  14
TORSDOF 3
ENDMDL
MODEL 3
REMARK VINA RESULT:      -6.9      1.306      1.467
REMARK  Name = 
REMARK  5 active torsions:
REMARK  status: ('A' for Active; 'I' for Inactive)
REMARK    1  A    between atoms: C_1  and  O_2
REMARK    2  A    between atoms: O_2  and  C_3
REMARK    3  A    between atoms: C_3  and  C_5
REMARK    4  A    between atoms: C_6  and  C_7
REMARK    5  A    between atoms: N_17  and  C_18
REMARK                            x       y       z     vdW  Elec       q    Type
REMARK                         _______ _______ _______ _____ _____    ______ ____
ROOT
ATOM      1  C   UNL     1       5.162   4.927  15.655  0.00  0.00    +0.000 A 
ATOM      2  C   UNL     1       5.097   6.259  16.130  0.00  0.00    +0.000 A 
ATOM      3  C   UNL     1       4.307   6.616  17.241  0.00  0.00    +0.000 A 
ATOM      4  C   UNL     1       3.578   5.622  17.864  0.00  0.00    +0.000 A 
ATOM      5  C   UNL     1       3.636   4.318  17.383  0.00  0.00    +0.000 A 
ATOM      6  C   UNL     1       4.401   3.940  16.293  0.00  0.00    +0.000 A 
ATOM      7  C   UNL     1       2.769   3.498  18.226  0.00  0.00    +0.000 C 
ATOM      8  O   UNL     1       2.561   2.312  18.118  0.00  0.00    +0.000 OA
ATOM      9  C   UNL     1       2.181   4.466  19.281  0.00  0.00    +0.000 C 
ATOM     10  O   UNL     1       1.412   4.154  20.164  0.00  0.00    +0.000 OA
ATOM     11  N   UNL     1       2.725   5.706  18.977  0.00  0.00    +0.000 N 
ATOM     12  C   UNL     1       2.442   6.905  19.720  0.00  0.00    +0.000 C 
ENDROOT
BRANCH   1  14
ATOM     13  C   UNL     1       5.503   3.802  13.441  0.00  0.00    +0.000 C 
ATOM     14  C   UNL     1       5.954   4.525  14.479  0.00  0.00    +0.000 C 
BRANCH  13  15
ATOM     15  C   UNL     1       6.408   3.510  12.306  0.00  0.00    +0.000 C 
ATOM     16  O   UNL     1       7.347   4.209  11.957  0.00  0.00    +0.000 OA
BRANCH  15  18
ATOM     17  C   UNL     1       7.070   1.630  11.095  0.00  0.00    +0.000 C 
ATOM     18  O   UNL     1       6.012   2.346  11.736  0.00  0.00    +0.000 OA
ENDBRANCH  15  18
ENDBRANCH  13  15
ENDBRANCH   1  14
TORSDOF 3
ENDMDL
MODEL 4
REMARK VINA RESULT:      -6.9      8.612     10.745
REMARK  Name = 
REMARK  5 active torsions:
REMARK  status: ('A' for Active; 'I' for Inactive)
REMARK    1  A    between atoms: C_1  and  O_2
REMARK    2  A    between atoms: O_2  and  C_3
REMARK    3  A    between atoms: C_3  and  C_5
REMARK    4  A    between atoms: C_6  and  C_7
REMARK    5  A    between atoms: N_17  and  C_18
REMARK                            x       y       z     vdW  Elec       q    Type
REMARK                         _______ _______ _______ _____ _____    ______ ____
ROOT
ATOM      1  C   UNL     1       9.471  10.685  19.080  0.00  0.00    +0.000 A 
ATOM      2  C   UNL     1       9.457  11.278  20.365  0.00  0.00    +0.000 A 
ATOM      3  C   UNL     1       9.989  12.562  20.599  0.00  0.00    +0.000 A 
ATOM      4  C   UNL     1      10.542  13.239  19.529  0.00  0.00    +0.000 A 
ATOM      5  C   UNL     1      10.565  12.644  18.273  0.00  0.00    +0.000 A 
ATOM      6  C   UNL     1      10.052  11.384  18.015  0.00  0.00    +0.000 A 
ATOM      7  C   UNL     1      11.207  13.581  17.353  0.00  0.00    +0.000 C 
ATOM      8  O   UNL     1      11.409  13.416  16.172  0.00  0.00    +0.000 OA
ATOM      9  C   UNL     1      11.567  14.819  18.208  0.00  0.00    +0.000 C 
ATOM     10  O   UNL     1      12.115  15.818  17.795  0.00  0.00    +0.000 OA
ATOM     11  N   UNL     1      11.130  14.515  19.489  0.00  0.00    +0.000 N 
ATOM     12  C   UNL     1      11.266  15.404  20.611  0.00  0.00    +0.000 C 
ENDROOT
BRANCH   1  14
ATOM     13  C   UNL     1       8.080   9.012  17.836  0.00  0.00    +0.000 C 
ATOM     14  C   UNL     1       8.950   9.334  18.807  0.00  0.00    +0.000 C 
BRANCH  13  15
ATOM     15  C   UNL     1       7.677   7.598  17.656  0.00  0.00    +0.000 C 
ATOM     16  O   UNL     1       7.034   7.164  16.713  0.00  0.00    +0.000 OA
BRANCH  15  18
ATOM     17  C   UNL     1       7.489   5.629  18.892  0.00  0.00    +0.000 C 
ATOM     18  O   UNL     1       8.145   6.886  18.711  0.00  0.00    +0.000 OA
ENDBRANCH  15  18
ENDBRANCH  13  15
ENDBRANCH   1  14
TORSDOF 3
ENDMDL
MODEL 5
REMARK VINA RESULT:      -6.8      0.800      1.325
REMARK  Name = 
REMARK  5 active torsions:
REMARK  status: ('A' for Active; 'I' for Inactive)
REMARK    1  A    between atoms: C_1  and  O_2
REMARK    2  A    between atoms: O_2  and  C_3
REMARK    3  A    between atoms: C_3  and  C_5
REMARK    4  A    between atoms: C_6  and  C_7
REMARK    5  A    between atoms: N_17  and  C_18
REMARK                            x       y       z     vdW  Elec       q    Type
REMARK                         _______ _______ _______ _____ _____    ______ ____
ROOT
ATOM      1  C   UNL     1       4.717   5.166  16.679  0.00  0.00    +0.000 A 
ATOM      2  C   UNL     1       4.325   6.384  17.285  0.00  0.00    +0.000 A 
ATOM      3  C   UNL     1       3.430   6.421  18.373  0.00  0.00    +0.000 A 
ATOM      4  C   UNL     1       2.928   5.222  18.840  0.00  0.00    +0.000 A 
ATOM      5  C   UNL     1       3.306   4.030  18.230  0.00  0.00    +0.000 A 
ATOM      6  C   UNL     1       4.181   3.965  17.159  0.00  0.00    +0.000 A 
ATOM      7  C   UNL     1       2.620   2.943  18.924  0.00  0.00    +0.000 C 
ATOM      8  O   UNL     1       2.698   1.761  18.679  0.00  0.00    +0.000 OA
ATOM      9  C   UNL     1       1.782   3.623  20.033  0.00  0.00    +0.000 C 
ATOM     10  O   UNL     1       1.071   3.043  20.826  0.00  0.00    +0.000 OA
ATOM     11  N   UNL     1       2.034   4.980  19.897  0.00  0.00    +0.000 N 
ATOM     12  C   UNL     1       1.451   5.989  20.741  0.00  0.00    +0.000 C 
ENDROOT
BRANCH   1  14
ATOM     13  C   UNL     1       5.611   4.146  14.572  0.00  0.00    +0.000 C 
ATOM     14  C   UNL     1       5.627   5.094  15.523  0.00  0.00    +0.000 C 
BRANCH  13  15
ATOM     15  C   UNL     1       6.565   4.229  13.442  0.00  0.00    +0.000 C 
ATOM     16  O   UNL     1       6.556   3.507  12.458  0.00  0.00    +0.000 OA
BRANCH  15  18
ATOM     17  C   UNL     1       8.167   5.668  12.546  0.00  0.00    +0.000 C 
ATOM     18  O   UNL     1       7.437   5.237  13.696  0.00  0.00    +0.000 OA
ENDBRANCH  15  18
ENDBRANCH  13  15
ENDBRANCH   1  14
TORSDOF 3
ENDMDL
MODEL 6
REMARK VINA RESULT:      -6.8      2.008      2.674
REMARK  Name = 
REMARK  5 active torsions:
REMARK  status: ('A' for Active; 'I' for Inactive)
REMARK    1  A    between atoms: C_1  and  O_2
REMARK    2  A    between atoms: O_2  and  C_3
REMARK    3  A    between atoms: C_3  and  C_5
REMARK    4  A    between atoms: C_6  and  C_7
REMARK    5  A    between atoms: N_17  and  C_18
REMARK                            x       y       z     vdW  Elec       q    Type
REMARK                         _______ _______ _______ _____ _____    ______ ____
ROOT
ATOM      1  C   UNL     1       4.451   4.180  16.829  0.00  0.00    +0.000 A 
ATOM      2  C   UNL     1       4.171   3.030  17.605  0.00  0.00    +0.000 A 
ATOM      3  C   UNL     1       3.404   3.095  18.785  0.00  0.00    +0.000 A 
ATOM      4  C   UNL     1       2.929   4.331  19.181  0.00  0.00    +0.000 A 
ATOM      5  C   UNL     1       3.221   5.459  18.421  0.00  0.00    +0.000 A 
ATOM      6  C   UNL     1       3.972   5.423  17.260  0.00  0.00    +0.000 A 
ATOM      7  C   UNL     1       2.599   6.606  19.079  0.00  0.00    +0.000 C 
ATOM      8  O   UNL     1       2.633   7.759  18.715  0.00  0.00    +0.000 OA
ATOM      9  C   UNL     1       1.892   6.032  20.331  0.00  0.00    +0.000 C 
ATOM     10  O   UNL     1       1.260   6.682  21.135  0.00  0.00    +0.000 OA
ATOM     11  N   UNL     1       2.150   4.669  20.300  0.00  0.00    +0.000 N 
ATOM     12  C   UNL     1       1.669   3.744  21.291  0.00  0.00    +0.000 C 
ENDROOT
BRANCH   1  14
ATOM     13  C   UNL     1       6.269   5.002  15.312  0.00  0.00    +0.000 C 
ATOM     14  C   UNL     1       5.273   4.151  15.606  0.00  0.00    +0.000 C 
BRANCH  13  15
ATOM     15  C   UNL     1       7.037   4.821  14.059  0.00  0.00    +0.000 C 
ATOM     16  O   UNL     1       7.972   5.519  13.699  0.00  0.00    +0.000 OA
BRANCH  15  18
ATOM     17  C   UNL     1       6.792   3.770  11.991  0.00  0.00    +0.000 C 
ATOM     18  O   UNL     1       6.521   3.758  13.394  0.00  0.00    +0.000 OA
ENDBRANCH  15  18
ENDBRANCH  13  15
ENDBRANCH   1  14
TORSDOF 3
ENDMDL
MODEL 7
REMARK VINA RESULT:      -6.7      1.544      1.769
REMARK  Name = 
REMARK  5 active torsions:
REMARK  status: ('A' for Active; 'I' for Inactive)
REMARK    1  A    between atoms: C_1  and  O_2
REMARK    2  A    between atoms: O_2  and  C_3
REMARK    3  A    between atoms: C_3  and  C_5
REMARK    4  A    between atoms: C_6  and  C_7
REMARK    5  A    between atoms: N_17  and  C_18
REMARK                            x       y       z     vdW  Elec       q    Type
REMARK                         _______ _______ _______ _____ _____    ______ ____
ROOT
ATOM      1  C   UNL     1       5.424   4.498  17.062  0.00  0.00    +0.000 A 
ATOM      2  C   UNL     1       5.914   4.207  18.358  0.00  0.00    +0.000 A 
ATOM      3  C   UNL     1       5.052   3.871  19.422  0.00  0.00    +0.000 A 
ATOM      4  C   UNL     1       3.694   3.840  19.171  0.00  0.00    +0.000 A 
ATOM      5  C   UNL     1       3.220   4.141  17.898  0.00  0.00    +0.000 A 
ATOM      6  C   UNL     1       4.042   4.476  16.837  0.00  0.00    +0.000 A 
ATOM      7  C   UNL     1       1.763   4.033  17.934  0.00  0.00    +0.000 C 
ATOM      8  O   UNL     1       0.998   4.223  17.017  0.00  0.00    +0.000 OA
ATOM      9  C   UNL     1       1.414   3.625  19.385  0.00  0.00    +0.000 C 
ATOM     10  O   UNL     1       0.293   3.436  19.807  0.00  0.00    +0.000 OA
ATOM     11  N   UNL     1       2.633   3.537  20.041  0.00  0.00    +0.000 N 
ATOM     12  C   UNL     1       2.770   3.177  21.427  0.00  0.00    +0.000 C 
ENDROOT
BRANCH   1  14
ATOM     13  C   UNL     1       6.306   4.302  14.724  0.00  0.00    +0.000 C 
ATOM     14  C   UNL     1       6.295   4.881  15.936  0.00  0.00    +0.000 C 
BRANCH  13  15
ATOM     15  C   UNL     1       7.211   4.824  13.675  0.00  0.00    +0.000 C 
ATOM     16  O   UNL     1       8.074   5.670  13.846  0.00  0.00    +0.000 OA
BRANCH  15  18
ATOM     17  C   UNL     1       5.796   3.312  12.602  0.00  0.00    +0.000 C 
ATOM     18  O   UNL     1       6.909   4.203  12.507  0.00  0.00    +0.000 OA
ENDBRANCH  15  18
ENDBRANCH  13  15
ENDBRANCH   1  14
TORSDOF 3
ENDMDL
MODEL 8
REMARK VINA RESULT:      -6.7      3.935      7.760
REMARK  Name = 
REMARK  5 active torsions:
REMARK  status: ('A' for Active; 'I' for Inactive)
REMARK    1  A    between atoms: C_1  and  O_2
REMARK    2  A    between atoms: O_2  and  C_3
REMARK    3  A    between atoms: C_3  and  C_5
REMARK    4  A    between atoms: C_6  and  C_7
REMARK    5  A    between atoms: N_17  and  C_18
REMARK                            x       y       z     vdW  Elec       q    Type
REMARK                         _______ _______ _______ _____ _____    ______ ____
ROOT
ATOM      1  C   UNL     1       1.738   7.307  20.359  0.00  0.00    +0.000 A 
ATOM      2  C   UNL     1       2.396   7.473  19.117  0.00  0.00    +0.000 A 
ATOM      3  C   UNL     1       2.814   6.372  18.342  0.00  0.00    +0.000 A 
ATOM      4  C   UNL     1       2.571   5.104  18.833  0.00  0.00    +0.000 A 
ATOM      5  C   UNL     1       1.937   4.949  20.061  0.00  0.00    +0.000 A 
ATOM      6  C   UNL     1       1.517   6.011  20.843  0.00  0.00    +0.000 A 
ATOM      7  C   UNL     1       1.822   3.516  20.320  0.00  0.00    +0.000 C 
ATOM      8  O   UNL     1       1.328   2.990  21.291  0.00  0.00    +0.000 OA
ATOM      9  C   UNL     1       2.464   2.821  19.095  0.00  0.00    +0.000 C 
ATOM     10  O   UNL     1       2.557   1.622  18.941  0.00  0.00    +0.000 OA
ATOM     11  N   UNL     1       2.879   3.855  18.268  0.00  0.00    +0.000 N 
ATOM     12  C   UNL     1       3.532   3.652  17.003  0.00  0.00    +0.000 C 
ENDROOT
BRANCH   1  14
ATOM     13  C   UNL     1       0.071   8.637  21.675  0.00  0.00    +0.000 C 
ATOM     14  C   UNL     1       1.313   8.435  21.206  0.00  0.00    +0.000 C 
BRANCH  13  15
ATOM     15  C   UNL     1      -0.197   9.799  22.554  0.00  0.00    +0.000 C 
ATOM     16  O   UNL     1       0.094   9.868  23.738  0.00  0.00    +0.000 OA
BRANCH  15  18
ATOM     17  C   UNL     1      -0.822  12.043  22.437  0.00  0.00    +0.000 C 
ATOM     18  O   UNL     1      -0.814  10.755  21.817  0.00  0.00    +0.000 OA
ENDBRANCH  15  18
ENDBRANCH  13  15
ENDBRANCH   1  14
TORSDOF 3
ENDMDL
MODEL 9
REMARK VINA RESULT:      -6.6      2.177      2.844
REMARK  Name = 
REMARK  5 active torsions:
REMARK  status: ('A' for Active; 'I' for Inactive)
REMARK    1  A    between atoms: C_1  and  O_2
REMARK    2  A    between atoms: O_2  and  C_3
REMARK    3  A    between atoms: C_3  and  C_5
REMARK    4  A    between atoms: C_6  and  C_7
REMARK    5  A    between atoms: N_17  and  C_18
REMARK                            x       y       z     vdW  Elec       q    Type
REMARK                         _______ _______ _______ _____ _____    ______ ____
ROOT
ATOM      1  C   UNL     1       5.051   5.053  16.305  0.00  0.00    +0.000 A 
ATOM      2  C   UNL     1       4.900   3.937  17.163  0.00  0.00    +0.000 A 
ATOM      3  C   UNL     1       4.140   4.005  18.348  0.00  0.00    +0.000 A 
ATOM      4  C   UNL     1       3.540   5.209  18.664  0.00  0.00    +0.000 A 
ATOM      5  C   UNL     1       3.705   6.304  17.824  0.00  0.00    +0.000 A 
ATOM      6  C   UNL     1       4.447   6.266  16.656  0.00  0.00    +0.000 A 
ATOM      7  C   UNL     1       2.971   7.424  18.410  0.00  0.00    +0.000 C 
ATOM      8  O   UNL     1       2.880   8.545  17.966  0.00  0.00    +0.000 OA
ATOM      9  C   UNL     1       2.339   6.869  19.709  0.00  0.00    +0.000 C 
ATOM     10  O   UNL     1       1.647   7.505  20.476  0.00  0.00    +0.000 OA
ATOM     11  N   UNL     1       2.739   5.542  19.769  0.00  0.00    +0.000 N 
ATOM     12  C   UNL     1       2.366   4.643  20.828  0.00  0.00    +0.000 C 
ENDROOT
BRANCH   1  14
ATOM     13  C   UNL     1       5.896   4.018  14.184  0.00  0.00    +0.000 C 
ATOM     14  C   UNL     1       5.861   5.023  15.074  0.00  0.00    +0.000 C 
BRANCH  13  15
ATOM     15  C   UNL     1       6.730   4.149  12.968  0.00  0.00    +0.000 C 
ATOM     16  O   UNL     1       7.576   5.010  12.784  0.00  0.00    +0.000 OA
BRANCH  15  18
ATOM     17  C   UNL     1       5.001   3.146  11.766  0.00  0.00    +0.000 C 
ATOM     18  O   UNL     1       6.389   3.156  12.110  0.00  0.00    +0.000 OA
ENDBRANCH  15  18
ENDBRANCH  13  15
ENDBRANCH   1  14
TORSDOF 3
ENDMDL
