MODEL 1
REMARK VINA RESULT:      -8.9      0.000      0.000
REMARK  Name = 
REMARK  5 active torsions:
REMARK  status: ('A' for Active; 'I' for Inactive)
REMARK    1  A    between atoms: C_4  and  C_6
REMARK    2  A    between atoms: N_12  and  C_13
REMARK    3  A    between atoms: N_16  and  C_17
REMARK    4  A    between atoms: C_17  and  C_18
REMARK    5  A    between atoms: C_18  and  C_19
REMARK                            x       y       z     vdW  Elec       q    Type
REMARK                         _______ _______ _______ _____ _____    ______ ____
ROOT
ATOM      1  C   UNL     1       4.806   5.865  17.044  0.00  0.00    +0.000 C 
ATOM      2  C   UNL     1       5.773   4.971  17.843  0.00  0.00    +0.000 C 
ATOM      3  C   UNL     1       6.814   5.795  18.617  0.00  0.00    +0.000 C 
ATOM      4  N   UNL     1       7.527   6.816  17.834  0.00  0.00    +0.000 NA
ATOM      5  C   UNL     1       6.653   7.571  16.915  0.00  0.00    +0.000 C 
ATOM      6  C   UNL     1       5.674   6.710  16.117  0.00  0.00    +0.000 C 
ENDROOT
BRANCH   1  12
ATOM      7  O   UNL     1       2.651   7.401  19.532  0.00  0.00    +0.000 OA
ATOM      8  C   UNL     1       3.078   6.398  18.967  0.00  0.00    +0.000 C 
ATOM      9  N   UNL     1       2.737   5.115  19.271  0.00  0.00    +0.000 N 
ATOM     10  C   UNL     1       1.739   4.788  20.190  0.00  0.00    +0.000 C 
ATOM     11  O   UNL     1       1.104   5.603  20.856  0.00  0.00    +0.000 OA
ATOM     12  N   UNL     1       3.959   6.639  17.971  0.00  0.00    +0.000 N 
ATOM     13  H   UNL     1       3.233   4.380  18.800  0.00  0.00    +0.000 HD
ATOM     14  H   UNL     1       4.094   7.642  17.933  0.00  0.00    +0.000 HD
BRANCH  10  15
ATOM     15  C   UNL     1       1.488   3.277  20.371  0.00  0.00    +0.000 C 
ATOM     16  C   UNL     1       1.107   2.563  19.049  0.00  0.00    +0.000 C 
ATOM     17  C   UNL     1       2.289   2.268  18.115  0.00  0.00    +0.000 C 
ATOM     18  C   UNL     1       3.471   1.635  18.842  0.00  0.00    +0.000 C 
ATOM     19  C   UNL     1       3.859   2.455  20.065  0.00  0.00    +0.000 C 
ATOM     20  C   UNL     1       2.676   2.564  21.025  0.00  0.00    +0.000 C 
ENDBRANCH  10  15
ENDBRANCH   1  12
BRANCH   4  21
ATOM     21  C   UNL     1       8.207   7.793  18.742  0.00  0.00    +0.000 C 
BRANCH  21  22
ATOM     22  C   UNL     1       8.462   9.196  18.149  0.00  0.00    +0.000 C 
BRANCH  22  23
ATOM     23  C   UNL     1       9.137  10.137  19.107  0.00  0.00    +0.000 A 
ATOM     24  C   UNL     1       8.988  10.189  20.479  0.00  0.00    +0.000 A 
ATOM     25  N   UNL     1       9.787  11.190  20.971  0.00  0.00    +0.000 N 
ATOM     26  C   UNL     1      10.499  11.775  19.949  0.00  0.00    +0.000 A 
ATOM     27  C   UNL     1      11.442  12.809  19.976  0.00  0.00    +0.000 A 
ATOM     28  C   UNL     1      12.037  13.175  18.767  0.00  0.00    +0.000 A 
ATOM     29  C   UNL     1      11.693  12.541  17.576  0.00  0.00    +0.000 A 
ATOM     30  C   UNL     1      10.732  11.524  17.563  0.00  0.00    +0.000 A 
ATOM     31  C   UNL     1      10.121  11.130  18.770  0.00  0.00    +0.000 A 
ATOM     32  H   UNL     1       9.872  11.444  21.946  0.00  0.00    +0.000 HD
ENDBRANCH  22  23
ENDBRANCH  21  22
ENDBRANCH   4  21
TORSDOF 5
ENDMDL
MODEL 2
REMARK VINA RESULT:      -8.6      5.166      7.784
REMARK  Name = 
REMARK  5 active torsions:
REMARK  status: ('A' for Active; 'I' for Inactive)
REMARK    1  A    between atoms: C_4  and  C_6
REMARK    2  A    between atoms: N_12  and  C_13
REMARK    3  A    between atoms: N_16  and  C_17
REMARK    4  A    between atoms: C_17  and  C_18
REMARK    5  A    between atoms: C_18  and  C_19
REMARK                            x       y       z     vdW  Elec       q    Type
REMARK                         _______ _______ _______ _____ _____    ______ ____
ROOT
ATOM      1  C   UNL     1       1.834   5.836  19.102  0.00  0.00    +0.000 C 
ATOM      2  C   UNL     1       2.874   5.442  20.167  0.00  0.00    +0.000 C 
ATOM      3  C   UNL     1       4.062   4.680  19.560  0.00  0.00    +0.000 C 
ATOM      4  N   UNL     1       3.714   3.549  18.685  0.00  0.00    +0.000 NA
ATOM      5  C   UNL     1       2.590   3.836  17.772  0.00  0.00    +0.000 C 
ATOM      6  C   UNL     1       1.401   4.538  18.428  0.00  0.00    +0.000 C 
ENDROOT
BRANCH   1  12
ATOM      7  O   UNL     1       3.121   8.607  17.137  0.00  0.00    +0.000 OA
ATOM      8  C   UNL     1       2.407   8.185  18.042  0.00  0.00    +0.000 C 
ATOM      9  N   UNL     1       1.648   8.953  18.872  0.00  0.00    +0.000 N 
ATOM     10  C   UNL     1       1.485  10.329  18.702  0.00  0.00    +0.000 C 
ATOM     11  O   UNL     1       2.039  10.999  17.834  0.00  0.00    +0.000 OA
ATOM     12  N   UNL     1       2.410   6.842  18.188  0.00  0.00    +0.000 N 
ATOM     13  H   UNL     1       1.187   8.493  19.636  0.00  0.00    +0.000 HD
ATOM     14  H   UNL     1       3.054   6.471  17.501  0.00  0.00    +0.000 HD
BRANCH  10  15
ATOM     15  C   UNL     1       0.564  11.009  19.735  0.00  0.00    +0.000 C 
ATOM     16  C   UNL     1       0.314  12.508  19.429  0.00  0.00    +0.000 C 
ATOM     17  C   UNL     1      -0.712  12.775  18.319  0.00  0.00    +0.000 C 
ATOM     18  C   UNL     1      -1.988  11.957  18.487  0.00  0.00    +0.000 C 
ATOM     19  C   UNL     1      -1.666  10.480  18.669  0.00  0.00    +0.000 C 
ATOM     20  C   UNL     1      -0.774  10.279  19.893  0.00  0.00    +0.000 C 
ENDBRANCH  10  15
ENDBRANCH   1  12
BRANCH   4  21
ATOM     21  C   UNL     1       4.894   3.140  17.861  0.00  0.00    +0.000 C 
BRANCH  21  22
ATOM     22  C   UNL     1       4.739   3.312  16.334  0.00  0.00    +0.000 C 
BRANCH  22  23
ATOM     23  C   UNL     1       5.830   4.136  15.711  0.00  0.00    +0.000 A 
ATOM     24  C   UNL     1       6.695   5.006  16.347  0.00  0.00    +0.000 A 
ATOM     25  N   UNL     1       7.538   5.549  15.412  0.00  0.00    +0.000 N 
ATOM     26  C   UNL     1       7.276   5.019  14.170  0.00  0.00    +0.000 A 
ATOM     27  C   UNL     1       7.889   5.256  12.934  0.00  0.00    +0.000 A 
ATOM     28  C   UNL     1       7.426   4.535  11.831  0.00  0.00    +0.000 A 
ATOM     29  C   UNL     1       6.382   3.622  11.957  0.00  0.00    +0.000 A 
ATOM     30  C   UNL     1       5.765   3.414  13.195  0.00  0.00    +0.000 A 
ATOM     31  C   UNL     1       6.217   4.123  14.326  0.00  0.00    +0.000 A 
ATOM     32  H   UNL     1       8.273   6.217  15.605  0.00  0.00    +0.000 HD
ENDBRANCH  22  23
ENDBRANCH  21  22
ENDBRANCH   4  21
TORSDOF 5
ENDMDL
MODEL 3
REMARK VINA RESULT:      -8.6      1.348      1.419
REMARK  Name = 
REMARK  5 active torsions:
REMARK  status: ('A' for Active; 'I' for Inactive)
REMARK    1  A    between atoms: C_4  and  C_6
REMARK    2  A    between atoms: N_12  and  C_13
REMARK    3  A    between atoms: N_16  and  C_17
REMARK    4  A    between atoms: C_17  and  C_18
REMARK    5  A    between atoms: C_18  and  C_19
REMARK                            x       y       z     vdW  Elec       q    Type
REMARK                         _______ _______ _______ _____ _____    ______ ____
ROOT
ATOM      1  C   UNL     1       4.835   5.461  17.251  0.00  0.00    +0.000 C 
ATOM      2  C   UNL     1       5.802   4.757  18.221  0.00  0.00    +0.000 C 
ATOM      3  C   UNL     1       6.853   5.722  18.792  0.00  0.00    +0.000 C 
ATOM      4  N   UNL     1       7.567   6.543  17.801  0.00  0.00    +0.000 NA
ATOM      5  C   UNL     1       6.691   7.086  16.744  0.00  0.00    +0.000 C 
ATOM      6  C   UNL     1       5.702   6.078  16.158  0.00  0.00    +0.000 C 
ENDROOT
BRANCH   1  12
ATOM      7  O   UNL     1       2.684   7.511  19.340  0.00  0.00    +0.000 OA
ATOM      8  C   UNL     1       3.080   6.406  18.983  0.00  0.00    +0.000 C 
ATOM      9  N   UNL     1       2.672   5.214  19.501  0.00  0.00    +0.000 N 
ATOM     10  C   UNL     1       1.635   5.101  20.428  0.00  0.00    +0.000 C 
ATOM     11  O   UNL     1       1.019   6.048  20.912  0.00  0.00    +0.000 OA
ATOM     12  N   UNL     1       3.998   6.426  17.991  0.00  0.00    +0.000 N 
ATOM     13  H   UNL     1       3.147   4.387  19.189  0.00  0.00    +0.000 HD
ATOM     14  H   UNL     1       4.180   7.398  17.777  0.00  0.00    +0.000 HD
BRANCH  10  15
ATOM     15  C   UNL     1       1.310   3.660  20.871  0.00  0.00    +0.000 C 
ATOM     16  C   UNL     1       0.517   2.862  19.804  0.00  0.00    +0.000 C 
ATOM     17  C   UNL     1       1.364   2.327  18.641  0.00  0.00    +0.000 C 
ATOM     18  C   UNL     1       2.639   1.635  19.110  0.00  0.00    +0.000 C 
ATOM     19  C   UNL     1       3.421   2.526  20.066  0.00  0.00    +0.000 C 
ATOM     20  C   UNL     1       2.564   2.879  21.280  0.00  0.00    +0.000 C 
ENDBRANCH  10  15
ENDBRANCH   1  12
BRANCH   4  21
ATOM     21  C   UNL     1       8.259   7.688  18.471  0.00  0.00    +0.000 C 
BRANCH  21  22
ATOM     22  C   UNL     1       8.161   9.048  17.746  0.00  0.00    +0.000 C 
BRANCH  22  23
ATOM     23  C   UNL     1       8.770  10.184  18.520  0.00  0.00    +0.000 A 
ATOM     24  C   UNL     1       9.670  10.103  19.564  0.00  0.00    +0.000 A 
ATOM     25  N   UNL     1       9.974  11.373  19.982  0.00  0.00    +0.000 N 
ATOM     26  C   UNL     1       9.322  12.300  19.202  0.00  0.00    +0.000 A 
ATOM     27  C   UNL     1       9.345  13.699  19.244  0.00  0.00    +0.000 A 
ATOM     28  C   UNL     1       8.597  14.388  18.287  0.00  0.00    +0.000 A 
ATOM     29  C   UNL     1       7.845  13.705  17.334  0.00  0.00    +0.000 A 
ATOM     30  C   UNL     1       7.816  12.307  17.320  0.00  0.00    +0.000 A 
ATOM     31  C   UNL     1       8.567  11.586  18.270  0.00  0.00    +0.000 A 
ATOM     32  H   UNL     1      10.612  11.604  20.733  0.00  0.00    +0.000 HD
ENDBRANCH  22  23
ENDBRANCH  21  22
ENDBRANCH   4  21
TORSDOF 5
ENDMDL
MODEL 4
REMARK VINA RESULT:      -8.5      6.897     10.416
REMARK  Name = 
REMARK  5 active torsions:
REMARK  status: ('A' for Active; 'I' for Inactive)
REMARK    1  A    between atoms: C_4  and  C_6
REMARK    2  A    between atoms: N_12  and  C_13
REMARK    3  A    between atoms: N_16  and  C_17
REMARK    4  A    between atoms: C_17  and  C_18
REMARK    5  A    between atoms: C_18  and  C_19
REMARK                            x       y       z     vdW  Elec       q    Type
REMARK                         _______ _______ _______ _____ _____    ______ ____
ROOT
ATOM      1  C   UNL     1       0.988   9.946  18.537  0.00  0.00    +0.000 C 
ATOM      2  C   UNL     1       1.507  11.384  18.730  0.00  0.00    +0.000 C 
ATOM      3  C   UNL     1       0.666  12.169  19.749  0.00  0.00    +0.000 C 
ATOM      4  N   UNL     1      -0.790  12.132  19.537  0.00  0.00    +0.000 NA
ATOM      5  C   UNL     1      -1.297  10.796  19.166  0.00  0.00    +0.000 C 
ATOM      6  C   UNL     1      -0.468  10.073  18.104  0.00  0.00    +0.000 C 
ENDROOT
BRANCH   1  12
ATOM      7  O   UNL     1       1.742   7.765  21.342  0.00  0.00    +0.000 OA
ATOM      8  C   UNL     1       1.704   7.968  20.132  0.00  0.00    +0.000 C 
ATOM      9  N   UNL     1       2.125   7.098  19.171  0.00  0.00    +0.000 N 
ATOM     10  C   UNL     1       2.532   5.793  19.450  0.00  0.00    +0.000 C 
ATOM     11  O   UNL     1       2.607   5.307  20.576  0.00  0.00    +0.000 OA
ATOM     12  N   UNL     1       1.198   9.169  19.774  0.00  0.00    +0.000 N 
ATOM     13  H   UNL     1       2.133   7.426  18.222  0.00  0.00    +0.000 HD
ATOM     14  H   UNL     1       0.979   9.664  20.628  0.00  0.00    +0.000 HD
BRANCH  10  15
ATOM     15  C   UNL     1       2.946   4.962  18.219  0.00  0.00    +0.000 C 
ATOM     16  C   UNL     1       4.081   3.952  18.524  0.00  0.00    +0.000 C 
ATOM     17  C   UNL     1       3.628   2.676  19.248  0.00  0.00    +0.000 C 
ATOM     18  C   UNL     1       2.393   2.046  18.616  0.00  0.00    +0.000 C 
ATOM     19  C   UNL     1       1.281   3.074  18.452  0.00  0.00    +0.000 C 
ATOM     20  C   UNL     1       1.758   4.234  17.581  0.00  0.00    +0.000 C 
ENDBRANCH  10  15
ENDBRANCH   1  12
BRANCH   4  21
ATOM     21  C   UNL     1      -1.511  12.582  20.768  0.00  0.00    +0.000 C 
BRANCH  21  22
ATOM     22  C   UNL     1      -2.687  13.556  20.539  0.00  0.00    +0.000 C 
BRANCH  22  23
ATOM     23  C   UNL     1      -4.033  12.939  20.800  0.00  0.00    +0.000 A 
ATOM     24  C   UNL     1      -4.752  12.957  21.979  0.00  0.00    +0.000 A 
ATOM     25  N   UNL     1      -5.930  12.282  21.786  0.00  0.00    +0.000 N 
ATOM     26  C   UNL     1      -6.026  11.856  20.481  0.00  0.00    +0.000 A 
ATOM     27  C   UNL     1      -7.046  11.155  19.828  0.00  0.00    +0.000 A 
ATOM     28  C   UNL     1      -6.879  10.885  18.468  0.00  0.00    +0.000 A 
ATOM     29  C   UNL     1      -5.731  11.289  17.791  0.00  0.00    +0.000 A 
ATOM     30  C   UNL     1      -4.711  11.970  18.464  0.00  0.00    +0.000 A 
ATOM     31  C   UNL     1      -4.857  12.261  19.835  0.00  0.00    +0.000 A 
ATOM     32  H   UNL     1      -6.647  12.145  22.486  0.00  0.00    +0.000 HD
ENDBRANCH  22  23
ENDBRANCH  21  22
ENDBRANCH   4  21
TORSDOF 5
ENDMDL
MODEL 5
REMARK VINA RESULT:      -8.5      4.653      7.629
REMARK  Name = 
REMARK  5 active torsions:
REMARK  status: ('A' for Active; 'I' for Inactive)
REMARK    1  A    between atoms: C_4  and  C_6
REMARK    2  A    between atoms: N_12  and  C_13
REMARK    3  A    between atoms: N_16  and  C_17
REMARK    4  A    between atoms: C_17  and  C_18
REMARK    5  A    between atoms: C_18  and  C_19
REMARK                            x       y       z     vdW  Elec       q    Type
REMARK                         _______ _______ _______ _____ _____    ______ ____
ROOT
ATOM      1  C   UNL     1       1.834   2.350  18.769  0.00  0.00    +0.000 C 
ATOM      2  C   UNL     1       1.843   3.522  17.770  0.00  0.00    +0.000 C 
ATOM      3  C   UNL     1       2.014   4.878  18.473  0.00  0.00    +0.000 C 
ATOM      4  N   UNL     1       1.110   5.126  19.607  0.00  0.00    +0.000 NA
ATOM      5  C   UNL     1       0.934   3.955  20.487  0.00  0.00    +0.000 C 
ATOM      6  C   UNL     1       0.703   2.635  19.751  0.00  0.00    +0.000 C 
ENDROOT
BRANCH   1  12
ATOM      7  O   UNL     1       5.199   2.398  20.137  0.00  0.00    +0.000 OA
ATOM      8  C   UNL     1       4.353   2.857  19.374  0.00  0.00    +0.000 C 
ATOM      9  N   UNL     1       4.528   3.931  18.555  0.00  0.00    +0.000 N 
ATOM     10  C   UNL     1       5.758   4.568  18.384  0.00  0.00    +0.000 C 
ATOM     11  O   UNL     1       6.790   4.271  18.982  0.00  0.00    +0.000 OA
ATOM     12  N   UNL     1       3.167   2.210  19.387  0.00  0.00    +0.000 N 
ATOM     13  H   UNL     1       3.726   4.266  18.054  0.00  0.00    +0.000 HD
ATOM     14  H   UNL     1       3.239   1.473  20.077  0.00  0.00    +0.000 HD
BRANCH  10  15
ATOM     15  C   UNL     1       5.750   5.748  17.392  0.00  0.00    +0.000 C 
ATOM     16  C   UNL     1       7.145   6.036  16.781  0.00  0.00    +0.000 C 
ATOM     17  C   UNL     1       7.563   5.078  15.657  0.00  0.00    +0.000 C 
ATOM     18  C   UNL     1       6.465   4.869  14.621  0.00  0.00    +0.000 C 
ATOM     19  C   UNL     1       5.154   4.478  15.289  0.00  0.00    +0.000 C 
ATOM     20  C   UNL     1       4.719   5.562  16.274  0.00  0.00    +0.000 C 
ENDBRANCH  10  15
ENDBRANCH   1  12
BRANCH   4  21
ATOM     21  C   UNL     1       1.611   6.266  20.437  0.00  0.00    +0.000 C 
BRANCH  21  22
ATOM     22  C   UNL     1       2.503   7.290  19.703  0.00  0.00    +0.000 C 
BRANCH  22  23
ATOM     23  C   UNL     1       1.746   8.483  19.190  0.00  0.00    +0.000 A 
ATOM     24  C   UNL     1       1.662   8.928  17.885  0.00  0.00    +0.000 A 
ATOM     25  N   UNL     1       0.867  10.045  17.851  0.00  0.00    +0.000 N 
ATOM     26  C   UNL     1       0.385  10.324  19.109  0.00  0.00    +0.000 A 
ATOM     27  C   UNL     1      -0.468  11.342  19.549  0.00  0.00    +0.000 A 
ATOM     28  C   UNL     1      -0.819  11.356  20.901  0.00  0.00    +0.000 A 
ATOM     29  C   UNL     1      -0.324  10.396  21.781  0.00  0.00    +0.000 A 
ATOM     30  C   UNL     1       0.546   9.398  21.329  0.00  0.00    +0.000 A 
ATOM     31  C   UNL     1       0.911   9.357  19.968  0.00  0.00    +0.000 A 
ATOM     32  H   UNL     1       0.635  10.573  17.020  0.00  0.00    +0.000 HD
ENDBRANCH  22  23
ENDBRANCH  21  22
ENDBRANCH   4  21
TORSDOF 5
ENDMDL
MODEL 6
REMARK VINA RESULT:      -8.5      3.568      6.835
REMARK  Name = 
REMARK  5 active torsions:
REMARK  status: ('A' for Active; 'I' for Inactive)
REMARK    1  A    between atoms: C_4  and  C_6
REMARK    2  A    between atoms: N_12  and  C_13
REMARK    3  A    between atoms: N_16  and  C_17
REMARK    4  A    between atoms: C_17  and  C_18
REMARK    5  A    between atoms: C_18  and  C_19
REMARK                            x       y       z     vdW  Elec       q    Type
REMARK                         _______ _______ _______ _____ _____    ______ ____
ROOT
ATOM      1  C   UNL     1       1.600   5.601  18.747  0.00  0.00    +0.000 C 
ATOM      2  C   UNL     1       2.403   5.167  19.988  0.00  0.00    +0.000 C 
ATOM      3  C   UNL     1       3.692   4.420  19.610  0.00  0.00    +0.000 C 
ATOM      4  N   UNL     1       3.530   3.321  18.645  0.00  0.00    +0.000 NA
ATOM      5  C   UNL     1       2.614   3.643  17.532  0.00  0.00    +0.000 C 
ATOM      6  C   UNL     1       1.316   4.329  17.956  0.00  0.00    +0.000 C 
ENDROOT
BRANCH   1  12
ATOM      7  O   UNL     1       3.286   8.425  17.204  0.00  0.00    +0.000 OA
ATOM      8  C   UNL     1       2.433   7.982  17.968  0.00  0.00    +0.000 C 
ATOM      9  N   UNL     1       1.606   8.732  18.748  0.00  0.00    +0.000 N 
ATOM     10  C   UNL     1       1.538  10.124  18.670  0.00  0.00    +0.000 C 
ATOM     11  O   UNL     1       2.240  10.821  17.941  0.00  0.00    +0.000 OA
ATOM     12  N   UNL     1       2.348   6.634  18.004  0.00  0.00    +0.000 N 
ATOM     13  H   UNL     1       1.021   8.246  19.403  0.00  0.00    +0.000 HD
ATOM     14  H   UNL     1       3.061   6.276  17.382  0.00  0.00    +0.000 HD
BRANCH  10  15
ATOM     15  C   UNL     1       0.518  10.782  19.621  0.00  0.00    +0.000 C 
ATOM     16  C   UNL     1       0.401  12.314  19.418  0.00  0.00    +0.000 C 
ATOM     17  C   UNL     1      -0.438  12.739  18.205  0.00  0.00    +0.000 C 
ATOM     18  C   UNL     1      -1.769  12.000  18.121  0.00  0.00    +0.000 C 
ATOM     19  C   UNL     1      -1.562  10.494  18.214  0.00  0.00    +0.000 C 
ATOM     20  C   UNL     1      -0.869  10.136  19.527  0.00  0.00    +0.000 C 
ENDBRANCH  10  15
ENDBRANCH   1  12
BRANCH   4  21
ATOM     21  C   UNL     1       4.854   2.934  18.064  0.00  0.00    +0.000 C 
BRANCH  21  22
ATOM     22  C   UNL     1       5.114   3.399  16.615  0.00  0.00    +0.000 C 
BRANCH  22  23
ATOM     23  C   UNL     1       5.542   4.836  16.515  0.00  0.00    +0.000 A 
ATOM     24  C   UNL     1       5.066   5.797  15.646  0.00  0.00    +0.000 A 
ATOM     25  N   UNL     1       5.722   6.977  15.892  0.00  0.00    +0.000 N 
ATOM     26  C   UNL     1       6.596   6.825  16.943  0.00  0.00    +0.000 A 
ATOM     27  C   UNL     1       7.451   7.749  17.554  0.00  0.00    +0.000 A 
ATOM     28  C   UNL     1       8.209   7.311  18.642  0.00  0.00    +0.000 A 
ATOM     29  C   UNL     1       8.124   5.997  19.094  0.00  0.00    +0.000 A 
ATOM     30  C   UNL     1       7.280   5.080  18.459  0.00  0.00    +0.000 A 
ATOM     31  C   UNL     1       6.499   5.496  17.362  0.00  0.00    +0.000 A 
ATOM     32  H   UNL     1       5.566   7.846  15.398  0.00  0.00    +0.000 HD
ENDBRANCH  22  23
ENDBRANCH  21  22
ENDBRANCH   4  21
TORSDOF 5
ENDMDL
MODEL 7
REMARK VINA RESULT:      -8.4      7.002     10.641
REMARK  Name = 
REMARK  5 active torsions:
REMARK  status: ('A' for Active; 'I' for Inactive)
REMARK    1  A    between atoms: C_4  and  C_6
REMARK    2  A    between atoms: N_12  and  C_13
REMARK    3  A    between atoms: N_16  and  C_17
REMARK    4  A    between atoms: C_17  and  C_18
REMARK    5  A    between atoms: C_18  and  C_19
REMARK                            x       y       z     vdW  Elec       q    Type
REMARK                         _______ _______ _______ _____ _____    ______ ____
ROOT
ATOM      1  C   UNL     1      -0.361  12.031  19.039  0.00  0.00    +0.000 C 
ATOM      2  C   UNL     1       1.139  12.177  18.722  0.00  0.00    +0.000 C 
ATOM      3  C   UNL     1       1.773  10.843  18.301  0.00  0.00    +0.000 C 
ATOM      4  N   UNL     1       1.507   9.702  19.192  0.00  0.00    +0.000 NA
ATOM      5  C   UNL     1       0.110   9.638  19.666  0.00  0.00    +0.000 C 
ATOM      6  C   UNL     1      -0.464  10.975  20.134  0.00  0.00    +0.000 C 
ENDROOT
BRANCH   1  12
ATOM      7  O   UNL     1      -2.543  11.373  16.211  0.00  0.00    +0.000 OA
ATOM      8  C   UNL     1      -2.391  11.591  17.409  0.00  0.00    +0.000 C 
ATOM      9  N   UNL     1      -3.393  11.716  18.323  0.00  0.00    +0.000 N 
ATOM     10  C   UNL     1      -4.734  11.472  18.023  0.00  0.00    +0.000 C 
ATOM     11  O   UNL     1      -5.161  11.175  16.910  0.00  0.00    +0.000 OA
ATOM     12  N   UNL     1      -1.104  11.712  17.804  0.00  0.00    +0.000 N 
ATOM     13  H   UNL     1      -3.139  11.994  19.253  0.00  0.00    +0.000 HD
ATOM     14  H   UNL     1      -0.530  11.618  16.976  0.00  0.00    +0.000 HD
BRANCH  10  15
ATOM     15  C   UNL     1      -5.709  11.645  19.205  0.00  0.00    +0.000 C 
ATOM     16  C   UNL     1      -5.387  12.882  20.081  0.00  0.00    +0.000 C 
ATOM     17  C   UNL     1      -5.844  14.223  19.491  0.00  0.00    +0.000 C 
ATOM     18  C   UNL     1      -7.280  14.184  18.981  0.00  0.00    +0.000 C 
ATOM     19  C   UNL     1      -7.490  13.008  18.037  0.00  0.00    +0.000 C 
ATOM     20  C   UNL     1      -7.172  11.695  18.750  0.00  0.00    +0.000 C 
ENDBRANCH  10  15
ENDBRANCH   1  12
BRANCH   4  21
ATOM     21  C   UNL     1       1.828   8.413  18.504  0.00  0.00    +0.000 C 
BRANCH  21  22
ATOM     22  C   UNL     1       2.511   7.338  19.378  0.00  0.00    +0.000 C 
BRANCH  22  23
ATOM     23  C   UNL     1       2.807   6.064  18.636  0.00  0.00    +0.000 A 
ATOM     24  C   UNL     1       3.751   5.866  17.648  0.00  0.00    +0.000 A 
ATOM     25  N   UNL     1       3.695   4.557  17.243  0.00  0.00    +0.000 N 
ATOM     26  C   UNL     1       2.758   3.870  17.980  0.00  0.00    +0.000 A 
ATOM     27  C   UNL     1       2.375   2.525  17.934  0.00  0.00    +0.000 A 
ATOM     28  C   UNL     1       1.405   2.095  18.842  0.00  0.00    +0.000 A 
ATOM     29  C   UNL     1       0.831   2.980  19.752  0.00  0.00    +0.000 A 
ATOM     30  C   UNL     1       1.210   4.326  19.770  0.00  0.00    +0.000 A 
ATOM     31  C   UNL     1       2.191   4.785  18.868  0.00  0.00    +0.000 A 
ATOM     32  H   UNL     1       4.280   4.140  16.530  0.00  0.00    +0.000 HD
ENDBRANCH  22  23
ENDBRANCH  21  22
ENDBRANCH   4  21
TORSDOF 5
ENDMDL
MODEL 8
REMARK VINA RESULT:      -8.3      4.690      7.900
REMARK  Name = 
REMARK  5 active torsions:
REMARK  status: ('A' for Active; 'I' for Inactive)
REMARK    1  A    between atoms: C_4  and  C_6
REMARK    2  A    between atoms: N_12  and  C_13
REMARK    3  A    between atoms: N_16  and  C_17
REMARK    4  A    between atoms: C_17  and  C_18
REMARK    5  A    between atoms: C_18  and  C_19
REMARK                            x       y       z     vdW  Elec       q    Type
REMARK                         _______ _______ _______ _____ _____    ______ ____
ROOT
ATOM      1  C   UNL     1       1.642   2.503  19.363  0.00  0.00    +0.000 C 
ATOM      2  C   UNL     1       1.596   3.299  18.045  0.00  0.00    +0.000 C 
ATOM      3  C   UNL     1       2.072   4.749  18.229  0.00  0.00    +0.000 C 
ATOM      4  N   UNL     1       1.451   5.487  19.341  0.00  0.00    +0.000 NA
ATOM      5  C   UNL     1       1.312   4.686  20.574  0.00  0.00    +0.000 C 
ATOM      6  C   UNL     1       0.776   3.271  20.356  0.00  0.00    +0.000 C 
ENDROOT
BRANCH   1  12
ATOM      7  O   UNL     1       5.174   2.420  20.211  0.00  0.00    +0.000 OA
ATOM      8  C   UNL     1       4.248   2.886  19.552  0.00  0.00    +0.000 C 
ATOM      9  N   UNL     1       4.353   3.897  18.646  0.00  0.00    +0.000 N 
ATOM     10  C   UNL     1       5.575   4.444  18.252  0.00  0.00    +0.000 C 
ATOM     11  O   UNL     1       6.669   4.119  18.708  0.00  0.00    +0.000 OA
ATOM     12  N   UNL     1       3.044   2.316  19.784  0.00  0.00    +0.000 N 
ATOM     13  H   UNL     1       3.503   4.252  18.249  0.00  0.00    +0.000 HD
ATOM     14  H   UNL     1       3.181   1.618  20.504  0.00  0.00    +0.000 HD
BRANCH  10  15
ATOM     15  C   UNL     1       5.479   5.562  17.195  0.00  0.00    +0.000 C 
ATOM     16  C   UNL     1       6.863   6.116  16.771  0.00  0.00    +0.000 C 
ATOM     17  C   UNL     1       7.634   5.231  15.782  0.00  0.00    +0.000 C 
ATOM     18  C   UNL     1       6.772   4.762  14.616  0.00  0.00    +0.000 C 
ATOM     19  C   UNL     1       5.481   4.127  15.115  0.00  0.00    +0.000 C 
ATOM     20  C   UNL     1       4.690   5.127  15.955  0.00  0.00    +0.000 C 
ENDBRANCH  10  15
ENDBRANCH   1  12
BRANCH   4  21
ATOM     21  C   UNL     1       2.246   6.712  19.665  0.00  0.00    +0.000 C 
BRANCH  21  22
ATOM     22  C   UNL     1       1.753   7.530  20.879  0.00  0.00    +0.000 C 
BRANCH  22  23
ATOM     23  C   UNL     1       1.103   8.831  20.499  0.00  0.00    +0.000 A 
ATOM     24  C   UNL     1       1.127   9.455  19.268  0.00  0.00    +0.000 A 
ATOM     25  N   UNL     1       0.404  10.618  19.349  0.00  0.00    +0.000 N 
ATOM     26  C   UNL     1      -0.138  10.753  20.606  0.00  0.00    +0.000 A 
ATOM     27  C   UNL     1      -0.956  11.757  21.139  0.00  0.00    +0.000 A 
ATOM     28  C   UNL     1      -1.390  11.608  22.458  0.00  0.00    +0.000 A 
ATOM     29  C   UNL     1      -1.010  10.505  23.219  0.00  0.00    +0.000 A 
ATOM     30  C   UNL     1      -0.174   9.522  22.678  0.00  0.00    +0.000 A 
ATOM     31  C   UNL     1       0.273   9.644  21.347  0.00  0.00    +0.000 A 
ATOM     32  H   UNL     1       0.258  11.270  18.590  0.00  0.00    +0.000 HD
ENDBRANCH  22  23
ENDBRANCH  21  22
ENDBRANCH   4  21
TORSDOF 5
ENDMDL
MODEL 9
REMARK VINA RESULT:      -8.3      7.030     10.647
REMARK  Name = 
REMARK  5 active torsions:
REMARK  status: ('A' for Active; 'I' for Inactive)
REMARK    1  A    between atoms: C_4  and  C_6
REMARK    2  A    between atoms: N_12  and  C_13
REMARK    3  A    between atoms: N_16  and  C_17
REMARK    4  A    between atoms: C_17  and  C_18
REMARK    5  A    between atoms: C_18  and  C_19
REMARK                            x       y       z     vdW  Elec       q    Type
REMARK                         _______ _______ _______ _____ _____    ______ ____
ROOT
ATOM      1  C   UNL     1      -0.918  11.601  19.507  0.00  0.00    +0.000 C 
ATOM      2  C   UNL     1       0.384  12.082  18.841  0.00  0.00    +0.000 C 
ATOM      3  C   UNL     1       1.262  10.910  18.374  0.00  0.00    +0.000 C 
ATOM      4  N   UNL     1       1.510   9.862  19.377  0.00  0.00    +0.000 NA
ATOM      5  C   UNL     1       0.314   9.506  20.165  0.00  0.00    +0.000 C 
ATOM      6  C   UNL     1      -0.498  10.701  20.664  0.00  0.00    +0.000 C 
ENDROOT
BRANCH   1  12
ATOM      7  O   UNL     1      -3.316  10.327  17.094  0.00  0.00    +0.000 OA
ATOM      8  C   UNL     1      -3.039  11.080  18.023  0.00  0.00    +0.000 C 
ATOM      9  N   UNL     1      -3.880  12.000  18.573  0.00  0.00    +0.000 N 
ATOM     10  C   UNL     1      -5.228  12.104  18.226  0.00  0.00    +0.000 C 
ATOM     11  O   UNL     1      -5.785  11.427  17.365  0.00  0.00    +0.000 OA
ATOM     12  N   UNL     1      -1.782  10.950  18.503  0.00  0.00    +0.000 N 
ATOM     13  H   UNL     1      -3.498  12.623  19.261  0.00  0.00    +0.000 HD
ATOM     14  H   UNL     1      -1.323  10.244  17.942  0.00  0.00    +0.000 HD
BRANCH  10  15
ATOM     15  C   UNL     1      -6.014  13.193  18.983  0.00  0.00    +0.000 C 
ATOM     16  C   UNL     1      -7.493  12.807  19.237  0.00  0.00    +0.000 C 
ATOM     17  C   UNL     1      -7.711  11.826  20.397  0.00  0.00    +0.000 C 
ATOM     18  C   UNL     1      -6.951  12.225  21.657  0.00  0.00    +0.000 C 
ATOM     19  C   UNL     1      -5.482  12.478  21.348  0.00  0.00    +0.000 C 
ATOM     20  C   UNL     1      -5.343  13.584  20.305  0.00  0.00    +0.000 C 
ENDBRANCH  10  15
ENDBRANCH   1  12
BRANCH   4  21
ATOM     21  C   UNL     1       2.026   8.620  18.720  0.00  0.00    +0.000 C 
BRANCH  21  22
ATOM     22  C   UNL     1       2.187   7.391  19.642  0.00  0.00    +0.000 C 
BRANCH  22  23
ATOM     23  C   UNL     1       2.553   6.134  18.904  0.00  0.00    +0.000 A 
ATOM     24  C   UNL     1       3.448   6.002  17.860  0.00  0.00    +0.000 A 
ATOM     25  N   UNL     1       3.490   4.685  17.480  0.00  0.00    +0.000 N 
ATOM     26  C   UNL     1       2.669   3.931  18.287  0.00  0.00    +0.000 A 
ATOM     27  C   UNL     1       2.411   2.555  18.288  0.00  0.00    +0.000 A 
ATOM     28  C   UNL     1       1.545   2.058  19.264  0.00  0.00    +0.000 A 
ATOM     29  C   UNL     1       0.949   2.906  20.194  0.00  0.00    +0.000 A 
ATOM     30  C   UNL     1       1.200   4.282  20.166  0.00  0.00    +0.000 A 
ATOM     31  C   UNL     1       2.076   4.809  19.196  0.00  0.00    +0.000 A 
ATOM     32  H   UNL     1       4.065   4.308  16.738  0.00  0.00    +0.000 HD
ENDBRANCH  22  23
ENDBRANCH  21  22
ENDBRANCH   4  21
TORSDOF 5
ENDMDL
