MODEL 1
REMARK VINA RESULT:      -7.0      0.000      0.000
REMARK  Name = 
REMARK  6 active torsions:
REMARK  status: ('A' for Active; 'I' for Inactive)
REMARK    1  A    between atoms: C_1  and  C_2
REMARK    2  A    between atoms: C_2  and  S_3
REMARK    3  A    between atoms: S_3  and  C_6
REMARK    4  A    between atoms: C_8  and  S_9
REMARK    5  A    between atoms: S_9  and  C_12
REMARK    6  A    between atoms: C_19  and  N_20
REMARK                            x       y       z     vdW  Elec       q    Type
REMARK                         _______ _______ _______ _____ _____    ______ ____
ROOT
ATOM      1  C   UNL     1       5.522   6.170  18.237  0.00  0.00    +0.000 A 
ATOM      2  N   UNL     1       4.697   7.121  17.851  0.00  0.00    +0.000 NA
ATOM      3  C   UNL     1       3.381   6.765  18.186  0.00  0.00    +0.000 A 
ATOM      4  C   UNL     1       3.233   5.554  18.876  0.00  0.00    +0.000 A 
ATOM      5  S   UNL     1       4.830   4.900  19.124  0.00  0.00    +0.000 S 
ENDROOT
BRANCH   4   6
ATOM      6  N   UNL     1       2.116   4.899  19.337  0.00  0.00    +0.000 N 
ATOM      7  C   UNL     1       1.763   4.814  20.769  0.00  0.00    +0.000 C 
ATOM      8  C   UNL     1       1.919   3.379  21.293  0.00  0.00    +0.000 C 
ATOM      9  O   UNL     1       1.146   2.453  20.514  0.00  0.00    +0.000 OA
ATOM     10  C   UNL     1       1.583   2.475  19.151  0.00  0.00    +0.000 C 
ATOM     11  C   UNL     1       1.443   3.869  18.522  0.00  0.00    +0.000 C 
ENDBRANCH   4   6
BRANCH   1  12
ATOM     12  S   UNL     1       7.268   6.110  17.888  0.00  0.00    +0.000 S 
ATOM     13  O   UNL     1       7.918   6.056  19.183  0.00  0.00    +0.000 OA
ATOM     14  O   UNL     1       7.550   7.177  16.945  0.00  0.00    +0.000 OA
BRANCH  12  16
ATOM     15  C   UNL     1       6.601   4.439  15.840  0.00  0.00    +0.000 C 
ATOM     16  C   UNL     1       7.495   4.545  17.065  0.00  0.00    +0.000 C 
ENDBRANCH  12  16
ENDBRANCH   1  12
BRANCH   3  17
ATOM     17  S   UNL     1       2.080   7.882  17.821  0.00  0.00    +0.000 S 
ATOM     18  O   UNL     1       2.666   8.973  17.066  0.00  0.00    +0.000 OA
ATOM     19  O   UNL     1       1.017   7.049  17.295  0.00  0.00    +0.000 OA
BRANCH  17  20
ATOM     20  C   UNL     1       1.520   8.614  19.338  0.00  0.00    +0.000 A 
ATOM     21  C   UNL     1       0.658   9.718  19.293  0.00  0.00    +0.000 A 
ATOM     22  C   UNL     1       0.104  10.207  20.477  0.00  0.00    +0.000 A 
ATOM     23  C   UNL     1       0.401   9.587  21.691  0.00  0.00    +0.000 A 
ATOM     24 CL   UNL     1      -0.315  10.167  23.144  0.00  0.00    +0.000 Cl
ATOM     25  C   UNL     1       1.257   8.485  21.735  0.00  0.00    +0.000 A 
ATOM     26  C   UNL     1       1.821   7.994  20.555  0.00  0.00    +0.000 A 
ENDBRANCH  17  20
ENDBRANCH   3  17
TORSDOF 5
ENDMDL
MODEL 2
REMARK VINA RESULT:      -7.0      2.074      5.292
REMARK  Name = 
REMARK  6 active torsions:
REMARK  status: ('A' for Active; 'I' for Inactive)
REMARK    1  A    between atoms: C_1  and  C_2
REMARK    2  A    between atoms: C_2  and  S_3
REMARK    3  A    between atoms: S_3  and  C_6
REMARK    4  A    between atoms: C_8  and  S_9
REMARK    5  A    between atoms: S_9  and  C_12
REMARK    6  A    between atoms: C_19  and  N_20
REMARK                            x       y       z     vdW  Elec       q    Type
REMARK                         _______ _______ _______ _____ _____    ______ ____
ROOT
ATOM      1  C   UNL     1       2.544   3.313  18.432  0.00  0.00    +0.000 A 
ATOM      2  N   UNL     1       2.635   4.626  18.415  0.00  0.00    +0.000 NA
ATOM      3  C   UNL     1       3.832   5.005  17.786  0.00  0.00    +0.000 A 
ATOM      4  C   UNL     1       4.616   3.956  17.285  0.00  0.00    +0.000 A 
ATOM      5  S   UNL     1       3.761   2.471  17.601  0.00  0.00    +0.000 S 
ENDROOT
BRANCH   4   6
ATOM      6  N   UNL     1       5.830   3.955  16.640  0.00  0.00    +0.000 N 
ATOM      7  C   UNL     1       7.052   4.553  17.217  0.00  0.00    +0.000 C 
ATOM      8  C   UNL     1       7.471   5.812  16.442  0.00  0.00    +0.000 C 
ATOM      9  O   UNL     1       7.643   5.529  15.045  0.00  0.00    +0.000 OA
ATOM     10  C   UNL     1       6.413   5.056  14.485  0.00  0.00    +0.000 C 
ATOM     11  C   UNL     1       5.918   3.777  15.177  0.00  0.00    +0.000 C 
ENDBRANCH   4   6
BRANCH   1  12
ATOM     12  S   UNL     1       1.276   2.374  19.261  0.00  0.00    +0.000 S 
ATOM     13  O   UNL     1       1.905   1.122  19.633  0.00  0.00    +0.000 OA
ATOM     14  O   UNL     1       0.100   2.406  18.412  0.00  0.00    +0.000 OA
BRANCH  12  16
ATOM     15  C   UNL     1       2.083   3.193  21.733  0.00  0.00    +0.000 C 
ATOM     16  C   UNL     1       0.938   3.309  20.740  0.00  0.00    +0.000 C 
ENDBRANCH  12  16
ENDBRANCH   1  12
BRANCH   3  17
ATOM     17  S   UNL     1       4.185   6.711  17.588  0.00  0.00    +0.000 S 
ATOM     18  O   UNL     1       5.334   6.999  18.425  0.00  0.00    +0.000 OA
ATOM     19  O   UNL     1       4.188   6.921  16.154  0.00  0.00    +0.000 OA
BRANCH  17  20
ATOM     20  C   UNL     1       2.851   7.650  18.291  0.00  0.00    +0.000 A 
ATOM     21  C   UNL     1       2.450   7.395  19.609  0.00  0.00    +0.000 A 
ATOM     22  C   UNL     1       1.501   8.223  20.211  0.00  0.00    +0.000 A 
ATOM     23  C   UNL     1       0.972   9.302  19.504  0.00  0.00    +0.000 A 
ATOM     24 CL   UNL     1      -0.167  10.345  20.262  0.00  0.00    +0.000 Cl
ATOM     25  C   UNL     1       1.376   9.558  18.192  0.00  0.00    +0.000 A 
ATOM     26  C   UNL     1       2.320   8.730  17.580  0.00  0.00    +0.000 A 
ENDBRANCH  17  20
ENDBRANCH   3  17
TORSDOF 5
ENDMDL
MODEL 3
REMARK VINA RESULT:      -6.9      4.838      8.547
REMARK  Name = 
REMARK  6 active torsions:
REMARK  status: ('A' for Active; 'I' for Inactive)
REMARK    1  A    between atoms: C_1  and  C_2
REMARK    2  A    between atoms: C_2  and  S_3
REMARK    3  A    between atoms: S_3  and  C_6
REMARK    4  A    between atoms: C_8  and  S_9
REMARK    5  A    between atoms: S_9  and  C_12
REMARK    6  A    between atoms: C_19  and  N_20
REMARK                            x       y       z     vdW  Elec       q    Type
REMARK                         _______ _______ _______ _____ _____    ______ ____
ROOT
ATOM      1  C   UNL     1      -2.024  10.948  18.416  0.00  0.00    +0.000 A 
ATOM      2  N   UNL     1      -1.526  10.024  19.212  0.00  0.00    +0.000 NA
ATOM      3  C   UNL     1      -0.309  10.473  19.748  0.00  0.00    +0.000 A 
ATOM      4  C   UNL     1       0.077  11.771  19.382  0.00  0.00    +0.000 A 
ATOM      5  S   UNL     1      -1.182  12.420  18.367  0.00  0.00    +0.000 S 
ENDROOT
BRANCH   4   6
ATOM      6  N   UNL     1       1.191  12.512  19.698  0.00  0.00    +0.000 N 
ATOM      7  C   UNL     1       1.178  13.605  20.692  0.00  0.00    +0.000 C 
ATOM      8  C   UNL     1       1.365  14.971  20.014  0.00  0.00    +0.000 C 
ATOM      9  O   UNL     1       2.565  15.002  19.227  0.00  0.00    +0.000 OA
ATOM     10  C   UNL     1       2.503  14.005  18.200  0.00  0.00    +0.000 C 
ATOM     11  C   UNL     1       2.342  12.591  18.778  0.00  0.00    +0.000 C 
ENDBRANCH   4   6
BRANCH   1  12
ATOM     12  S   UNL     1      -3.474  10.763  17.396  0.00  0.00    +0.000 S 
ATOM     13  O   UNL     1      -4.387  11.802  17.832  0.00  0.00    +0.000 OA
ATOM     14  O   UNL     1      -3.848   9.362  17.439  0.00  0.00    +0.000 OA
BRANCH  12  16
ATOM     15  C   UNL     1      -3.094   9.971  14.815  0.00  0.00    +0.000 C 
ATOM     16  C   UNL     1      -2.903  11.152  15.753  0.00  0.00    +0.000 C 
ENDBRANCH  12  16
ENDBRANCH   1  12
BRANCH   3  17
ATOM     17  S   UNL     1       0.550   9.448  20.882  0.00  0.00    +0.000 S 
ATOM     18  O   UNL     1       1.464  10.307  21.610  0.00  0.00    +0.000 OA
ATOM     19  O   UNL     1      -0.487   8.675  21.535  0.00  0.00    +0.000 OA
BRANCH  17  20
ATOM     20  C   UNL     1       1.587   8.336  19.966  0.00  0.00    +0.000 A 
ATOM     21  C   UNL     1       1.861   7.064  20.487  0.00  0.00    +0.000 A 
ATOM     22  C   UNL     1       2.556   6.138  19.709  0.00  0.00    +0.000 A 
ATOM     23  C   UNL     1       2.959   6.478  18.418  0.00  0.00    +0.000 A 
ATOM     24 CL   UNL     1       3.781   5.319  17.446  0.00  0.00    +0.000 Cl
ATOM     25  C   UNL     1       2.683   7.744  17.898  0.00  0.00    +0.000 A 
ATOM     26  C   UNL     1       1.993   8.679  18.673  0.00  0.00    +0.000 A 
ENDBRANCH  17  20
ENDBRANCH   3  17
TORSDOF 5
ENDMDL
MODEL 4
REMARK VINA RESULT:      -6.8      1.414      4.561
REMARK  Name = 
REMARK  6 active torsions:
REMARK  status: ('A' for Active; 'I' for Inactive)
REMARK    1  A    between atoms: C_1  and  C_2
REMARK    2  A    between atoms: C_2  and  S_3
REMARK    3  A    between atoms: S_3  and  C_6
REMARK    4  A    between atoms: C_8  and  S_9
REMARK    5  A    between atoms: S_9  and  C_12
REMARK    6  A    between atoms: C_19  and  N_20
REMARK                            x       y       z     vdW  Elec       q    Type
REMARK                         _______ _______ _______ _____ _____    ______ ____
ROOT
ATOM      1  C   UNL     1       2.931   4.564  19.697  0.00  0.00    +0.000 A 
ATOM      2  N   UNL     1       2.235   5.667  19.522  0.00  0.00    +0.000 NA
ATOM      3  C   UNL     1       2.908   6.508  18.621  0.00  0.00    +0.000 A 
ATOM      4  C   UNL     1       4.096   5.998  18.082  0.00  0.00    +0.000 A 
ATOM      5  S   UNL     1       4.311   4.392  18.725  0.00  0.00    +0.000 S 
ENDROOT
BRANCH   4   6
ATOM      6  N   UNL     1       5.003   6.540  17.202  0.00  0.00    +0.000 N 
ATOM      7  C   UNL     1       5.114   6.114  15.792  0.00  0.00    +0.000 C 
ATOM      8  C   UNL     1       6.431   5.364  15.542  0.00  0.00    +0.000 C 
ATOM      9  O   UNL     1       7.563   6.155  15.934  0.00  0.00    +0.000 OA
ATOM     10  C   UNL     1       7.488   6.459  17.331  0.00  0.00    +0.000 C 
ATOM     11  C   UNL     1       6.211   7.238  17.684  0.00  0.00    +0.000 C 
ENDBRANCH   4   6
BRANCH   1  12
ATOM     12  S   UNL     1       2.550   3.274  20.866  0.00  0.00    +0.000 S 
ATOM     13  O   UNL     1       2.315   3.953  22.126  0.00  0.00    +0.000 OA
ATOM     14  O   UNL     1       3.582   2.263  20.735  0.00  0.00    +0.000 OA
BRANCH  12  16
ATOM     15  C   UNL     1       1.053   2.353  18.782  0.00  0.00    +0.000 C 
ATOM     16  C   UNL     1       1.008   2.597  20.282  0.00  0.00    +0.000 C 
ENDBRANCH  12  16
ENDBRANCH   1  12
BRANCH   3  17
ATOM     17  S   UNL     1       2.173   8.036  18.175  0.00  0.00    +0.000 S 
ATOM     18  O   UNL     1       3.255   8.929  17.810  0.00  0.00    +0.000 OA
ATOM     19  O   UNL     1       1.110   7.678  17.258  0.00  0.00    +0.000 OA
BRANCH  17  20
ATOM     20  C   UNL     1       1.444   8.758  19.624  0.00  0.00    +0.000 A 
ATOM     21  C   UNL     1       0.565   9.841  19.486  0.00  0.00    +0.000 A 
ATOM     22  C   UNL     1      -0.118  10.319  20.605  0.00  0.00    +0.000 A 
ATOM     23  C   UNL     1       0.067   9.709  21.845  0.00  0.00    +0.000 A 
ATOM     24 CL   UNL     1      -0.807  10.275  23.215  0.00  0.00    +0.000 Cl
ATOM     25  C   UNL     1       0.940   8.628  21.982  0.00  0.00    +0.000 A 
ATOM     26  C   UNL     1       1.633   8.148  20.868  0.00  0.00    +0.000 A 
ENDBRANCH  17  20
ENDBRANCH   3  17
TORSDOF 5
ENDMDL
MODEL 5
REMARK VINA RESULT:      -6.8      3.192      6.679
REMARK  Name = 
REMARK  6 active torsions:
REMARK  status: ('A' for Active; 'I' for Inactive)
REMARK    1  A    between atoms: C_1  and  C_2
REMARK    2  A    between atoms: C_2  and  S_3
REMARK    3  A    between atoms: S_3  and  C_6
REMARK    4  A    between atoms: C_8  and  S_9
REMARK    5  A    between atoms: S_9  and  C_12
REMARK    6  A    between atoms: C_19  and  N_20
REMARK                            x       y       z     vdW  Elec       q    Type
REMARK                         _______ _______ _______ _____ _____    ______ ____
ROOT
ATOM      1  C   UNL     1       2.648   7.621  18.097  0.00  0.00    +0.000 A 
ATOM      2  N   UNL     1       3.937   7.504  17.860  0.00  0.00    +0.000 NA
ATOM      3  C   UNL     1       4.355   6.200  18.171  0.00  0.00    +0.000 A 
ATOM      4  C   UNL     1       3.349   5.323  18.599  0.00  0.00    +0.000 A 
ATOM      5  S   UNL     1       1.842   6.198  18.552  0.00  0.00    +0.000 S 
ENDROOT
BRANCH   4   6
ATOM      6  N   UNL     1       3.396   4.007  18.995  0.00  0.00    +0.000 N 
ATOM      7  C   UNL     1       3.352   2.876  18.046  0.00  0.00    +0.000 C 
ATOM      8  C   UNL     1       2.031   2.100  18.170  0.00  0.00    +0.000 C 
ATOM      9  O   UNL     1       1.815   1.654  19.517  0.00  0.00    +0.000 OA
ATOM     10  C   UNL     1       1.751   2.778  20.402  0.00  0.00    +0.000 C 
ATOM     11  C   UNL     1       3.042   3.610  20.372  0.00  0.00    +0.000 C 
ENDBRANCH   4   6
BRANCH   1  12
ATOM     12  S   UNL     1       1.710   9.133  17.997  0.00  0.00    +0.000 S 
ATOM     13  O   UNL     1       0.541   8.810  17.202  0.00  0.00    +0.000 OA
ATOM     14  O   UNL     1       2.632  10.179  17.596  0.00  0.00    +0.000 OA
BRANCH  12  16
ATOM     15  C   UNL     1      -0.007  10.368  19.718  0.00  0.00    +0.000 C 
ATOM     16  C   UNL     1       1.195   9.438  19.676  0.00  0.00    +0.000 C 
ENDBRANCH  12  16
ENDBRANCH   1  12
BRANCH   3  17
ATOM     17  S   UNL     1       6.031   5.758  17.904  0.00  0.00    +0.000 S 
ATOM     18  O   UNL     1       6.777   6.997  17.805  0.00  0.00    +0.000 OA
ATOM     19  O   UNL     1       6.310   4.754  18.911  0.00  0.00    +0.000 OA
BRANCH  17  20
ATOM     20  C   UNL     1       6.168   5.003  16.303  0.00  0.00    +0.000 A 
ATOM     21  C   UNL     1       5.044   4.394  15.730  0.00  0.00    +0.000 A 
ATOM     22  C   UNL     1       5.109   3.926  14.417  0.00  0.00    +0.000 A 
ATOM     23  C   UNL     1       6.285   4.078  13.683  0.00  0.00    +0.000 A 
ATOM     24 CL   UNL     1       6.350   3.535  12.052  0.00  0.00    +0.000 Cl
ATOM     25  C   UNL     1       7.405   4.687  14.254  0.00  0.00    +0.000 A 
ATOM     26  C   UNL     1       7.349   5.153  15.569  0.00  0.00    +0.000 A 
ENDBRANCH  17  20
ENDBRANCH   3  17
TORSDOF 5
ENDMDL
MODEL 6
REMARK VINA RESULT:      -6.8      1.029      1.378
REMARK  Name = 
REMARK  6 active torsions:
REMARK  status: ('A' for Active; 'I' for Inactive)
REMARK    1  A    between atoms: C_1  and  C_2
REMARK    2  A    between atoms: C_2  and  S_3
REMARK    3  A    between atoms: S_3  and  C_6
REMARK    4  A    between atoms: C_8  and  S_9
REMARK    5  A    between atoms: S_9  and  C_12
REMARK    6  A    between atoms: C_19  and  N_20
REMARK                            x       y       z     vdW  Elec       q    Type
REMARK                         _______ _______ _______ _____ _____    ______ ____
ROOT
ATOM      1  C   UNL     1       5.514   5.880  18.408  0.00  0.00    +0.000 A 
ATOM      2  N   UNL     1       4.754   6.886  18.029  0.00  0.00    +0.000 NA
ATOM      3  C   UNL     1       3.404   6.558  18.235  0.00  0.00    +0.000 A 
ATOM      4  C   UNL     1       3.163   5.309  18.823  0.00  0.00    +0.000 A 
ATOM      5  S   UNL     1       4.712   4.579  19.146  0.00  0.00    +0.000 S 
ENDROOT
BRANCH   4   6
ATOM      6  N   UNL     1       1.991   4.667  19.148  0.00  0.00    +0.000 N 
ATOM      7  C   UNL     1       1.484   4.564  20.531  0.00  0.00    +0.000 C 
ATOM      8  C   UNL     1       1.559   3.116  21.041  0.00  0.00    +0.000 C 
ATOM      9  O   UNL     1       0.858   2.220  20.165  0.00  0.00    +0.000 OA
ATOM     10  C   UNL     1       1.441   2.257  18.857  0.00  0.00    +0.000 C 
ATOM     11  C   UNL     1       1.393   3.665  18.244  0.00  0.00    +0.000 C 
ENDBRANCH   4   6
BRANCH   1  12
ATOM     12  S   UNL     1       7.280   5.777  18.192  0.00  0.00    +0.000 S 
ATOM     13  O   UNL     1       7.487   4.726  17.214  0.00  0.00    +0.000 OA
ATOM     14  O   UNL     1       7.866   5.703  19.517  0.00  0.00    +0.000 OA
BRANCH  12  16
ATOM     15  C   UNL     1       8.398   8.247  18.472  0.00  0.00    +0.000 C 
ATOM     16  C   UNL     1       7.721   7.340  17.458  0.00  0.00    +0.000 C 
ENDBRANCH  12  16
ENDBRANCH   1  12
BRANCH   3  17
ATOM     17  S   UNL     1       2.174   7.747  17.852  0.00  0.00    +0.000 S 
ATOM     18  O   UNL     1       2.838   8.818  17.134  0.00  0.00    +0.000 OA
ATOM     19  O   UNL     1       1.086   6.979  17.281  0.00  0.00    +0.000 OA
BRANCH  17  20
ATOM     20  C   UNL     1       1.608   8.483  19.365  0.00  0.00    +0.000 A 
ATOM     21  C   UNL     1       0.809   9.634  19.314  0.00  0.00    +0.000 A 
ATOM     22  C   UNL     1       0.246  10.132  20.489  0.00  0.00    +0.000 A 
ATOM     23  C   UNL     1       0.470   9.477  21.700  0.00  0.00    +0.000 A 
ATOM     24 CL   UNL     1      -0.259  10.071  23.141  0.00  0.00    +0.000 Cl
ATOM     25  C   UNL     1       1.263   8.328  21.749  0.00  0.00    +0.000 A 
ATOM     26  C   UNL     1       1.836   7.827  20.578  0.00  0.00    +0.000 A 
ENDBRANCH  17  20
ENDBRANCH   3  17
TORSDOF 5
ENDMDL
MODEL 7
REMARK VINA RESULT:      -6.8      1.671      4.934
REMARK  Name = 
REMARK  6 active torsions:
REMARK  status: ('A' for Active; 'I' for Inactive)
REMARK    1  A    between atoms: C_1  and  C_2
REMARK    2  A    between atoms: C_2  and  S_3
REMARK    3  A    between atoms: S_3  and  C_6
REMARK    4  A    between atoms: C_8  and  S_9
REMARK    5  A    between atoms: S_9  and  C_12
REMARK    6  A    between atoms: C_19  and  N_20
REMARK                            x       y       z     vdW  Elec       q    Type
REMARK                         _______ _______ _______ _____ _____    ______ ____
ROOT
ATOM      1  C   UNL     1       2.284   3.902  18.465  0.00  0.00    +0.000 A 
ATOM      2  N   UNL     1       2.013   5.187  18.561  0.00  0.00    +0.000 NA
ATOM      3  C   UNL     1       3.073   5.932  18.018  0.00  0.00    +0.000 A 
ATOM      4  C   UNL     1       4.123   5.185  17.466  0.00  0.00    +0.000 A 
ATOM      5  S   UNL     1       3.700   3.501  17.621  0.00  0.00    +0.000 S 
ENDROOT
BRANCH   4   6
ATOM      6  N   UNL     1       5.303   5.572  16.877  0.00  0.00    +0.000 N 
ATOM      7  C   UNL     1       5.545   5.486  15.422  0.00  0.00    +0.000 C 
ATOM      8  C   UNL     1       6.590   4.408  15.097  0.00  0.00    +0.000 C 
ATOM      9  O   UNL     1       7.814   4.637  15.813  0.00  0.00    +0.000 OA
ATOM     10  C   UNL     1       7.570   4.604  17.223  0.00  0.00    +0.000 C 
ATOM     11  C   UNL     1       6.552   5.669  17.658  0.00  0.00    +0.000 C 
ENDBRANCH   4   6
BRANCH   1  12
ATOM     12  S   UNL     1       1.306   2.584  19.158  0.00  0.00    +0.000 S 
ATOM     13  O   UNL     1       2.193   1.438  19.222  0.00  0.00    +0.000 OA
ATOM     14  O   UNL     1       0.064   2.537  18.408  0.00  0.00    +0.000 OA
BRANCH  12  16
ATOM     15  C   UNL     1       2.227   3.256  21.634  0.00  0.00    +0.000 C 
ATOM     16  C   UNL     1       0.951   3.129  20.817  0.00  0.00    +0.000 C 
ENDBRANCH  12  16
ENDBRANCH   1  12
BRANCH   3  17
ATOM     17  S   UNL     1       2.949   7.680  17.978  0.00  0.00    +0.000 S 
ATOM     18  O   UNL     1       4.257   8.199  18.328  0.00  0.00    +0.000 OA
ATOM     19  O   UNL     1       2.303   7.973  16.714  0.00  0.00    +0.000 OA
BRANCH  17  20
ATOM     20  C   UNL     1       1.874   8.202  19.291  0.00  0.00    +0.000 A 
ATOM     21  C   UNL     1       1.900   7.518  20.514  0.00  0.00    +0.000 A 
ATOM     22  C   UNL     1       1.163   8.010  21.592  0.00  0.00    +0.000 A 
ATOM     23  C   UNL     1       0.421   9.182  21.450  0.00  0.00    +0.000 A 
ATOM     24 CL   UNL     1      -0.454   9.808  22.793  0.00  0.00    +0.000 Cl
ATOM     25  C   UNL     1       0.399   9.865  20.232  0.00  0.00    +0.000 A 
ATOM     26  C   UNL     1       1.128   9.375  19.146  0.00  0.00    +0.000 A 
ENDBRANCH  17  20
ENDBRANCH   3  17
TORSDOF 5
ENDMDL
MODEL 8
REMARK VINA RESULT:      -6.7      0.615      1.132
REMARK  Name = 
REMARK  6 active torsions:
REMARK  status: ('A' for Active; 'I' for Inactive)
REMARK    1  A    between atoms: C_1  and  C_2
REMARK    2  A    between atoms: C_2  and  S_3
REMARK    3  A    between atoms: S_3  and  C_6
REMARK    4  A    between atoms: C_8  and  S_9
REMARK    5  A    between atoms: S_9  and  C_12
REMARK    6  A    between atoms: C_19  and  N_20
REMARK                            x       y       z     vdW  Elec       q    Type
REMARK                         _______ _______ _______ _____ _____    ______ ____
ROOT
ATOM      1  C   UNL     1       5.518   5.930  18.820  0.00  0.00    +0.000 A 
ATOM      2  N   UNL     1       4.817   6.965  18.408  0.00  0.00    +0.000 NA
ATOM      3  C   UNL     1       3.450   6.647  18.437  0.00  0.00    +0.000 A 
ATOM      4  C   UNL     1       3.130   5.373  18.926  0.00  0.00    +0.000 A 
ATOM      5  S   UNL     1       4.625   4.605  19.390  0.00  0.00    +0.000 S 
ENDROOT
BRANCH   4   6
ATOM      6  N   UNL     1       1.924   4.732  19.078  0.00  0.00    +0.000 N 
ATOM      7  C   UNL     1       1.288   4.508  20.393  0.00  0.00    +0.000 C 
ATOM      8  C   UNL     1       1.292   3.016  20.762  0.00  0.00    +0.000 C 
ATOM      9  O   UNL     1       0.662   2.226  19.741  0.00  0.00    +0.000 OA
ATOM     10  C   UNL     1       1.365   2.376  18.503  0.00  0.00    +0.000 C 
ATOM     11  C   UNL     1       1.396   3.837  18.029  0.00  0.00    +0.000 C 
ENDBRANCH   4   6
BRANCH   1  12
ATOM     12  S   UNL     1       7.297   5.813  18.807  0.00  0.00    +0.000 S 
ATOM     13  O   UNL     1       7.663   5.354  20.133  0.00  0.00    +0.000 OA
ATOM     14  O   UNL     1       7.801   7.066  18.275  0.00  0.00    +0.000 OA
BRANCH  12  16
ATOM     15  C   UNL     1       6.907   4.756  16.324  0.00  0.00    +0.000 C 
ATOM     16  C   UNL     1       7.640   4.516  17.634  0.00  0.00    +0.000 C 
ENDBRANCH  12  16
ENDBRANCH   1  12
BRANCH   3  17
ATOM     17  S   UNL     1       2.283   7.871  17.975  0.00  0.00    +0.000 S 
ATOM     18  O   UNL     1       3.041   9.013  17.503  0.00  0.00    +0.000 OA
ATOM     19  O   UNL     1       1.324   7.170  17.145  0.00  0.00    +0.000 OA
BRANCH  17  20
ATOM     20  C   UNL     1       1.450   8.439  19.437  0.00  0.00    +0.000 A 
ATOM     21  C   UNL     1       1.825   7.925  20.686  0.00  0.00    +0.000 A 
ATOM     22  C   UNL     1       1.274   8.470  21.847  0.00  0.00    +0.000 A 
ATOM     23  C   UNL     1       0.368   9.526  21.757  0.00  0.00    +0.000 A 
ATOM     24 CL   UNL     1      -0.279  10.222  23.191  0.00  0.00    +0.000 Cl
ATOM     25  C   UNL     1      -0.003  10.040  20.512  0.00  0.00    +0.000 A 
ATOM     26  C   UNL     1       0.539   9.496  19.345  0.00  0.00    +0.000 A 
ENDBRANCH  17  20
ENDBRANCH   3  17
TORSDOF 5
ENDMDL
MODEL 9
REMARK VINA RESULT:      -6.7      2.096      2.830
REMARK  Name = 
REMARK  6 active torsions:
REMARK  status: ('A' for Active; 'I' for Inactive)
REMARK    1  A    between atoms: C_1  and  C_2
REMARK    2  A    between atoms: C_2  and  S_3
REMARK    3  A    between atoms: S_3  and  C_6
REMARK    4  A    between atoms: C_8  and  S_9
REMARK    5  A    between atoms: S_9  and  C_12
REMARK    6  A    between atoms: C_19  and  N_20
REMARK                            x       y       z     vdW  Elec       q    Type
REMARK                         _______ _______ _______ _____ _____    ______ ____
ROOT
ATOM      1  C   UNL     1       5.888   6.161  17.863  0.00  0.00    +0.000 A 
ATOM      2  N   UNL     1       4.708   6.601  18.248  0.00  0.00    +0.000 NA
ATOM      3  C   UNL     1       3.898   5.514  18.614  0.00  0.00    +0.000 A 
ATOM      4  C   UNL     1       4.505   4.252  18.546  0.00  0.00    +0.000 A 
ATOM      5  S   UNL     1       6.155   4.495  18.041  0.00  0.00    +0.000 S 
ENDROOT
BRANCH   4   6
ATOM      6  N   UNL     1       4.018   2.993  18.807  0.00  0.00    +0.000 N 
ATOM      7  C   UNL     1       3.143   2.255  17.874  0.00  0.00    +0.000 C 
ATOM      8  C   UNL     1       1.720   2.122  18.438  0.00  0.00    +0.000 C 
ATOM      9  O   UNL     1       1.730   1.505  19.734  0.00  0.00    +0.000 OA
ATOM     10  C   UNL     1       2.494   2.300  20.648  0.00  0.00    +0.000 C 
ATOM     11  C   UNL     1       3.949   2.472  20.187  0.00  0.00    +0.000 C 
ENDBRANCH   4   6
BRANCH   1  12
ATOM     12  S   UNL     1       7.188   7.161  17.165  0.00  0.00    +0.000 S 
ATOM     13  O   UNL     1       6.565   8.428  16.835  0.00  0.00    +0.000 OA
ATOM     14  O   UNL     1       7.845   6.356  16.153  0.00  0.00    +0.000 OA
BRANCH  12  16
ATOM     15  C   UNL     1       8.681   8.882  18.662  0.00  0.00    +0.000 C 
ATOM     16  C   UNL     1       8.319   7.412  18.519  0.00  0.00    +0.000 C 
ENDBRANCH  12  16
ENDBRANCH   1  12
BRANCH   3  17
ATOM     17  S   UNL     1       2.280   5.824  19.212  0.00  0.00    +0.000 S 
ATOM     18  O   UNL     1       1.362   5.249  18.247  0.00  0.00    +0.000 OA
ATOM     19  O   UNL     1       2.316   5.411  20.600  0.00  0.00    +0.000 OA
BRANCH  17  20
ATOM     20  C   UNL     1       1.980   7.573  19.154  0.00  0.00    +0.000 A 
ATOM     21  C   UNL     1       2.064   8.245  17.927  0.00  0.00    +0.000 A 
ATOM     22  C   UNL     1       1.692   9.588  17.852  0.00  0.00    +0.000 A 
ATOM     23  C   UNL     1       1.227  10.245  18.991  0.00  0.00    +0.000 A 
ATOM     24 CL   UNL     1       0.731  11.889  18.887  0.00  0.00    +0.000 Cl
ATOM     25  C   UNL     1       1.141   9.573  20.212  0.00  0.00    +0.000 A 
ATOM     26  C   UNL     1       1.517   8.231  20.297  0.00  0.00    +0.000 A 
ENDBRANCH  17  20
ENDBRANCH   3  17
TORSDOF 5
ENDMDL
