MODEL 1
REMARK VINA RESULT:      -8.8      0.000      0.000
REMARK  Name = 
REMARK  4 active torsions:
REMARK  status: ('A' for Active; 'I' for Inactive)
REMARK    1  A    between atoms: C_2  and  C_3
REMARK    2  A    between atoms: C_3  and  O_4
REMARK    3  A    between atoms: O_4  and  C_5
REMARK    4  A    between atoms: C_12  and  C_13
REMARK                            x       y       z     vdW  Elec       q    Type
REMARK                         _______ _______ _______ _____ _____    ______ ____
ROOT
ATOM      1  C   UNL     1       3.584   3.730  17.881  0.00  0.00    +0.000 A 
ATOM      2  C   UNL     1       3.784   2.399  18.264  0.00  0.00    +0.000 A 
ATOM      3  C   UNL     1       3.341   1.952  19.504  0.00  0.00    +0.000 A 
ATOM      4  C   UNL     1       2.696   2.834  20.366  0.00  0.00    +0.000 A 
ATOM      5  C   UNL     1       2.487   4.169  19.990  0.00  0.00    +0.000 A 
ATOM      6  C   UNL     1       1.854   5.070  20.856  0.00  0.00    +0.000 A 
ATOM      7  C   UNL     1       1.671   6.393  20.472  0.00  0.00    +0.000 A 
ATOM      8  C   UNL     1       2.129   6.783  19.224  0.00  0.00    +0.000 A 
ATOM      9  N   UNL     1       2.729   5.924  18.369  0.00  0.00    +0.000 NA
ATOM     10  C   UNL     1       2.923   4.638  18.729  0.00  0.00    +0.000 A 
ENDROOT
BRANCH   8  11
ATOM     11  C   UNL     1       2.014   8.167  18.772  0.00  0.00    +0.000 A 
ATOM     12  N   UNL     1       2.440   8.639  17.608  0.00  0.00    +0.000 NA
ATOM     13  N   UNL     1       2.107   9.970  17.517  0.00  0.00    +0.000 NA
ATOM     14  C   UNL     1       1.468  10.296  18.616  0.00  0.00    +0.000 A 
ATOM     15  C   UNL     1       0.860  11.508  19.049  0.00  0.00    +0.000 A 
ATOM     16  C   UNL     1       0.241  11.557  20.244  0.00  0.00    +0.000 A 
ATOM     17  C   UNL     1       0.177  10.393  21.111  0.00  0.00    +0.000 A 
ATOM     18  C   UNL     1       0.742   9.246  20.701  0.00  0.00    +0.000 A 
ATOM     19  N   UNL     1       1.388   9.196  19.461  0.00  0.00    +0.000 N 
ENDBRANCH   8  11
BRANCH   1  20
ATOM     20  O   UNL     1       4.013   4.245  16.676  0.00  0.00    +0.000 OA
BRANCH  20  21
ATOM     21  C   UNL     1       5.265   3.783  16.171  0.00  0.00    +0.000 C 
BRANCH  21  23
ATOM     22  F   UNL     1       7.487   4.421  15.812  0.00  0.00    +0.000 F 
ATOM     23  C   UNL     1       6.388   4.739  16.573  0.00  0.00    +0.000 C 
ATOM     24  C   UNL     1       6.781   4.566  18.043  0.00  0.00    +0.000 C 
ATOM     25  C   UNL     1       7.848   5.586  18.435  0.00  0.00    +0.000 C 
ATOM     26  C   UNL     1       7.396   7.006  18.098  0.00  0.00    +0.000 C 
ATOM     27  N   UNL     1       7.081   7.152  16.675  0.00  0.00    +0.000 NA
ATOM     28  C   UNL     1       6.020   6.206  16.281  0.00  0.00    +0.000 C 
ATOM     29  H   UNL     1       7.918   6.925  16.133  0.00  0.00    +0.000 HD
ENDBRANCH  21  23
ENDBRANCH  20  21
ENDBRANCH   1  20
TORSDOF 4
ENDMDL
MODEL 2
REMARK VINA RESULT:      -8.6      2.324      6.041
REMARK  Name = 
REMARK  4 active torsions:
REMARK  status: ('A' for Active; 'I' for Inactive)
REMARK    1  A    between atoms: C_2  and  C_3
REMARK    2  A    between atoms: C_3  and  O_4
REMARK    3  A    between atoms: O_4  and  C_5
REMARK    4  A    between atoms: C_12  and  C_13
REMARK                            x       y       z     vdW  Elec       q    Type
REMARK                         _______ _______ _______ _____ _____    ______ ____
ROOT
ATOM      1  C   UNL     1       1.486   6.850  20.689  0.00  0.00    +0.000 A 
ATOM      2  C   UNL     1       0.552   7.504  21.502  0.00  0.00    +0.000 A 
ATOM      3  C   UNL     1       0.151   8.801  21.205  0.00  0.00    +0.000 A 
ATOM      4  C   UNL     1       0.680   9.450  20.093  0.00  0.00    +0.000 A 
ATOM      5  C   UNL     1       1.613   8.803  19.271  0.00  0.00    +0.000 A 
ATOM      6  C   UNL     1       2.165   9.453  18.159  0.00  0.00    +0.000 A 
ATOM      7  C   UNL     1       3.100   8.800  17.365  0.00  0.00    +0.000 A 
ATOM      8  C   UNL     1       3.462   7.507  17.705  0.00  0.00    +0.000 A 
ATOM      9  N   UNL     1       2.929   6.859  18.766  0.00  0.00    +0.000 NA
ATOM     10  C   UNL     1       2.026   7.481  19.553  0.00  0.00    +0.000 A 
ENDROOT
BRANCH   8  11
ATOM     11  C   UNL     1       4.474   6.777  16.946  0.00  0.00    +0.000 A 
ATOM     12  N   UNL     1       4.586   6.759  15.624  0.00  0.00    +0.000 NA
ATOM     13  N   UNL     1       5.688   6.013  15.280  0.00  0.00    +0.000 NA
ATOM     14  C   UNL     1       6.248   5.595  16.391  0.00  0.00    +0.000 A 
ATOM     15  C   UNL     1       7.423   4.833  16.645  0.00  0.00    +0.000 A 
ATOM     16  C   UNL     1       7.783   4.560  17.914  0.00  0.00    +0.000 A 
ATOM     17  C   UNL     1       6.995   5.030  19.041  0.00  0.00    +0.000 A 
ATOM     18  C   UNL     1       5.891   5.757  18.804  0.00  0.00    +0.000 A 
ATOM     19  N   UNL     1       5.516   6.037  17.486  0.00  0.00    +0.000 N 
ENDBRANCH   8  11
BRANCH   1  20
ATOM     20  O   UNL     1       1.943   5.573  20.936  0.00  0.00    +0.000 OA
BRANCH  20  21
ATOM     21  C   UNL     1       1.083   4.488  20.588  0.00  0.00    +0.000 C 
BRANCH  21  23
ATOM     22  F   UNL     1       1.333   2.235  20.010  0.00  0.00    +0.000 F 
ATOM     23  C   UNL     1       1.823   3.482  19.706  0.00  0.00    +0.000 C 
ATOM     24  C   UNL     1       3.326   3.470  19.998  0.00  0.00    +0.000 C 
ATOM     25  C   UNL     1       4.047   2.515  19.050  0.00  0.00    +0.000 C 
ATOM     26  C   UNL     1       3.722   2.842  17.593  0.00  0.00    +0.000 C 
ATOM     27  N   UNL     1       2.282   2.791  17.334  0.00  0.00    +0.000 NA
ATOM     28  C   UNL     1       1.565   3.739  18.209  0.00  0.00    +0.000 C 
ATOM     29  H   UNL     1       1.945   1.850  17.554  0.00  0.00    +0.000 HD
ENDBRANCH  21  23
ENDBRANCH  20  21
ENDBRANCH   1  20
TORSDOF 4
ENDMDL
MODEL 3
REMARK VINA RESULT:      -8.5      2.543      6.988
REMARK  Name = 
REMARK  4 active torsions:
REMARK  status: ('A' for Active; 'I' for Inactive)
REMARK    1  A    between atoms: C_2  and  C_3
REMARK    2  A    between atoms: C_3  and  O_4
REMARK    3  A    between atoms: O_4  and  C_5
REMARK    4  A    between atoms: C_12  and  C_13
REMARK                            x       y       z     vdW  Elec       q    Type
REMARK                         _______ _______ _______ _____ _____    ______ ____
ROOT
ATOM      1  C   UNL     1       2.391   5.693  19.451  0.00  0.00    +0.000 A 
ATOM      2  C   UNL     1       1.339   5.284  20.279  0.00  0.00    +0.000 A 
ATOM      3  C   UNL     1       0.958   3.948  20.321  0.00  0.00    +0.000 A 
ATOM      4  C   UNL     1       1.627   3.015  19.535  0.00  0.00    +0.000 A 
ATOM      5  C   UNL     1       2.685   3.413  18.705  0.00  0.00    +0.000 A 
ATOM      6  C   UNL     1       3.355   2.485  17.897  0.00  0.00    +0.000 A 
ATOM      7  C   UNL     1       4.389   2.902  17.068  0.00  0.00    +0.000 A 
ATOM      8  C   UNL     1       4.729   4.244  17.069  0.00  0.00    +0.000 A 
ATOM      9  N   UNL     1       4.104   5.152  17.853  0.00  0.00    +0.000 NA
ATOM     10  C   UNL     1       3.091   4.766  18.657  0.00  0.00    +0.000 A 
ENDROOT
BRANCH   8  11
ATOM     11  C   UNL     1       5.774   4.763  16.189  0.00  0.00    +0.000 A 
ATOM     12  N   UNL     1       6.760   5.573  16.552  0.00  0.00    +0.000 NA
ATOM     13  N   UNL     1       7.575   5.797  15.468  0.00  0.00    +0.000 NA
ATOM     14  C   UNL     1       7.090   5.113  14.458  0.00  0.00    +0.000 A 
ATOM     15  C   UNL     1       7.537   4.935  13.118  0.00  0.00    +0.000 A 
ATOM     16  C   UNL     1       6.842   4.142  12.280  0.00  0.00    +0.000 A 
ATOM     17  C   UNL     1       5.635   3.459  12.714  0.00  0.00    +0.000 A 
ATOM     18  C   UNL     1       5.217   3.619  13.980  0.00  0.00    +0.000 A 
ATOM     19  N   UNL     1       5.937   4.444  14.849  0.00  0.00    +0.000 N 
ENDBRANCH   8  11
BRANCH   1  20
ATOM     20  O   UNL     1       2.808   7.003  19.346  0.00  0.00    +0.000 OA
BRANCH  20  21
ATOM     21  C   UNL     1       2.434   7.721  18.171  0.00  0.00    +0.000 C 
BRANCH  21  23
ATOM     22  F   UNL     1       2.489  10.057  18.290  0.00  0.00    +0.000 F 
ATOM     23  C   UNL     1       1.663   8.988  18.542  0.00  0.00    +0.000 C 
ATOM     24  C   UNL     1       1.309   9.020  20.031  0.00  0.00    +0.000 C 
ATOM     25  C   UNL     1       0.473  10.256  20.355  0.00  0.00    +0.000 C 
ATOM     26  C   UNL     1      -0.751  10.342  19.446  0.00  0.00    +0.000 C 
ATOM     27  N   UNL     1      -0.376  10.365  18.030  0.00  0.00    +0.000 NA
ATOM     28  C   UNL     1       0.397   9.157  17.680  0.00  0.00    +0.000 C 
ATOM     29  H   UNL     1       0.226  11.177  17.867  0.00  0.00    +0.000 HD
ENDBRANCH  21  23
ENDBRANCH  20  21
ENDBRANCH   1  20
TORSDOF 4
ENDMDL
MODEL 4
REMARK VINA RESULT:      -8.4      2.561      6.979
REMARK  Name = 
REMARK  4 active torsions:
REMARK  status: ('A' for Active; 'I' for Inactive)
REMARK    1  A    between atoms: C_2  and  C_3
REMARK    2  A    between atoms: C_3  and  O_4
REMARK    3  A    between atoms: O_4  and  C_5
REMARK    4  A    between atoms: C_12  and  C_13
REMARK                            x       y       z     vdW  Elec       q    Type
REMARK                         _______ _______ _______ _____ _____    ______ ____
ROOT
ATOM      1  C   UNL     1       2.354   5.846  19.405  0.00  0.00    +0.000 A 
ATOM      2  C   UNL     1       1.294   5.458  20.234  0.00  0.00    +0.000 A 
ATOM      3  C   UNL     1       0.921   4.121  20.315  0.00  0.00    +0.000 A 
ATOM      4  C   UNL     1       1.604   3.167  19.568  0.00  0.00    +0.000 A 
ATOM      5  C   UNL     1       2.669   3.544  18.738  0.00  0.00    +0.000 A 
ATOM      6  C   UNL     1       3.354   2.594  17.968  0.00  0.00    +0.000 A 
ATOM      7  C   UNL     1       4.396   2.991  17.139  0.00  0.00    +0.000 A 
ATOM      8  C   UNL     1       4.729   4.334  17.100  0.00  0.00    +0.000 A 
ATOM      9  N   UNL     1       4.089   5.264  17.846  0.00  0.00    +0.000 NA
ATOM     10  C   UNL     1       3.069   4.898  18.650  0.00  0.00    +0.000 A 
ENDROOT
BRANCH   8  11
ATOM     11  C   UNL     1       5.781   4.830  16.216  0.00  0.00    +0.000 A 
ATOM     12  N   UNL     1       6.779   5.629  16.573  0.00  0.00    +0.000 NA
ATOM     13  N   UNL     1       7.597   5.833  15.487  0.00  0.00    +0.000 NA
ATOM     14  C   UNL     1       7.103   5.147  14.483  0.00  0.00    +0.000 A 
ATOM     15  C   UNL     1       7.548   4.950  13.145  0.00  0.00    +0.000 A 
ATOM     16  C   UNL     1       6.841   4.160  12.314  0.00  0.00    +0.000 A 
ATOM     17  C   UNL     1       5.625   3.498  12.752  0.00  0.00    +0.000 A 
ATOM     18  C   UNL     1       5.209   3.674  14.017  0.00  0.00    +0.000 A 
ATOM     19  N   UNL     1       5.941   4.497  14.879  0.00  0.00    +0.000 N 
ENDBRANCH   8  11
BRANCH   1  20
ATOM     20  O   UNL     1       2.765   7.154  19.263  0.00  0.00    +0.000 OA
BRANCH  20  21
ATOM     21  C   UNL     1       2.347   7.851  18.090  0.00  0.00    +0.000 C 
BRANCH  21  23
ATOM     22  F   UNL     1       0.373   9.050  17.718  0.00  0.00    +0.000 F 
ATOM     23  C   UNL     1       1.525   9.084  18.467  0.00  0.00    +0.000 C 
ATOM     24  C   UNL     1       2.259  10.382  18.123  0.00  0.00    +0.000 C 
ATOM     25  C   UNL     1       1.448  11.592  18.582  0.00  0.00    +0.000 C 
ATOM     26  C   UNL     1       1.089  11.480  20.062  0.00  0.00    +0.000 C 
ATOM     27  N   UNL     1       0.340  10.255  20.348  0.00  0.00    +0.000 NA
ATOM     28  C   UNL     1       1.121   9.067  19.954  0.00  0.00    +0.000 C 
ATOM     29  H   UNL     1      -0.518  10.262  19.790  0.00  0.00    +0.000 HD
ENDBRANCH  21  23
ENDBRANCH  20  21
ENDBRANCH   1  20
TORSDOF 4
ENDMDL
MODEL 5
REMARK VINA RESULT:      -8.3      2.607      7.129
REMARK  Name = 
REMARK  4 active torsions:
REMARK  status: ('A' for Active; 'I' for Inactive)
REMARK    1  A    between atoms: C_2  and  C_3
REMARK    2  A    between atoms: C_3  and  O_4
REMARK    3  A    between atoms: O_4  and  C_5
REMARK    4  A    between atoms: C_12  and  C_13
REMARK                            x       y       z     vdW  Elec       q    Type
REMARK                         _______ _______ _______ _____ _____    ______ ____
ROOT
ATOM      1  C   UNL     1       2.230   5.507  19.806  0.00  0.00    +0.000 A 
ATOM      2  C   UNL     1       1.181   5.004  20.584  0.00  0.00    +0.000 A 
ATOM      3  C   UNL     1       0.853   3.654  20.529  0.00  0.00    +0.000 A 
ATOM      4  C   UNL     1       1.572   2.801  19.698  0.00  0.00    +0.000 A 
ATOM      5  C   UNL     1       2.628   3.295  18.917  0.00  0.00    +0.000 A 
ATOM      6  C   UNL     1       3.348   2.449  18.063  0.00  0.00    +0.000 A 
ATOM      7  C   UNL     1       4.380   2.961  17.286  0.00  0.00    +0.000 A 
ATOM      8  C   UNL     1       4.666   4.312  17.382  0.00  0.00    +0.000 A 
ATOM      9  N   UNL     1       3.991   5.141  18.211  0.00  0.00    +0.000 NA
ATOM     10  C   UNL     1       2.981   4.663  18.967  0.00  0.00    +0.000 A 
ENDROOT
BRANCH   8  11
ATOM     11  C   UNL     1       5.705   4.928  16.559  0.00  0.00    +0.000 A 
ATOM     12  N   UNL     1       6.590   5.825  16.974  0.00  0.00    +0.000 NA
ATOM     13  N   UNL     1       7.438   6.128  15.936  0.00  0.00    +0.000 NA
ATOM     14  C   UNL     1       7.076   5.404  14.903  0.00  0.00    +0.000 A 
ATOM     15  C   UNL     1       7.611   5.272  13.590  0.00  0.00    +0.000 A 
ATOM     16  C   UNL     1       7.040   4.420  12.717  0.00  0.00    +0.000 A 
ATOM     17  C   UNL     1       5.880   3.626  13.085  0.00  0.00    +0.000 A 
ATOM     18  C   UNL     1       5.380   3.742  14.326  0.00  0.00    +0.000 A 
ATOM     19  N   UNL     1       5.971   4.629  15.231  0.00  0.00    +0.000 N 
ENDBRANCH   8  11
BRANCH   1  20
ATOM     20  O   UNL     1       2.597   6.836  19.796  0.00  0.00    +0.000 OA
BRANCH  20  21
ATOM     21  C   UNL     1       1.591   7.794  19.472  0.00  0.00    +0.000 C 
BRANCH  21  23
ATOM     22  F   UNL     1       2.213   8.403  21.643  0.00  0.00    +0.000 F 
ATOM     23  C   UNL     1       1.249   8.646  20.695  0.00  0.00    +0.000 C 
ATOM     24  C   UNL     1      -0.101   8.253  21.300  0.00  0.00    +0.000 C 
ATOM     25  C   UNL     1      -0.450   9.171  22.469  0.00  0.00    +0.000 C 
ATOM     26  C   UNL     1      -0.385  10.638  22.050  0.00  0.00    +0.000 C 
ATOM     27  N   UNL     1       0.935  10.996  21.527  0.00  0.00    +0.000 NA
ATOM     28  C   UNL     1       1.278  10.151  20.367  0.00  0.00    +0.000 C 
ATOM     29  H   UNL     1       1.632  10.820  22.256  0.00  0.00    +0.000 HD
ENDBRANCH  21  23
ENDBRANCH  20  21
ENDBRANCH   1  20
TORSDOF 4
ENDMDL
MODEL 6
REMARK VINA RESULT:      -8.3      2.680      7.230
REMARK  Name = 
REMARK  4 active torsions:
REMARK  status: ('A' for Active; 'I' for Inactive)
REMARK    1  A    between atoms: C_2  and  C_3
REMARK    2  A    between atoms: C_3  and  O_4
REMARK    3  A    between atoms: O_4  and  C_5
REMARK    4  A    between atoms: C_12  and  C_13
REMARK                            x       y       z     vdW  Elec       q    Type
REMARK                         _______ _______ _______ _____ _____    ______ ____
ROOT
ATOM      1  C   UNL     1       2.661   6.352  18.953  0.00  0.00    +0.000 A 
ATOM      2  C   UNL     1       1.648   6.071  19.876  0.00  0.00    +0.000 A 
ATOM      3  C   UNL     1       1.331   4.754  20.189  0.00  0.00    +0.000 A 
ATOM      4  C   UNL     1       2.027   3.713  19.582  0.00  0.00    +0.000 A 
ATOM      5  C   UNL     1       3.046   3.984  18.658  0.00  0.00    +0.000 A 
ATOM      6  C   UNL     1       3.742   2.945  18.027  0.00  0.00    +0.000 A 
ATOM      7  C   UNL     1       4.738   3.234  17.103  0.00  0.00    +0.000 A 
ATOM      8  C   UNL     1       5.015   4.563  16.831  0.00  0.00    +0.000 A 
ATOM      9  N   UNL     1       4.364   5.581  17.441  0.00  0.00    +0.000 NA
ATOM     10  C   UNL     1       3.388   5.318  18.335  0.00  0.00    +0.000 A 
ENDROOT
BRANCH   8  11
ATOM     11  C   UNL     1       6.014   4.943  15.835  0.00  0.00    +0.000 A 
ATOM     12  N   UNL     1       7.068   5.719  16.054  0.00  0.00    +0.000 NA
ATOM     13  N   UNL     1       7.807   5.803  14.898  0.00  0.00    +0.000 NA
ATOM     14  C   UNL     1       7.211   5.066  13.990  0.00  0.00    +0.000 A 
ATOM     15  C   UNL     1       7.544   4.748  12.643  0.00  0.00    +0.000 A 
ATOM     16  C   UNL     1       6.745   3.930  11.931  0.00  0.00    +0.000 A 
ATOM     17  C   UNL     1       5.540   3.360  12.509  0.00  0.00    +0.000 A 
ATOM     18  C   UNL     1       5.229   3.650  13.783  0.00  0.00    +0.000 A 
ATOM     19  N   UNL     1       6.057   4.502  14.521  0.00  0.00    +0.000 N 
ENDBRANCH   8  11
BRANCH   1  20
ATOM     20  O   UNL     1       3.014   7.633  18.582  0.00  0.00    +0.000 OA
BRANCH  20  21
ATOM     21  C   UNL     1       2.114   8.344  17.734  0.00  0.00    +0.000 C 
BRANCH  21  23
ATOM     22  F   UNL     1       1.585   9.238  19.830  0.00  0.00    +0.000 F 
ATOM     23  C   UNL     1       1.483   9.514  18.488  0.00  0.00    +0.000 C 
ATOM     24  C   UNL     1      -0.005   9.664  18.161  0.00  0.00    +0.000 C 
ATOM     25  C   UNL     1      -0.588  10.886  18.866  0.00  0.00    +0.000 C 
ATOM     26  C   UNL     1       0.224  12.140  18.548  0.00  0.00    +0.000 C 
ATOM     27  N   UNL     1       1.631  11.985  18.924  0.00  0.00    +0.000 NA
ATOM     28  C   UNL     1       2.231  10.835  18.220  0.00  0.00    +0.000 C 
ATOM     29  H   UNL     1       1.680  11.795  19.928  0.00  0.00    +0.000 HD
ENDBRANCH  21  23
ENDBRANCH  20  21
ENDBRANCH   1  20
TORSDOF 4
ENDMDL
MODEL 7
REMARK VINA RESULT:      -8.3      3.091      5.083
REMARK  Name = 
REMARK  4 active torsions:
REMARK  status: ('A' for Active; 'I' for Inactive)
REMARK    1  A    between atoms: C_2  and  C_3
REMARK    2  A    between atoms: C_3  and  O_4
REMARK    3  A    between atoms: O_4  and  C_5
REMARK    4  A    between atoms: C_12  and  C_13
REMARK                            x       y       z     vdW  Elec       q    Type
REMARK                         _______ _______ _______ _____ _____    ______ ____
ROOT
ATOM      1  C   UNL     1       2.674   6.390  19.433  0.00  0.00    +0.000 A 
ATOM      2  C   UNL     1       3.378   5.850  18.350  0.00  0.00    +0.000 A 
ATOM      3  C   UNL     1       3.601   6.612  17.209  0.00  0.00    +0.000 A 
ATOM      4  C   UNL     1       3.124   7.917  17.146  0.00  0.00    +0.000 A 
ATOM      5  C   UNL     1       2.421   8.470  18.227  0.00  0.00    +0.000 A 
ATOM      6  C   UNL     1       1.921   9.777  18.168  0.00  0.00    +0.000 A 
ATOM      7  C   UNL     1       1.213  10.300  19.243  0.00  0.00    +0.000 A 
ATOM      8  C   UNL     1       1.023   9.499  20.356  0.00  0.00    +0.000 A 
ATOM      9  N   UNL     1       1.511   8.239  20.437  0.00  0.00    +0.000 NA
ATOM     10  C   UNL     1       2.193   7.712  19.399  0.00  0.00    +0.000 A 
ENDROOT
BRANCH   8  11
ATOM     11  C   UNL     1       0.248   9.965  21.504  0.00  0.00    +0.000 A 
ATOM     12  N   UNL     1       0.461   9.628  22.769  0.00  0.00    +0.000 NA
ATOM     13  N   UNL     1      -0.429  10.307  23.567  0.00  0.00    +0.000 NA
ATOM     14  C   UNL     1      -1.165  11.063  22.787  0.00  0.00    +0.000 A 
ATOM     15  C   UNL     1      -2.202  12.000  23.061  0.00  0.00    +0.000 A 
ATOM     16  C   UNL     1      -2.786  12.667  22.047  0.00  0.00    +0.000 A 
ATOM     17  C   UNL     1      -2.380  12.452  20.668  0.00  0.00    +0.000 A 
ATOM     18  C   UNL     1      -1.396  11.576  20.409  0.00  0.00    +0.000 A 
ATOM     19  N   UNL     1      -0.792  10.881  21.462  0.00  0.00    +0.000 N 
ENDBRANCH   8  11
BRANCH   1  20
ATOM     20  O   UNL     1       2.400   5.686  20.587  0.00  0.00    +0.000 OA
BRANCH  20  21
ATOM     21  C   UNL     1       1.339   4.734  20.540  0.00  0.00    +0.000 C 
BRANCH  21  23
ATOM     22  F   UNL     1       1.336   2.457  21.078  0.00  0.00    +0.000 F 
ATOM     23  C   UNL     1       1.880   3.349  20.186  0.00  0.00    +0.000 C 
ATOM     24  C   UNL     1       3.402   3.279  20.334  0.00  0.00    +0.000 C 
ATOM     25  C   UNL     1       3.920   1.911  19.898  0.00  0.00    +0.000 C 
ATOM     26  C   UNL     1       3.439   1.568  18.490  0.00  0.00    +0.000 C 
ATOM     27  N   UNL     1       1.978   1.589  18.394  0.00  0.00    +0.000 NA
ATOM     28  C   UNL     1       1.454   2.917  18.769  0.00  0.00    +0.000 C 
ATOM     29  H   UNL     1       1.599   0.907  19.058  0.00  0.00    +0.000 HD
ENDBRANCH  21  23
ENDBRANCH  20  21
ENDBRANCH   1  20
TORSDOF 4
ENDMDL
MODEL 8
REMARK VINA RESULT:      -8.3      2.774      7.079
REMARK  Name = 
REMARK  4 active torsions:
REMARK  status: ('A' for Active; 'I' for Inactive)
REMARK    1  A    between atoms: C_2  and  C_3
REMARK    2  A    between atoms: C_3  and  O_4
REMARK    3  A    between atoms: O_4  and  C_5
REMARK    4  A    between atoms: C_12  and  C_13
REMARK                            x       y       z     vdW  Elec       q    Type
REMARK                         _______ _______ _______ _____ _____    ______ ____
ROOT
ATOM      1  C   UNL     1       2.014   5.097  19.716  0.00  0.00    +0.000 A 
ATOM      2  C   UNL     1       0.952   4.532  20.433  0.00  0.00    +0.000 A 
ATOM      3  C   UNL     1       0.665   3.178  20.306  0.00  0.00    +0.000 A 
ATOM      4  C   UNL     1       1.436   2.383  19.464  0.00  0.00    +0.000 A 
ATOM      5  C   UNL     1       2.504   2.939  18.745  0.00  0.00    +0.000 A 
ATOM      6  C   UNL     1       3.277   2.152  17.881  0.00  0.00    +0.000 A 
ATOM      7  C   UNL     1       4.320   2.725  17.164  0.00  0.00    +0.000 A 
ATOM      8  C   UNL     1       4.565   4.078  17.330  0.00  0.00    +0.000 A 
ATOM      9  N   UNL     1       3.839   4.851  18.170  0.00  0.00    +0.000 NA
ATOM     10  C   UNL     1       2.816   4.312  18.868  0.00  0.00    +0.000 A 
ENDROOT
BRANCH   8  11
ATOM     11  C   UNL     1       5.614   4.759  16.574  0.00  0.00    +0.000 A 
ATOM     12  N   UNL     1       6.462   5.655  17.061  0.00  0.00    +0.000 NA
ATOM     13  N   UNL     1       7.336   6.028  16.067  0.00  0.00    +0.000 NA
ATOM     14  C   UNL     1       7.026   5.347  14.989  0.00  0.00    +0.000 A 
ATOM     15  C   UNL     1       7.607   5.291  13.691  0.00  0.00    +0.000 A 
ATOM     16  C   UNL     1       7.086   4.469  12.759  0.00  0.00    +0.000 A 
ATOM     17  C   UNL     1       5.935   3.631  13.049  0.00  0.00    +0.000 A 
ATOM     18  C   UNL     1       5.392   3.675  14.277  0.00  0.00    +0.000 A 
ATOM     19  N   UNL     1       5.931   4.531  15.243  0.00  0.00    +0.000 N 
ENDBRANCH   8  11
BRANCH   1  20
ATOM     20  O   UNL     1       2.343   6.435  19.778  0.00  0.00    +0.000 OA
BRANCH  20  21
ATOM     21  C   UNL     1       2.225   7.084  21.043  0.00  0.00    +0.000 C 
BRANCH  21  23
ATOM     22  F   UNL     1      -0.028   7.708  21.138  0.00  0.00    +0.000 F 
ATOM     23  C   UNL     1       1.227   8.239  20.960  0.00  0.00    +0.000 C 
ATOM     24  C   UNL     1       1.252   8.911  19.585  0.00  0.00    +0.000 C 
ATOM     25  C   UNL     1       0.304  10.108  19.558  0.00  0.00    +0.000 C 
ATOM     26  C   UNL     1       0.608  11.073  20.702  0.00  0.00    +0.000 C 
ATOM     27  N   UNL     1       0.522  10.412  22.007  0.00  0.00    +0.000 NA
ATOM     28  C   UNL     1       1.462   9.277  22.075  0.00  0.00    +0.000 C 
ATOM     29  H   UNL     1      -0.424  10.039  22.120  0.00  0.00    +0.000 HD
ENDBRANCH  21  23
ENDBRANCH  20  21
ENDBRANCH   1  20
TORSDOF 4
ENDMDL
MODEL 9
REMARK VINA RESULT:      -8.3      2.209      4.589
REMARK  Name = 
REMARK  4 active torsions:
REMARK  status: ('A' for Active; 'I' for Inactive)
REMARK    1  A    between atoms: C_2  and  C_3
REMARK    2  A    between atoms: C_3  and  O_4
REMARK    3  A    between atoms: O_4  and  C_5
REMARK    4  A    between atoms: C_12  and  C_13
REMARK                            x       y       z     vdW  Elec       q    Type
REMARK                         _______ _______ _______ _____ _____    ______ ____
ROOT
ATOM      1  C   UNL     1       5.047   3.788  16.991  0.00  0.00    +0.000 A 
ATOM      2  C   UNL     1       5.856   3.301  15.958  0.00  0.00    +0.000 A 
ATOM      3  C   UNL     1       6.261   4.143  14.928  0.00  0.00    +0.000 A 
ATOM      4  C   UNL     1       5.860   5.475  14.927  0.00  0.00    +0.000 A 
ATOM      5  C   UNL     1       5.052   5.974  15.958  0.00  0.00    +0.000 A 
ATOM      6  C   UNL     1       4.627   7.309  15.958  0.00  0.00    +0.000 A 
ATOM      7  C   UNL     1       3.813   7.781  16.981  0.00  0.00    +0.000 A 
ATOM      8  C   UNL     1       3.442   6.900  17.984  0.00  0.00    +0.000 A 
ATOM      9  N   UNL     1       3.854   5.611  18.008  0.00  0.00    +0.000 NA
ATOM     10  C   UNL     1       4.638   5.135  17.018  0.00  0.00    +0.000 A 
ENDROOT
BRANCH   8  11
ATOM     11  C   UNL     1       2.550   7.312  19.065  0.00  0.00    +0.000 A 
ATOM     12  N   UNL     1       2.354   6.653  20.199  0.00  0.00    +0.000 NA
ATOM     13  N   UNL     1       1.492   7.376  20.991  0.00  0.00    +0.000 NA
ATOM     14  C   UNL     1       1.183   8.474  20.342  0.00  0.00    +0.000 A 
ATOM     15  C   UNL     1       0.377   9.596  20.686  0.00  0.00    +0.000 A 
ATOM     16  C   UNL     1       0.246  10.617  19.818  0.00  0.00    +0.000 A 
ATOM     17  C   UNL     1       0.912  10.602  18.527  0.00  0.00    +0.000 A 
ATOM     18  C   UNL     1       1.680   9.548  18.204  0.00  0.00    +0.000 A 
ATOM     19  N   UNL     1       1.813   8.487  19.104  0.00  0.00    +0.000 N 
ENDBRANCH   8  11
BRANCH   1  20
ATOM     20  O   UNL     1       4.593   3.006  18.032  0.00  0.00    +0.000 OA
BRANCH  20  21
ATOM     21  C   UNL     1       3.332   2.359  17.868  0.00  0.00    +0.000 C 
BRANCH  21  23
ATOM     22  F   UNL     1       1.959   1.099  19.282  0.00  0.00    +0.000 F 
ATOM     23  C   UNL     1       2.572   2.325  19.194  0.00  0.00    +0.000 C 
ATOM     24  C   UNL     1       1.477   3.393  19.246  0.00  0.00    +0.000 C 
ATOM     25  C   UNL     1       0.790   3.387  20.610  0.00  0.00    +0.000 C 
ATOM     26  C   UNL     1       1.811   3.521  21.738  0.00  0.00    +0.000 C 
ATOM     27  N   UNL     1       2.813   2.453  21.692  0.00  0.00    +0.000 NA
ATOM     28  C   UNL     1       3.523   2.465  20.399  0.00  0.00    +0.000 C 
ATOM     29  H   UNL     1       2.332   1.553  21.774  0.00  0.00    +0.000 HD
ENDBRANCH  21  23
ENDBRANCH  20  21
ENDBRANCH   1  20
TORSDOF 4
ENDMDL
