MODEL 1
REMARK VINA RESULT:      -7.4      0.000      0.000
REMARK  Name = 
REMARK  13 active torsions:
REMARK  status: ('A' for Active; 'I' for Inactive)
REMARK    1  A    between atoms: C_1  and  C_2
REMARK    2  A    between atoms: C_2  and  O_3
REMARK    3  A    between atoms: O_3  and  C_4
REMARK    4  A    between atoms: C_6  and  N_7
REMARK    5  A    between atoms: N_7  and  S_8
REMARK    6  A    between atoms: S_8  and  C_11
REMARK    7  A    between atoms: C_14  and  O_15
REMARK    8  A    between atoms: O_15  and  C_16
REMARK    9  A    between atoms: C_19  and  O_20
REMARK   10  A    between atoms: O_20  and  C_21
REMARK   11  A    between atoms: C_21  and  C_22
REMARK   12  A    between atoms: C_24  and  N_25
REMARK   13  A    between atoms: C_26  and  C_27
REMARK                            x       y       z     vdW  Elec       q    Type
REMARK                         _______ _______ _______ _____ _____    ______ ____
ROOT
ATOM      1  C   UNL     1       1.854   8.133  19.429  0.00  0.00    +0.000 A 
ATOM      2  C   UNL     1       2.575   7.163  18.692  0.00  0.00    +0.000 A 
ATOM      3  C   UNL     1       2.711   5.845  19.148  0.00  0.00    +0.000 A 
ATOM      4  C   UNL     1       2.179   5.504  20.393  0.00  0.00    +0.000 A 
ATOM      5  C   UNL     1       1.435   6.457  21.106  0.00  0.00    +0.000 A 
ATOM      6  C   UNL     1       1.233   7.773  20.640  0.00  0.00    +0.000 A 
ENDROOT
BRANCH   6   7
ATOM      7  N   UNL     1       0.351   8.649  21.348  0.00  0.00    +0.000 N 
ATOM      8  C   UNL     1       0.671   9.398  22.474  0.00  0.00    +0.000 C 
ATOM      9  C   UNL     1      -0.476  10.153  23.101  0.00  0.00    +0.000 C 
ATOM     10  O   UNL     1       1.792   9.526  22.963  0.00  0.00    +0.000 OA
ATOM     11  H   UNL     1      -0.593   8.720  20.997  0.00  0.00    +0.000 HD
ENDBRANCH   6   7
BRANCH   3  12
ATOM     12  N   UNL     1       3.415   4.891  18.355  0.00  0.00    +0.000 N 
ATOM     13  H   UNL     1       2.904   4.065  18.042  0.00  0.00    +0.000 HD
BRANCH  12  14
ATOM     14  S   UNL     1       5.041   4.546  18.650  0.00  0.00    +0.000 S 
ATOM     15  O   UNL     1       5.602   5.716  19.315  0.00  0.00    +0.000 OA
ATOM     16  O   UNL     1       5.194   3.216  19.213  0.00  0.00    +0.000 OA
BRANCH  14  17
ATOM     17  C   UNL     1       5.742   4.511  17.010  0.00  0.00    +0.000 A 
ATOM     18  C   UNL     1       7.087   4.842  16.814  0.00  0.00    +0.000 A 
ATOM     19  C   UNL     1       7.582   4.926  15.510  0.00  0.00    +0.000 A 
ATOM     20  C   UNL     1       6.754   4.653  14.417  0.00  0.00    +0.000 A 
ATOM     21  C   UNL     1       5.421   4.295  14.628  0.00  0.00    +0.000 A 
ATOM     22  C   UNL     1       4.921   4.197  15.927  0.00  0.00    +0.000 A 
BRANCH  20  23
ATOM     23  O   UNL     1       7.335   4.820  13.190  0.00  0.00    +0.000 OA
ATOM     24  C   UNL     1       6.940   3.885  12.193  0.00  0.00    +0.000 C 
ENDBRANCH  20  23
ENDBRANCH  14  17
ENDBRANCH  12  14
ENDBRANCH   3  12
BRANCH   1  25
ATOM     25  O   UNL     1       1.826   9.344  18.781  0.00  0.00    +0.000 OA
BRANCH  25  27
ATOM     26  C   UNL     1      -0.109  10.775  18.632  0.00  0.00    +0.000 C 
ATOM     27  C   UNL     1       0.698   9.663  17.971  0.00  0.00    +0.000 C 
ENDBRANCH  25  27
ENDBRANCH   1  25
BRANCH   4  28
ATOM     28  O   UNL     1       2.377   4.224  20.832  0.00  0.00    +0.000 OA
BRANCH  28  29
ATOM     29  C   UNL     1       1.250   3.335  20.830  0.00  0.00    +0.000 C 
ATOM     30  C   UNL     1       1.503   2.322  19.724  0.00  0.00    +0.000 C 
ENDBRANCH  28  29
ENDBRANCH   4  28
TORSDOF 9
ENDMDL
MODEL 2
REMARK VINA RESULT:      -6.9      0.762      1.220
REMARK  Name = 
REMARK  13 active torsions:
REMARK  status: ('A' for Active; 'I' for Inactive)
REMARK    1  A    between atoms: C_1  and  C_2
REMARK    2  A    between atoms: C_2  and  O_3
REMARK    3  A    between atoms: O_3  and  C_4
REMARK    4  A    between atoms: C_6  and  N_7
REMARK    5  A    between atoms: N_7  and  S_8
REMARK    6  A    between atoms: S_8  and  C_11
REMARK    7  A    between atoms: C_14  and  O_15
REMARK    8  A    between atoms: O_15  and  C_16
REMARK    9  A    between atoms: C_19  and  O_20
REMARK   10  A    between atoms: O_20  and  C_21
REMARK   11  A    between atoms: C_21  and  C_22
REMARK   12  A    between atoms: C_24  and  N_25
REMARK   13  A    between atoms: C_26  and  C_27
REMARK                            x       y       z     vdW  Elec       q    Type
REMARK                         _______ _______ _______ _____ _____    ______ ____
ROOT
ATOM      1  C   UNL     1       2.093   8.248  18.907  0.00  0.00    +0.000 A 
ATOM      2  C   UNL     1       2.721   7.071  18.435  0.00  0.00    +0.000 A 
ATOM      3  C   UNL     1       2.703   5.880  19.176  0.00  0.00    +0.000 A 
ATOM      4  C   UNL     1       2.109   5.882  20.439  0.00  0.00    +0.000 A 
ATOM      5  C   UNL     1       1.456   7.039  20.890  0.00  0.00    +0.000 A 
ATOM      6  C   UNL     1       1.408   8.231  20.137  0.00  0.00    +0.000 A 
ENDROOT
BRANCH   6   7
ATOM      7  N   UNL     1       0.610   9.327  20.594  0.00  0.00    +0.000 N 
ATOM      8  C   UNL     1       0.705   9.948  21.833  0.00  0.00    +0.000 C 
ATOM      9  C   UNL     1      -0.335  11.007  22.112  0.00  0.00    +0.000 C 
ATOM     10  O   UNL     1       1.570   9.741  22.682  0.00  0.00    +0.000 OA
ATOM     11  H   UNL     1      -0.091   9.673  19.955  0.00  0.00    +0.000 HD
ENDBRANCH   6   7
BRANCH   3  12
ATOM     12  N   UNL     1       3.318   4.708  18.646  0.00  0.00    +0.000 N 
ATOM     13  H   UNL     1       2.779   3.842  18.659  0.00  0.00    +0.000 HD
BRANCH  12  14
ATOM     14  S   UNL     1       4.968   4.422  18.855  0.00  0.00    +0.000 S 
ATOM     15  O   UNL     1       5.498   5.557  19.599  0.00  0.00    +0.000 OA
ATOM     16  O   UNL     1       5.205   3.058  19.295  0.00  0.00    +0.000 OA
BRANCH  14  17
ATOM     17  C   UNL     1       5.608   4.561  17.195  0.00  0.00    +0.000 A 
ATOM     18  C   UNL     1       4.771   4.328  16.098  0.00  0.00    +0.000 A 
ATOM     19  C   UNL     1       5.321   4.322  14.814  0.00  0.00    +0.000 A 
ATOM     20  C   UNL     1       6.682   4.578  14.623  0.00  0.00    +0.000 A 
ATOM     21  C   UNL     1       7.500   4.839  15.725  0.00  0.00    +0.000 A 
ATOM     22  C   UNL     1       6.958   4.858  17.009  0.00  0.00    +0.000 A 
BRANCH  20  23
ATOM     23  O   UNL     1       7.115   4.493  13.328  0.00  0.00    +0.000 OA
ATOM     24  C   UNL     1       6.386   3.596  12.497  0.00  0.00    +0.000 C 
ENDBRANCH  20  23
ENDBRANCH  14  17
ENDBRANCH  12  14
ENDBRANCH   3  12
BRANCH   1  25
ATOM     25  O   UNL     1       2.211   9.280  18.008  0.00  0.00    +0.000 OA
BRANCH  25  27
ATOM     26  C   UNL     1       2.132  11.681  18.219  0.00  0.00    +0.000 C 
ATOM     27  C   UNL     1       1.325  10.391  18.120  0.00  0.00    +0.000 C 
ENDBRANCH  25  27
ENDBRANCH   1  25
BRANCH   4  28
ATOM     28  O   UNL     1       2.157   4.718  21.157  0.00  0.00    +0.000 OA
BRANCH  28  29
ATOM     29  C   UNL     1       1.165   3.719  20.878  0.00  0.00    +0.000 C 
ATOM     30  C   UNL     1       1.628   2.448  21.574  0.00  0.00    +0.000 C 
ENDBRANCH  28  29
ENDBRANCH   4  28
TORSDOF 9
ENDMDL
MODEL 3
REMARK VINA RESULT:      -6.9      2.061      2.811
REMARK  Name = 
REMARK  13 active torsions:
REMARK  status: ('A' for Active; 'I' for Inactive)
REMARK    1  A    between atoms: C_1  and  C_2
REMARK    2  A    between atoms: C_2  and  O_3
REMARK    3  A    between atoms: O_3  and  C_4
REMARK    4  A    between atoms: C_6  and  N_7
REMARK    5  A    between atoms: N_7  and  S_8
REMARK    6  A    between atoms: S_8  and  C_11
REMARK    7  A    between atoms: C_14  and  O_15
REMARK    8  A    between atoms: O_15  and  C_16
REMARK    9  A    between atoms: C_19  and  O_20
REMARK   10  A    between atoms: O_20  and  C_21
REMARK   11  A    between atoms: C_21  and  C_22
REMARK   12  A    between atoms: C_24  and  N_25
REMARK   13  A    between atoms: C_26  and  C_27
REMARK                            x       y       z     vdW  Elec       q    Type
REMARK                         _______ _______ _______ _____ _____    ______ ____
ROOT
ATOM      1  C   UNL     1       2.291   7.740  19.125  0.00  0.00    +0.000 A 
ATOM      2  C   UNL     1       2.506   6.763  18.124  0.00  0.00    +0.000 A 
ATOM      3  C   UNL     1       2.404   5.392  18.399  0.00  0.00    +0.000 A 
ATOM      4  C   UNL     1       2.150   4.985  19.710  0.00  0.00    +0.000 A 
ATOM      5  C   UNL     1       1.902   5.955  20.694  0.00  0.00    +0.000 A 
ATOM      6  C   UNL     1       1.940   7.340  20.429  0.00  0.00    +0.000 A 
ENDROOT
BRANCH   6   7
ATOM      7  N   UNL     1       1.542   8.267  21.443  0.00  0.00    +0.000 N 
ATOM      8  C   UNL     1       0.237   8.544  21.833  0.00  0.00    +0.000 C 
ATOM      9  C   UNL     1       0.082   9.652  22.847  0.00  0.00    +0.000 C 
ATOM     10  O   UNL     1      -0.771   7.946  21.460  0.00  0.00    +0.000 OA
ATOM     11  H   UNL     1       2.282   8.769  21.911  0.00  0.00    +0.000 HD
ENDBRANCH   6   7
BRANCH   3  12
ATOM     12  N   UNL     1       2.593   4.444  17.351  0.00  0.00    +0.000 N 
ATOM     13  H   UNL     1       1.801   3.856  17.094  0.00  0.00    +0.000 HD
BRANCH  12  14
ATOM     14  S   UNL     1       4.061   3.630  17.170  0.00  0.00    +0.000 S 
ATOM     15  O   UNL     1       4.096   2.598  18.198  0.00  0.00    +0.000 OA
ATOM     16  O   UNL     1       4.307   3.311  15.775  0.00  0.00    +0.000 OA
BRANCH  14  17
ATOM     17  C   UNL     1       5.259   4.863  17.650  0.00  0.00    +0.000 A 
ATOM     18  C   UNL     1       5.644   5.857  16.744  0.00  0.00    +0.000 A 
ATOM     19  C   UNL     1       6.671   6.736  17.098  0.00  0.00    +0.000 A 
ATOM     20  C   UNL     1       7.284   6.646  18.351  0.00  0.00    +0.000 A 
ATOM     21  C   UNL     1       6.867   5.667  19.258  0.00  0.00    +0.000 A 
ATOM     22  C   UNL     1       5.836   4.793  18.918  0.00  0.00    +0.000 A 
BRANCH  20  23
ATOM     23  O   UNL     1       8.310   7.524  18.563  0.00  0.00    +0.000 OA
ATOM     24  C   UNL     1       8.167   8.795  17.940  0.00  0.00    +0.000 C 
ENDBRANCH  20  23
ENDBRANCH  14  17
ENDBRANCH  12  14
ENDBRANCH   3  12
BRANCH   1  25
ATOM     25  O   UNL     1       2.414   9.013  18.626  0.00  0.00    +0.000 OA
BRANCH  25  27
ATOM     26  C   UNL     1       0.534  10.519  18.747  0.00  0.00    +0.000 C 
ATOM     27  C   UNL     1       1.337   9.562  17.872  0.00  0.00    +0.000 C 
ENDBRANCH  25  27
ENDBRANCH   1  25
BRANCH   4  28
ATOM     28  O   UNL     1       2.110   3.640  19.954  0.00  0.00    +0.000 OA
BRANCH  28  29
ATOM     29  C   UNL     1       2.579   3.177  21.228  0.00  0.00    +0.000 C 
ATOM     30  C   UNL     1       1.413   2.449  21.878  0.00  0.00    +0.000 C 
ENDBRANCH  28  29
ENDBRANCH   4  28
TORSDOF 9
ENDMDL
MODEL 4
REMARK VINA RESULT:      -6.8      1.343      1.523
REMARK  Name = 
REMARK  13 active torsions:
REMARK  status: ('A' for Active; 'I' for Inactive)
REMARK    1  A    between atoms: C_1  and  C_2
REMARK    2  A    between atoms: C_2  and  O_3
REMARK    3  A    between atoms: O_3  and  C_4
REMARK    4  A    between atoms: C_6  and  N_7
REMARK    5  A    between atoms: N_7  and  S_8
REMARK    6  A    between atoms: S_8  and  C_11
REMARK    7  A    between atoms: C_14  and  O_15
REMARK    8  A    between atoms: O_15  and  C_16
REMARK    9  A    between atoms: C_19  and  O_20
REMARK   10  A    between atoms: O_20  and  C_21
REMARK   11  A    between atoms: C_21  and  C_22
REMARK   12  A    between atoms: C_24  and  N_25
REMARK   13  A    between atoms: C_26  and  C_27
REMARK                            x       y       z     vdW  Elec       q    Type
REMARK                         _______ _______ _______ _____ _____    ______ ____
ROOT
ATOM      1  C   UNL     1       2.511   7.343  19.301  0.00  0.00    +0.000 A 
ATOM      2  C   UNL     1       3.305   6.255  18.868  0.00  0.00    +0.000 A 
ATOM      3  C   UNL     1       3.277   5.016  19.524  0.00  0.00    +0.000 A 
ATOM      4  C   UNL     1       2.497   4.880  20.674  0.00  0.00    +0.000 A 
ATOM      5  C   UNL     1       1.683   5.948  21.081  0.00  0.00    +0.000 A 
ATOM      6  C   UNL     1       1.648   7.184  20.403  0.00  0.00    +0.000 A 
ENDROOT
BRANCH   6   7
ATOM      7  N   UNL     1       0.695   8.179  20.789  0.00  0.00    +0.000 N 
ATOM      8  C   UNL     1       0.852   9.109  21.809  0.00  0.00    +0.000 C 
ATOM      9  C   UNL     1      -0.353   9.975  22.092  0.00  0.00    +0.000 C 
ATOM     10  O   UNL     1       1.879   9.309  22.455  0.00  0.00    +0.000 OA
ATOM     11  H   UNL     1      -0.172   8.199  20.274  0.00  0.00    +0.000 HD
ENDBRANCH   6   7
BRANCH   3  12
ATOM     12  N   UNL     1       4.067   3.936  19.031  0.00  0.00    +0.000 N 
ATOM     13  H   UNL     1       5.068   3.951  19.228  0.00  0.00    +0.000 HD
BRANCH  12  14
ATOM     14  S   UNL     1       3.735   3.228  17.535  0.00  0.00    +0.000 S 
ATOM     15  O   UNL     1       3.958   1.797  17.691  0.00  0.00    +0.000 OA
ATOM     16  O   UNL     1       2.491   3.740  16.986  0.00  0.00    +0.000 OA
BRANCH  14  17
ATOM     17  C   UNL     1       5.058   3.838  16.506  0.00  0.00    +0.000 A 
ATOM     18  C   UNL     1       6.233   4.325  17.089  0.00  0.00    +0.000 A 
ATOM     19  C   UNL     1       7.204   4.909  16.271  0.00  0.00    +0.000 A 
ATOM     20  C   UNL     1       7.020   4.978  14.887  0.00  0.00    +0.000 A 
ATOM     21  C   UNL     1       5.856   4.460  14.315  0.00  0.00    +0.000 A 
ATOM     22  C   UNL     1       4.886   3.865  15.122  0.00  0.00    +0.000 A 
BRANCH  20  23
ATOM     23  O   UNL     1       8.013   5.618  14.198  0.00  0.00    +0.000 OA
ATOM     24  C   UNL     1       8.063   5.346  12.802  0.00  0.00    +0.000 C 
ENDBRANCH  20  23
ENDBRANCH  14  17
ENDBRANCH  12  14
ENDBRANCH   3  12
BRANCH   1  25
ATOM     25  O   UNL     1       2.676   8.443  18.496  0.00  0.00    +0.000 OA
BRANCH  25  27
ATOM     26  C   UNL     1       1.306  10.406  18.201  0.00  0.00    +0.000 C 
ATOM     27  C   UNL     1       1.546   8.955  17.795  0.00  0.00    +0.000 C 
ENDBRANCH  25  27
ENDBRANCH   1  25
BRANCH   4  28
ATOM     28  O   UNL     1       2.535   3.675  21.320  0.00  0.00    +0.000 OA
BRANCH  28  29
ATOM     29  C   UNL     1       1.348   2.869  21.301  0.00  0.00    +0.000 C 
ATOM     30  C   UNL     1       0.760   3.001  19.905  0.00  0.00    +0.000 C 
ENDBRANCH  28  29
ENDBRANCH   4  28
TORSDOF 9
ENDMDL
MODEL 5
REMARK VINA RESULT:      -6.7      3.738      6.998
REMARK  Name = 
REMARK  13 active torsions:
REMARK  status: ('A' for Active; 'I' for Inactive)
REMARK    1  A    between atoms: C_1  and  C_2
REMARK    2  A    between atoms: C_2  and  O_3
REMARK    3  A    between atoms: O_3  and  C_4
REMARK    4  A    between atoms: C_6  and  N_7
REMARK    5  A    between atoms: N_7  and  S_8
REMARK    6  A    between atoms: S_8  and  C_11
REMARK    7  A    between atoms: C_14  and  O_15
REMARK    8  A    between atoms: O_15  and  C_16
REMARK    9  A    between atoms: C_19  and  O_20
REMARK   10  A    between atoms: O_20  and  C_21
REMARK   11  A    between atoms: C_21  and  C_22
REMARK   12  A    between atoms: C_24  and  N_25
REMARK   13  A    between atoms: C_26  and  C_27
REMARK                            x       y       z     vdW  Elec       q    Type
REMARK                         _______ _______ _______ _____ _____    ______ ____
ROOT
ATOM      1  C   UNL     1      -2.173  11.600  18.069  0.00  0.00    +0.000 A 
ATOM      2  C   UNL     1      -0.942  11.159  18.607  0.00  0.00    +0.000 A 
ATOM      3  C   UNL     1      -0.631  11.323  19.965  0.00  0.00    +0.000 A 
ATOM      4  C   UNL     1      -1.534  12.000  20.786  0.00  0.00    +0.000 A 
ATOM      5  C   UNL     1      -2.770  12.406  20.258  0.00  0.00    +0.000 A 
ATOM      6  C   UNL     1      -3.131  12.199  18.911  0.00  0.00    +0.000 A 
ENDROOT
BRANCH   6   7
ATOM      7  N   UNL     1      -4.457  12.513  18.475  0.00  0.00    +0.000 N 
ATOM      8  C   UNL     1      -5.469  11.598  18.209  0.00  0.00    +0.000 C 
ATOM      9  C   UNL     1      -6.744  12.183  17.649  0.00  0.00    +0.000 C 
ATOM     10  O   UNL     1      -5.426  10.389  18.427  0.00  0.00    +0.000 OA
ATOM     11  H   UNL     1      -4.670  13.491  18.344  0.00  0.00    +0.000 HD
ENDBRANCH   6   7
BRANCH   3  12
ATOM     12  N   UNL     1       0.607  10.830  20.472  0.00  0.00    +0.000 N 
ATOM     13  H   UNL     1       1.454  11.039  19.943  0.00  0.00    +0.000 HD
BRANCH  12  14
ATOM     14  S   UNL     1       0.698   9.323  21.228  0.00  0.00    +0.000 S 
ATOM     15  O   UNL     1       1.608   9.476  22.356  0.00  0.00    +0.000 OA
ATOM     16  O   UNL     1      -0.625   8.750  21.402  0.00  0.00    +0.000 OA
BRANCH  14  17
ATOM     17  C   UNL     1       1.552   8.325  20.020  0.00  0.00    +0.000 A 
ATOM     18  C   UNL     1       2.003   7.045  20.360  0.00  0.00    +0.000 A 
ATOM     19  C   UNL     1       2.775   6.331  19.440  0.00  0.00    +0.000 A 
ATOM     20  C   UNL     1       3.066   6.873  18.184  0.00  0.00    +0.000 A 
ATOM     21  C   UNL     1       2.583   8.140  17.847  0.00  0.00    +0.000 A 
ATOM     22  C   UNL     1       1.803   8.855  18.755  0.00  0.00    +0.000 A 
BRANCH  20  23
ATOM     23  O   UNL     1       3.873   6.106  17.390  0.00  0.00    +0.000 OA
ATOM     24  C   UNL     1       5.120   6.692  17.036  0.00  0.00    +0.000 C 
ENDBRANCH  20  23
ENDBRANCH  14  17
ENDBRANCH  12  14
ENDBRANCH   3  12
BRANCH   1  25
ATOM     25  O   UNL     1      -2.274  11.311  16.730  0.00  0.00    +0.000 OA
BRANCH  25  27
ATOM     26  C   UNL     1      -3.237   9.973  14.970  0.00  0.00    +0.000 C 
ATOM     27  C   UNL     1      -2.560   9.972  16.337  0.00  0.00    +0.000 C 
ENDBRANCH  25  27
ENDBRANCH   1  25
BRANCH   4  28
ATOM     28  O   UNL     1      -1.176  12.190  22.092  0.00  0.00    +0.000 OA
BRANCH  28  29
ATOM     29  C   UNL     1      -1.982  11.569  23.104  0.00  0.00    +0.000 C 
ATOM     30  C   UNL     1      -2.876  12.660  23.671  0.00  0.00    +0.000 C 
ENDBRANCH  28  29
ENDBRANCH   4  28
TORSDOF 9
ENDMDL
MODEL 6
REMARK VINA RESULT:      -6.6      1.904      2.381
REMARK  Name = 
REMARK  13 active torsions:
REMARK  status: ('A' for Active; 'I' for Inactive)
REMARK    1  A    between atoms: C_1  and  C_2
REMARK    2  A    between atoms: C_2  and  O_3
REMARK    3  A    between atoms: O_3  and  C_4
REMARK    4  A    between atoms: C_6  and  N_7
REMARK    5  A    between atoms: N_7  and  S_8
REMARK    6  A    between atoms: S_8  and  C_11
REMARK    7  A    between atoms: C_14  and  O_15
REMARK    8  A    between atoms: O_15  and  C_16
REMARK    9  A    between atoms: C_19  and  O_20
REMARK   10  A    between atoms: O_20  and  C_21
REMARK   11  A    between atoms: C_21  and  C_22
REMARK   12  A    between atoms: C_24  and  N_25
REMARK   13  A    between atoms: C_26  and  C_27
REMARK                            x       y       z     vdW  Elec       q    Type
REMARK                         _______ _______ _______ _____ _____    ______ ____
ROOT
ATOM      1  C   UNL     1       2.358   7.557  19.078  0.00  0.00    +0.000 A 
ATOM      2  C   UNL     1       2.558   6.420  18.259  0.00  0.00    +0.000 A 
ATOM      3  C   UNL     1       2.288   5.124  18.722  0.00  0.00    +0.000 A 
ATOM      4  C   UNL     1       1.879   4.953  20.046  0.00  0.00    +0.000 A 
ATOM      5  C   UNL     1       1.648   6.083  20.845  0.00  0.00    +0.000 A 
ATOM      6  C   UNL     1       1.854   7.400  20.383  0.00  0.00    +0.000 A 
ENDROOT
BRANCH   6   7
ATOM      7  N   UNL     1       1.468   8.508  21.203  0.00  0.00    +0.000 N 
ATOM      8  C   UNL     1       0.189   8.765  21.681  0.00  0.00    +0.000 C 
ATOM      9  C   UNL     1       0.023  10.066  22.429  0.00  0.00    +0.000 C 
ATOM     10  O   UNL     1      -0.783   8.018  21.584  0.00  0.00    +0.000 OA
ATOM     11  H   UNL     1       2.195   9.164  21.448  0.00  0.00    +0.000 HD
ENDBRANCH   6   7
BRANCH   3  12
ATOM     12  N   UNL     1       2.469   4.010  17.851  0.00  0.00    +0.000 N 
ATOM     13  H   UNL     1       1.663   3.410  17.674  0.00  0.00    +0.000 HD
BRANCH  12  14
ATOM     14  S   UNL     1       3.913   3.135  17.847  0.00  0.00    +0.000 S 
ATOM     15  O   UNL     1       4.156   2.723  19.224  0.00  0.00    +0.000 OA
ATOM     16  O   UNL     1       3.932   2.172  16.760  0.00  0.00    +0.000 OA
BRANCH  14  17
ATOM     17  C   UNL     1       5.131   4.383  17.470  0.00  0.00    +0.000 A 
ATOM     18  C   UNL     1       5.970   4.872  18.477  0.00  0.00    +0.000 A 
ATOM     19  C   UNL     1       6.830   5.934  18.187  0.00  0.00    +0.000 A 
ATOM     20  C   UNL     1       6.877   6.480  16.901  0.00  0.00    +0.000 A 
ATOM     21  C   UNL     1       6.056   5.961  15.897  0.00  0.00    +0.000 A 
ATOM     22  C   UNL     1       5.202   4.894  16.174  0.00  0.00    +0.000 A 
BRANCH  20  23
ATOM     23  O   UNL     1       7.718   7.548  16.751  0.00  0.00    +0.000 OA
ATOM     24  C   UNL     1       8.046   8.242  17.950  0.00  0.00    +0.000 C 
ENDBRANCH  20  23
ENDBRANCH  14  17
ENDBRANCH  12  14
ENDBRANCH   3  12
BRANCH   1  25
ATOM     25  O   UNL     1       2.658   8.720  18.411  0.00  0.00    +0.000 OA
BRANCH  25  27
ATOM     26  C   UNL     1       1.315  10.717  18.569  0.00  0.00    +0.000 C 
ATOM     27  C   UNL     1       1.602   9.442  17.783  0.00  0.00    +0.000 C 
ENDBRANCH  25  27
ENDBRANCH   1  25
BRANCH   4  28
ATOM     28  O   UNL     1       1.678   3.672  20.480  0.00  0.00    +0.000 OA
BRANCH  28  29
ATOM     29  C   UNL     1       2.133   3.333  21.799  0.00  0.00    +0.000 C 
ATOM     30  C   UNL     1       1.215   2.228  22.300  0.00  0.00    +0.000 C 
ENDBRANCH  28  29
ENDBRANCH   4  28
TORSDOF 9
ENDMDL
MODEL 7
REMARK VINA RESULT:      -6.5      3.702      6.971
REMARK  Name = 
REMARK  13 active torsions:
REMARK  status: ('A' for Active; 'I' for Inactive)
REMARK    1  A    between atoms: C_1  and  C_2
REMARK    2  A    between atoms: C_2  and  O_3
REMARK    3  A    between atoms: O_3  and  C_4
REMARK    4  A    between atoms: C_6  and  N_7
REMARK    5  A    between atoms: N_7  and  S_8
REMARK    6  A    between atoms: S_8  and  C_11
REMARK    7  A    between atoms: C_14  and  O_15
REMARK    8  A    between atoms: O_15  and  C_16
REMARK    9  A    between atoms: C_19  and  O_20
REMARK   10  A    between atoms: O_20  and  C_21
REMARK   11  A    between atoms: C_21  and  C_22
REMARK   12  A    between atoms: C_24  and  N_25
REMARK   13  A    between atoms: C_26  and  C_27
REMARK                            x       y       z     vdW  Elec       q    Type
REMARK                         _______ _______ _______ _____ _____    ______ ____
ROOT
ATOM      1  C   UNL     1      -2.173  10.679  17.774  0.00  0.00    +0.000 A 
ATOM      2  C   UNL     1      -0.953  10.195  18.303  0.00  0.00    +0.000 A 
ATOM      3  C   UNL     1      -0.412  10.707  19.490  0.00  0.00    +0.000 A 
ATOM      4  C   UNL     1      -1.061  11.767  20.125  0.00  0.00    +0.000 A 
ATOM      5  C   UNL     1      -2.289  12.221  19.619  0.00  0.00    +0.000 A 
ATOM      6  C   UNL     1      -2.884  11.682  18.460  0.00  0.00    +0.000 A 
ENDROOT
BRANCH   6   7
ATOM      7  N   UNL     1      -4.200  12.097  18.080  0.00  0.00    +0.000 N 
ATOM      8  C   UNL     1      -5.353  11.325  18.148  0.00  0.00    +0.000 C 
ATOM      9  C   UNL     1      -6.597  11.961  17.574  0.00  0.00    +0.000 C 
ATOM     10  O   UNL     1      -5.449  10.212  18.662  0.00  0.00    +0.000 OA
ATOM     11  H   UNL     1      -4.292  13.037  17.724  0.00  0.00    +0.000 HD
ENDBRANCH   6   7
BRANCH   3  12
ATOM     12  N   UNL     1       0.802  10.164  20.006  0.00  0.00    +0.000 N 
ATOM     13  H   UNL     1       1.586  10.058  19.362  0.00  0.00    +0.000 HD
BRANCH  12  14
ATOM     14  S   UNL     1       0.782   8.945  21.174  0.00  0.00    +0.000 S 
ATOM     15  O   UNL     1       1.659   9.384  22.251  0.00  0.00    +0.000 OA
ATOM     16  O   UNL     1      -0.577   8.507  21.441  0.00  0.00    +0.000 OA
BRANCH  14  17
ATOM     17  C   UNL     1       1.620   7.598  20.355  0.00  0.00    +0.000 A 
ATOM     18  C   UNL     1       2.256   7.811  19.127  0.00  0.00    +0.000 A 
ATOM     19  C   UNL     1       2.799   6.718  18.447  0.00  0.00    +0.000 A 
ATOM     20  C   UNL     1       2.737   5.435  18.999  0.00  0.00    +0.000 A 
ATOM     21  C   UNL     1       2.125   5.242  20.240  0.00  0.00    +0.000 A 
ATOM     22  C   UNL     1       1.590   6.329  20.932  0.00  0.00    +0.000 A 
BRANCH  20  23
ATOM     23  O   UNL     1       3.254   4.438  18.218  0.00  0.00    +0.000 OA
ATOM     24  C   UNL     1       4.126   4.867  17.178  0.00  0.00    +0.000 C 
ENDBRANCH  20  23
ENDBRANCH  14  17
ENDBRANCH  12  14
ENDBRANCH   3  12
BRANCH   1  25
ATOM     25  O   UNL     1      -2.526  10.015  16.624  0.00  0.00    +0.000 OA
BRANCH  25  27
ATOM     26  C   UNL     1      -3.708  10.086  14.523  0.00  0.00    +0.000 C 
ATOM     27  C   UNL     1      -2.676  10.762  15.420  0.00  0.00    +0.000 C 
ENDBRANCH  25  27
ENDBRANCH   1  25
BRANCH   4  28
ATOM     28  O   UNL     1      -0.477  12.277  21.252  0.00  0.00    +0.000 OA
BRANCH  28  29
ATOM     29  C   UNL     1       0.139  13.570  21.158  0.00  0.00    +0.000 C 
ATOM     30  C   UNL     1      -0.188  14.298  22.453  0.00  0.00    +0.000 C 
ENDBRANCH  28  29
ENDBRANCH   4  28
TORSDOF 9
ENDMDL
MODEL 8
REMARK VINA RESULT:      -6.5      1.369      1.646
REMARK  Name = 
REMARK  13 active torsions:
REMARK  status: ('A' for Active; 'I' for Inactive)
REMARK    1  A    between atoms: C_1  and  C_2
REMARK    2  A    between atoms: C_2  and  O_3
REMARK    3  A    between atoms: O_3  and  C_4
REMARK    4  A    between atoms: C_6  and  N_7
REMARK    5  A    between atoms: N_7  and  S_8
REMARK    6  A    between atoms: S_8  and  C_11
REMARK    7  A    between atoms: C_14  and  O_15
REMARK    8  A    between atoms: O_15  and  C_16
REMARK    9  A    between atoms: C_19  and  O_20
REMARK   10  A    between atoms: O_20  and  C_21
REMARK   11  A    between atoms: C_21  and  C_22
REMARK   12  A    between atoms: C_24  and  N_25
REMARK   13  A    between atoms: C_26  and  C_27
REMARK                            x       y       z     vdW  Elec       q    Type
REMARK                         _______ _______ _______ _____ _____    ______ ____
ROOT
ATOM      1  C   UNL     1       2.370   7.932  19.083  0.00  0.00    +0.000 A 
ATOM      2  C   UNL     1       2.639   6.818  18.253  0.00  0.00    +0.000 A 
ATOM      3  C   UNL     1       2.355   5.508  18.664  0.00  0.00    +0.000 A 
ATOM      4  C   UNL     1       1.859   5.299  19.952  0.00  0.00    +0.000 A 
ATOM      5  C   UNL     1       1.560   6.406  20.761  0.00  0.00    +0.000 A 
ATOM      6  C   UNL     1       1.780   7.737  20.347  0.00  0.00    +0.000 A 
ENDROOT
BRANCH   6   7
ATOM      7  N   UNL     1       1.325   8.819  21.165  0.00  0.00    +0.000 N 
ATOM      8  C   UNL     1       0.163   9.555  20.975  0.00  0.00    +0.000 C 
ATOM      9  C   UNL     1      -0.029  10.723  21.913  0.00  0.00    +0.000 C 
ATOM     10  O   UNL     1      -0.720   9.314  20.154  0.00  0.00    +0.000 OA
ATOM     11  H   UNL     1       1.911   9.070  21.948  0.00  0.00    +0.000 HD
ENDBRANCH   6   7
BRANCH   3  12
ATOM     12  N   UNL     1       2.608   4.418  17.781  0.00  0.00    +0.000 N 
ATOM     13  H   UNL     1       1.809   3.871  17.460  0.00  0.00    +0.000 HD
BRANCH  12  14
ATOM     14  S   UNL     1       3.992   3.465  17.950  0.00  0.00    +0.000 S 
ATOM     15  O   UNL     1       4.550   3.769  19.262  0.00  0.00    +0.000 OA
ATOM     16  O   UNL     1       3.730   2.096  17.543  0.00  0.00    +0.000 OA
BRANCH  14  17
ATOM     17  C   UNL     1       5.108   4.170  16.750  0.00  0.00    +0.000 A 
ATOM     18  C   UNL     1       5.184   3.631  15.461  0.00  0.00    +0.000 A 
ATOM     19  C   UNL     1       6.150   4.119  14.578  0.00  0.00    +0.000 A 
ATOM     20  C   UNL     1       7.008   5.154  14.963  0.00  0.00    +0.000 A 
ATOM     21  C   UNL     1       6.900   5.704  16.243  0.00  0.00    +0.000 A 
ATOM     22  C   UNL     1       5.931   5.231  17.128  0.00  0.00    +0.000 A 
BRANCH  20  23
ATOM     23  O   UNL     1       7.946   5.511  14.034  0.00  0.00    +0.000 OA
ATOM     24  C   UNL     1       7.677   5.091  12.701  0.00  0.00    +0.000 C 
ENDBRANCH  20  23
ENDBRANCH  14  17
ENDBRANCH  12  14
ENDBRANCH   3  12
BRANCH   1  25
ATOM     25  O   UNL     1       2.700   9.114  18.468  0.00  0.00    +0.000 OA
BRANCH  25  27
ATOM     26  C   UNL     1       1.712  11.302  18.237  0.00  0.00    +0.000 C 
ATOM     27  C   UNL     1       1.680   9.843  17.791  0.00  0.00    +0.000 C 
ENDBRANCH  25  27
ENDBRANCH   1  25
BRANCH   4  28
ATOM     28  O   UNL     1       1.643   4.005  20.340  0.00  0.00    +0.000 OA
BRANCH  28  29
ATOM     29  C   UNL     1       2.134   3.602  21.628  0.00  0.00    +0.000 C 
ATOM     30  C   UNL     1       1.394   2.324  21.989  0.00  0.00    +0.000 C 
ENDBRANCH  28  29
ENDBRANCH   4  28
TORSDOF 9
ENDMDL
MODEL 9
REMARK VINA RESULT:      -6.3      3.809      6.859
REMARK  Name = 
REMARK  13 active torsions:
REMARK  status: ('A' for Active; 'I' for Inactive)
REMARK    1  A    between atoms: C_1  and  C_2
REMARK    2  A    between atoms: C_2  and  O_3
REMARK    3  A    between atoms: O_3  and  C_4
REMARK    4  A    between atoms: C_6  and  N_7
REMARK    5  A    between atoms: N_7  and  S_8
REMARK    6  A    between atoms: S_8  and  C_11
REMARK    7  A    between atoms: C_14  and  O_15
REMARK    8  A    between atoms: O_15  and  C_16
REMARK    9  A    between atoms: C_19  and  O_20
REMARK   10  A    between atoms: O_20  and  C_21
REMARK   11  A    between atoms: C_21  and  C_22
REMARK   12  A    between atoms: C_24  and  N_25
REMARK   13  A    between atoms: C_26  and  C_27
REMARK                            x       y       z     vdW  Elec       q    Type
REMARK                         _______ _______ _______ _____ _____    ______ ____
ROOT
ATOM      1  C   UNL     1      -2.600  11.009  18.473  0.00  0.00    +0.000 A 
ATOM      2  C   UNL     1      -1.350  10.400  18.735  0.00  0.00    +0.000 A 
ATOM      3  C   UNL     1      -0.488  10.888  19.727  0.00  0.00    +0.000 A 
ATOM      4  C   UNL     1      -0.847  12.043  20.424  0.00  0.00    +0.000 A 
ATOM      5  C   UNL     1      -2.102  12.624  20.188  0.00  0.00    +0.000 A 
ATOM      6  C   UNL     1      -3.013  12.117  19.237  0.00  0.00    +0.000 A 
ENDROOT
BRANCH   6   7
ATOM      7  N   UNL     1      -4.327  12.675  19.146  0.00  0.00    +0.000 N 
ATOM      8  C   UNL     1      -5.332  12.561  20.098  0.00  0.00    +0.000 C 
ATOM      9  C   UNL     1      -6.669  13.144  19.707  0.00  0.00    +0.000 C 
ATOM     10  O   UNL     1      -5.213  12.075  21.221  0.00  0.00    +0.000 OA
ATOM     11  H   UNL     1      -4.541  13.193  18.306  0.00  0.00    +0.000 HD
ENDBRANCH   6   7
BRANCH   3  12
ATOM     12  N   UNL     1       0.747  10.221  19.982  0.00  0.00    +0.000 N 
ATOM     13  H   UNL     1       1.382  10.082  19.197  0.00  0.00    +0.000 HD
BRANCH  12  14
ATOM     14  S   UNL     1       0.836   8.951  21.091  0.00  0.00    +0.000 S 
ATOM     15  O   UNL     1       1.753   9.377  22.140  0.00  0.00    +0.000 OA
ATOM     16  O   UNL     1      -0.489   8.448  21.409  0.00  0.00    +0.000 OA
BRANCH  14  17
ATOM     17  C   UNL     1       1.678   7.677  20.168  0.00  0.00    +0.000 A 
ATOM     18  C   UNL     1       2.218   7.964  18.909  0.00  0.00    +0.000 A 
ATOM     19  C   UNL     1       2.764   6.923  18.153  0.00  0.00    +0.000 A 
ATOM     20  C   UNL     1       2.801   5.620  18.659  0.00  0.00    +0.000 A 
ATOM     21  C   UNL     1       2.285   5.355  19.930  0.00  0.00    +0.000 A 
ATOM     22  C   UNL     1       1.749   6.389  20.697  0.00  0.00    +0.000 A 
BRANCH  20  23
ATOM     23  O   UNL     1       3.309   4.678  17.807  0.00  0.00    +0.000 OA
ATOM     24  C   UNL     1       3.370   3.354  18.325  0.00  0.00    +0.000 C 
ENDBRANCH  20  23
ENDBRANCH  14  17
ENDBRANCH  12  14
ENDBRANCH   3  12
BRANCH   1  25
ATOM     25  O   UNL     1      -3.288  10.349  17.483  0.00  0.00    +0.000 OA
BRANCH  25  27
ATOM     26  C   UNL     1      -2.899  10.088  15.117  0.00  0.00    +0.000 C 
ATOM     27  C   UNL     1      -3.450  10.988  16.219  0.00  0.00    +0.000 C 
ENDBRANCH  25  27
ENDBRANCH   1  25
BRANCH   4  28
ATOM     28  O   UNL     1       0.041  12.521  21.347  0.00  0.00    +0.000 OA
BRANCH  28  29
ATOM     29  C   UNL     1       0.663  13.788  21.083  0.00  0.00    +0.000 C 
ATOM     30  C   UNL     1       2.130  13.498  20.807  0.00  0.00    +0.000 C 
ENDBRANCH  28  29
ENDBRANCH   4  28
TORSDOF 9
ENDMDL
