MODEL 1
REMARK VINA RESULT:      -9.3      0.000      0.000
REMARK  Name = 
REMARK  6 active torsions:
REMARK  status: ('A' for Active; 'I' for Inactive)
REMARK    1  A    between atoms: N_4  and  C_5
REMARK    2  A    between atoms: C_5  and  C_6
REMARK    3  A    between atoms: C_6  and  O_7
REMARK    4  A    between atoms: C_6  and  C_24
REMARK    5  A    between atoms: O_7  and  C_8
REMARK    6  A    between atoms: C_14  and  C_15
REMARK                            x       y       z     vdW  Elec       q    Type
REMARK                         _______ _______ _______ _____ _____    ______ ____
ROOT
ATOM      1  O   UNL     1       4.667   4.403  16.294  0.00  0.00    +0.000 OA
ENDROOT
BRANCH   1   2
ATOM      2  C   UNL     1       4.131   3.869  17.415  0.00  0.00    +0.000 A 
ATOM      3  N   UNL     1       4.199   2.554  17.646  0.00  0.00    +0.000 NA
ATOM      4  O   UNL     1       3.371   2.342  18.745  0.00  0.00    +0.000 OA
ATOM      5  C   UNL     1       2.832   3.527  19.144  0.00  0.00    +0.000 A 
ATOM      6  C   UNL     1       1.897   3.714  20.153  0.00  0.00    +0.000 A 
ATOM      7  C   UNL     1       1.490   5.039  20.385  0.00  0.00    +0.000 A 
ATOM      8  C   UNL     1       2.045   6.149  19.714  0.00  0.00    +0.000 A 
ATOM      9  C   UNL     1       2.954   5.876  18.659  0.00  0.00    +0.000 A 
ATOM     10  C   UNL     1       3.336   4.548  18.363  0.00  0.00    +0.000 A 
BRANCH   8  11
ATOM     11  C   UNL     1       1.689   7.558  20.080  0.00  0.00    +0.000 A 
ATOM     12  C   UNL     1       1.276   7.846  21.403  0.00  0.00    +0.000 A 
ATOM     13  C   UNL     1       0.896   9.133  21.810  0.00  0.00    +0.000 A 
ATOM     14  C   UNL     1       0.950  10.191  20.915  0.00  0.00    +0.000 A 
ATOM     15  C   UNL     1       1.355   9.955  19.607  0.00  0.00    +0.000 A 
ATOM     16  C   UNL     1       1.696   8.658  19.184  0.00  0.00    +0.000 A 
ATOM     17 CL   UNL     1       2.028   8.518  17.485  0.00  0.00    +0.000 Cl
ENDBRANCH   8  11
ENDBRANCH   1   2
BRANCH   1  18
ATOM     18  C   UNL     1       6.074   4.181  16.111  0.00  0.00    +0.000 C 
BRANCH  18  19
ATOM     19  C   UNL     1       6.751   5.211  17.019  0.00  0.00    +0.000 A 
ATOM     20  C   UNL     1       7.387   4.789  18.197  0.00  0.00    +0.000 A 
ATOM     21  C   UNL     1       8.053   5.704  19.015  0.00  0.00    +0.000 A 
ATOM     22  C   UNL     1       8.089   7.055  18.674  0.00  0.00    +0.000 A 
ATOM     23  C   UNL     1       7.436   7.497  17.528  0.00  0.00    +0.000 A 
ATOM     24  C   UNL     1       6.759   6.586  16.718  0.00  0.00    +0.000 A 
ENDBRANCH  18  19
BRANCH  18  25
ATOM     25  C   UNL     1       6.540   4.306  14.630  0.00  0.00    +0.000 C 
BRANCH  25  29
ATOM     26  N   UNL     1       6.665   2.873  12.105  0.00  0.00    +0.000 NA
ATOM     27  C   UNL     1       5.575   3.391  12.536  0.00  0.00    +0.000 C 
ATOM     28  N   UNL     1       4.409   3.316  11.863  0.00  0.00    +0.000 N 
ATOM     29  N   UNL     1       5.430   4.035  13.711  0.00  0.00    +0.000 N 
ATOM     30  H   UNL     1       6.507   2.456  11.187  0.00  0.00    +0.000 HD
ATOM     31  H   UNL     1       4.402   2.645  11.109  0.00  0.00    +0.000 HD
ATOM     32  H   UNL     1       3.615   3.168  12.477  0.00  0.00    +0.000 HD
ATOM     33  H   UNL     1       4.677   4.709  13.749  0.00  0.00    +0.000 HD
ENDBRANCH  25  29
ENDBRANCH  18  25
ENDBRANCH   1  18
TORSDOF 6
ENDMDL
MODEL 2
REMARK VINA RESULT:      -9.3      1.063      1.748
REMARK  Name = 
REMARK  6 active torsions:
REMARK  status: ('A' for Active; 'I' for Inactive)
REMARK    1  A    between atoms: N_4  and  C_5
REMARK    2  A    between atoms: C_5  and  C_6
REMARK    3  A    between atoms: C_6  and  O_7
REMARK    4  A    between atoms: C_6  and  C_24
REMARK    5  A    between atoms: O_7  and  C_8
REMARK    6  A    between atoms: C_14  and  C_15
REMARK                            x       y       z     vdW  Elec       q    Type
REMARK                         _______ _______ _______ _____ _____    ______ ____
ROOT
ATOM      1  O   UNL     1       4.742   4.319  16.161  0.00  0.00    +0.000 OA
ENDROOT
BRANCH   1   2
ATOM      2  C   UNL     1       4.259   4.095  17.404  0.00  0.00    +0.000 A 
ATOM      3  N   UNL     1       4.359   2.889  17.969  0.00  0.00    +0.000 NA
ATOM      4  O   UNL     1       3.577   2.968  19.119  0.00  0.00    +0.000 OA
ATOM      5  C   UNL     1       3.032   4.212  19.213  0.00  0.00    +0.000 A 
ATOM      6  C   UNL     1       2.132   4.651  20.175  0.00  0.00    +0.000 A 
ATOM      7  C   UNL     1       1.710   5.988  20.067  0.00  0.00    +0.000 A 
ATOM      8  C   UNL     1       2.220   6.886  19.105  0.00  0.00    +0.000 A 
ATOM      9  C   UNL     1       3.094   6.351  18.123  0.00  0.00    +0.000 A 
ATOM     10  C   UNL     1       3.488   4.995  18.171  0.00  0.00    +0.000 A 
BRANCH   8  11
ATOM     11  C   UNL     1       1.853   8.339  19.101  0.00  0.00    +0.000 A 
ATOM     12  C   UNL     1       2.173   9.130  17.972  0.00  0.00    +0.000 A 
ATOM     13  C   UNL     1       1.891  10.502  17.910  0.00  0.00    +0.000 A 
ATOM     14  C   UNL     1       1.244  11.129  18.964  0.00  0.00    +0.000 A 
ATOM     15  C   UNL     1       0.905  10.389  20.090  0.00  0.00    +0.000 A 
ATOM     16  C   UNL     1       1.224   9.022  20.174  0.00  0.00    +0.000 A 
ATOM     17 CL   UNL     1       0.868   8.292  21.709  0.00  0.00    +0.000 Cl
ENDBRANCH   8  11
ENDBRANCH   1   2
BRANCH   1  18
ATOM     18  C   UNL     1       6.147   4.074  15.987  0.00  0.00    +0.000 C 
BRANCH  18  19
ATOM     19  C   UNL     1       6.834   5.091  16.902  0.00  0.00    +0.000 A 
ATOM     20  C   UNL     1       6.836   6.451  16.555  0.00  0.00    +0.000 A 
ATOM     21  C   UNL     1       7.413   7.402  17.398  0.00  0.00    +0.000 A 
ATOM     22  C   UNL     1       8.004   7.011  18.599  0.00  0.00    +0.000 A 
ATOM     23  C   UNL     1       8.040   5.664  18.944  0.00  0.00    +0.000 A 
ATOM     24  C   UNL     1       7.476   4.712  18.096  0.00  0.00    +0.000 A 
ENDBRANCH  18  19
BRANCH  18  25
ATOM     25  C   UNL     1       6.625   4.195  14.509  0.00  0.00    +0.000 C 
BRANCH  25  29
ATOM     26  N   UNL     1       6.721   2.758  11.985  0.00  0.00    +0.000 NA
ATOM     27  C   UNL     1       5.646   3.313  12.408  0.00  0.00    +0.000 C 
ATOM     28  N   UNL     1       4.482   3.277  11.727  0.00  0.00    +0.000 N 
ATOM     29  N   UNL     1       5.514   3.961  13.583  0.00  0.00    +0.000 N 
ATOM     30  H   UNL     1       6.555   2.348  11.066  0.00  0.00    +0.000 HD
ATOM     31  H   UNL     1       4.459   2.606  10.973  0.00  0.00    +0.000 HD
ATOM     32  H   UNL     1       3.679   3.156  12.334  0.00  0.00    +0.000 HD
ATOM     33  H   UNL     1       4.783   4.661  13.614  0.00  0.00    +0.000 HD
ENDBRANCH  25  29
ENDBRANCH  18  25
ENDBRANCH   1  18
TORSDOF 6
ENDMDL
MODEL 3
REMARK VINA RESULT:      -9.2      2.269      4.043
REMARK  Name = 
REMARK  6 active torsions:
REMARK  status: ('A' for Active; 'I' for Inactive)
REMARK    1  A    between atoms: N_4  and  C_5
REMARK    2  A    between atoms: C_5  and  C_6
REMARK    3  A    between atoms: C_6  and  O_7
REMARK    4  A    between atoms: C_6  and  C_24
REMARK    5  A    between atoms: O_7  and  C_8
REMARK    6  A    between atoms: C_14  and  C_15
REMARK                            x       y       z     vdW  Elec       q    Type
REMARK                         _______ _______ _______ _____ _____    ______ ____
ROOT
ATOM      1  O   UNL     1       4.666   4.140  16.341  0.00  0.00    +0.000 OA
ENDROOT
BRANCH   1   2
ATOM      2  C   UNL     1       4.273   4.003  17.628  0.00  0.00    +0.000 A 
ATOM      3  N   UNL     1       4.444   2.847  18.275  0.00  0.00    +0.000 NA
ATOM      4  O   UNL     1       3.740   2.998  19.467  0.00  0.00    +0.000 OA
ATOM      5  C   UNL     1       3.168   4.234  19.503  0.00  0.00    +0.000 A 
ATOM      6  C   UNL     1       2.324   4.726  20.489  0.00  0.00    +0.000 A 
ATOM      7  C   UNL     1       1.858   6.040  20.309  0.00  0.00    +0.000 A 
ATOM      8  C   UNL     1       2.277   6.871  19.248  0.00  0.00    +0.000 A 
ATOM      9  C   UNL     1       3.097   6.281  18.251  0.00  0.00    +0.000 A 
ATOM     10  C   UNL     1       3.531   4.942  18.376  0.00  0.00    +0.000 A 
BRANCH   8  11
ATOM     11  C   UNL     1       1.870   8.311  19.159  0.00  0.00    +0.000 A 
ATOM     12  C   UNL     1       2.189   9.049  17.993  0.00  0.00    +0.000 A 
ATOM     13  C   UNL     1       1.870  10.407  17.852  0.00  0.00    +0.000 A 
ATOM     14  C   UNL     1       1.188  11.071  18.859  0.00  0.00    +0.000 A 
ATOM     15  C   UNL     1       0.849  10.384  20.018  0.00  0.00    +0.000 A 
ATOM     16  C   UNL     1       1.205   9.034  20.183  0.00  0.00    +0.000 A 
ATOM     17 CL   UNL     1       0.842   8.378  21.749  0.00  0.00    +0.000 Cl
ENDBRANCH   8  11
ENDBRANCH   1   2
BRANCH   1  18
ATOM     18  C   UNL     1       5.845   4.932  16.131  0.00  0.00    +0.000 C 
BRANCH  18  19
ATOM     19  C   UNL     1       6.270   4.621  14.693  0.00  0.00    +0.000 A 
ATOM     20  C   UNL     1       5.537   3.694  13.936  0.00  0.00    +0.000 A 
ATOM     21  C   UNL     1       5.877   3.432  12.608  0.00  0.00    +0.000 A 
ATOM     22  C   UNL     1       6.957   4.085  12.015  0.00  0.00    +0.000 A 
ATOM     23  C   UNL     1       7.714   4.983  12.760  0.00  0.00    +0.000 A 
ATOM     24  C   UNL     1       7.384   5.235  14.091  0.00  0.00    +0.000 A 
ENDBRANCH  18  19
BRANCH  18  25
ATOM     25  C   UNL     1       6.983   4.645  17.156  0.00  0.00    +0.000 C 
BRANCH  25  29
ATOM     26  N   UNL     1       7.626   5.498  19.859  0.00  0.00    +0.000 NA
ATOM     27  C   UNL     1       7.879   6.231  18.839  0.00  0.00    +0.000 C 
ATOM     28  N   UNL     1       8.459   7.446  18.932  0.00  0.00    +0.000 N 
ATOM     29  N   UNL     1       7.647   5.889  17.556  0.00  0.00    +0.000 N 
ATOM     30  H   UNL     1       7.886   5.995  20.711  0.00  0.00    +0.000 HD
ATOM     31  H   UNL     1       8.874   7.644  19.831  0.00  0.00    +0.000 HD
ATOM     32  H   UNL     1       9.127   7.616  18.188  0.00  0.00    +0.000 HD
ATOM     33  H   UNL     1       7.517   6.662  16.916  0.00  0.00    +0.000 HD
ENDBRANCH  25  29
ENDBRANCH  18  25
ENDBRANCH   1  18
TORSDOF 6
ENDMDL
MODEL 4
REMARK VINA RESULT:      -9.2      0.497      1.156
REMARK  Name = 
REMARK  6 active torsions:
REMARK  status: ('A' for Active; 'I' for Inactive)
REMARK    1  A    between atoms: N_4  and  C_5
REMARK    2  A    between atoms: C_5  and  C_6
REMARK    3  A    between atoms: C_6  and  O_7
REMARK    4  A    between atoms: C_6  and  C_24
REMARK    5  A    between atoms: O_7  and  C_8
REMARK    6  A    between atoms: C_14  and  C_15
REMARK                            x       y       z     vdW  Elec       q    Type
REMARK                         _______ _______ _______ _____ _____    ______ ____
ROOT
ATOM      1  O   UNL     1       4.210   4.365  16.193  0.00  0.00    +0.000 OA
ENDROOT
BRANCH   1   2
ATOM      2  C   UNL     1       3.980   3.934  17.454  0.00  0.00    +0.000 A 
ATOM      3  N   UNL     1       4.251   2.674  17.806  0.00  0.00    +0.000 NA
ATOM      4  O   UNL     1       3.694   2.530  19.074  0.00  0.00    +0.000 OA
ATOM      5  C   UNL     1       3.106   3.700  19.447  0.00  0.00    +0.000 A 
ATOM      6  C   UNL     1       2.377   3.926  20.607  0.00  0.00    +0.000 A 
ATOM      7  C   UNL     1       1.867   5.225  20.776  0.00  0.00    +0.000 A 
ATOM      8  C   UNL     1       2.136   6.286  19.886  0.00  0.00    +0.000 A 
ATOM      9  C   UNL     1       2.842   5.965  18.696  0.00  0.00    +0.000 A 
ATOM     10  C   UNL     1       3.314   4.653  18.471  0.00  0.00    +0.000 A 
BRANCH   8  11
ATOM     11  C   UNL     1       1.693   7.690  20.164  0.00  0.00    +0.000 A 
ATOM     12  C   UNL     1       1.234   8.026  21.461  0.00  0.00    +0.000 A 
ATOM     13  C   UNL     1       0.772   9.309  21.786  0.00  0.00    +0.000 A 
ATOM     14  C   UNL     1       0.786  10.317  20.834  0.00  0.00    +0.000 A 
ATOM     15  C   UNL     1       1.234  10.033  19.550  0.00  0.00    +0.000 A 
ATOM     16  C   UNL     1       1.658   8.737  19.207  0.00  0.00    +0.000 A 
ATOM     17 CL   UNL     1       2.036   8.523  17.526  0.00  0.00    +0.000 Cl
ENDBRANCH   8  11
ENDBRANCH   1   2
BRANCH   1  18
ATOM     18  C   UNL     1       5.562   4.230  15.727  0.00  0.00    +0.000 C 
BRANCH  18  19
ATOM     19  C   UNL     1       6.387   5.114  16.667  0.00  0.00    +0.000 A 
ATOM     20  C   UNL     1       6.325   6.510  16.541  0.00  0.00    +0.000 A 
ATOM     21  C   UNL     1       7.030   7.337  17.418  0.00  0.00    +0.000 A 
ATOM     22  C   UNL     1       7.813   6.783  18.430  0.00  0.00    +0.000 A 
ATOM     23  C   UNL     1       7.911   5.401  18.550  0.00  0.00    +0.000 A 
ATOM     24  C   UNL     1       7.219   4.575  17.666  0.00  0.00    +0.000 A 
ENDBRANCH  18  19
BRANCH  18  25
ATOM     25  C   UNL     1       5.751   4.623  14.232  0.00  0.00    +0.000 C 
BRANCH  25  29
ATOM     26  N   UNL     1       4.657   3.615  11.735  0.00  0.00    +0.000 NA
ATOM     27  C   UNL     1       5.650   3.051  12.316  0.00  0.00    +0.000 C 
ATOM     28  N   UNL     1       6.265   1.956  11.824  0.00  0.00    +0.000 N 
ATOM     29  N   UNL     1       6.236   3.481  13.451  0.00  0.00    +0.000 N 
ATOM     30  H   UNL     1       4.401   3.085  10.903  0.00  0.00    +0.000 HD
ATOM     31  H   UNL     1       6.032   1.739  10.866  0.00  0.00    +0.000 HD
ATOM     32  H   UNL     1       7.272   1.987  11.946  0.00  0.00    +0.000 HD
ATOM     33  H   UNL     1       6.710   2.770  13.994  0.00  0.00    +0.000 HD
ENDBRANCH  25  29
ENDBRANCH  18  25
ENDBRANCH   1  18
TORSDOF 6
ENDMDL
MODEL 5
REMARK VINA RESULT:      -9.0      1.944      3.830
REMARK  Name = 
REMARK  6 active torsions:
REMARK  status: ('A' for Active; 'I' for Inactive)
REMARK    1  A    between atoms: N_4  and  C_5
REMARK    2  A    between atoms: C_5  and  C_6
REMARK    3  A    between atoms: C_6  and  O_7
REMARK    4  A    between atoms: C_6  and  C_24
REMARK    5  A    between atoms: O_7  and  C_8
REMARK    6  A    between atoms: C_14  and  C_15
REMARK                            x       y       z     vdW  Elec       q    Type
REMARK                         _______ _______ _______ _____ _____    ______ ____
ROOT
ATOM      1  O   UNL     1       4.496   4.982  16.144  0.00  0.00    +0.000 OA
ENDROOT
BRANCH   1   2
ATOM      2  C   UNL     1       4.215   4.464  17.361  0.00  0.00    +0.000 A 
ATOM      3  N   UNL     1       4.506   3.192  17.646  0.00  0.00    +0.000 NA
ATOM      4  O   UNL     1       3.889   2.951  18.871  0.00  0.00    +0.000 OA
ATOM      5  C   UNL     1       3.248   4.079  19.286  0.00  0.00    +0.000 A 
ATOM      6  C   UNL     1       2.454   4.210  20.418  0.00  0.00    +0.000 A 
ATOM      7  C   UNL     1       1.897   5.481  20.642  0.00  0.00    +0.000 A 
ATOM      8  C   UNL     1       2.180   6.604  19.835  0.00  0.00    +0.000 A 
ATOM      9  C   UNL     1       2.955   6.380  18.667  0.00  0.00    +0.000 A 
ATOM     10  C   UNL     1       3.477   5.098  18.385  0.00  0.00    +0.000 A 
BRANCH   8  11
ATOM     11  C   UNL     1       1.681   7.975  20.178  0.00  0.00    +0.000 A 
ATOM     12  C   UNL     1       1.374   8.283  21.526  0.00  0.00    +0.000 A 
ATOM     13  C   UNL     1       0.872   9.531  21.917  0.00  0.00    +0.000 A 
ATOM     14  C   UNL     1       0.691  10.535  20.977  0.00  0.00    +0.000 A 
ATOM     15  C   UNL     1       0.986  10.279  19.644  0.00  0.00    +0.000 A 
ATOM     16  C   UNL     1       1.449   9.014  19.241  0.00  0.00    +0.000 A 
ATOM     17 CL   UNL     1       1.619   8.822  17.523  0.00  0.00    +0.000 Cl
ENDBRANCH   8  11
ENDBRANCH   1   2
BRANCH   1  18
ATOM     18  C   UNL     1       5.862   5.374  15.936  0.00  0.00    +0.000 C 
BRANCH  18  19
ATOM     19  C   UNL     1       6.206   4.854  14.537  0.00  0.00    +0.000 A 
ATOM     20  C   UNL     1       7.361   5.316  13.888  0.00  0.00    +0.000 A 
ATOM     21  C   UNL     1       7.721   4.819  12.633  0.00  0.00    +0.000 A 
ATOM     22  C   UNL     1       6.929   3.859  12.004  0.00  0.00    +0.000 A 
ATOM     23  C   UNL     1       5.763   3.415  12.618  0.00  0.00    +0.000 A 
ATOM     24  C   UNL     1       5.396   3.920  13.864  0.00  0.00    +0.000 A 
ENDBRANCH  18  19
BRANCH  18  25
ATOM     25  C   UNL     1       6.841   4.835  17.021  0.00  0.00    +0.000 C 
BRANCH  25  29
ATOM     26  N   UNL     1       7.272   5.459  19.826  0.00  0.00    +0.000 NA
ATOM     27  C   UNL     1       7.781   6.169  18.888  0.00  0.00    +0.000 C 
ATOM     28  N   UNL     1       8.550   7.252  19.121  0.00  0.00    +0.000 N 
ATOM     29  N   UNL     1       7.659   5.921  17.569  0.00  0.00    +0.000 N 
ATOM     30  H   UNL     1       7.504   5.869  20.730  0.00  0.00    +0.000 HD
ATOM     31  H   UNL     1       8.874   7.340  20.073  0.00  0.00    +0.000 HD
ATOM     32  H   UNL     1       9.328   7.323  18.473  0.00  0.00    +0.000 HD
ATOM     33  H   UNL     1       7.751   6.726  16.963  0.00  0.00    +0.000 HD
ENDBRANCH  25  29
ENDBRANCH  18  25
ENDBRANCH   1  18
TORSDOF 6
ENDMDL
MODEL 6
REMARK VINA RESULT:      -8.9      1.056      1.583
REMARK  Name = 
REMARK  6 active torsions:
REMARK  status: ('A' for Active; 'I' for Inactive)
REMARK    1  A    between atoms: N_4  and  C_5
REMARK    2  A    between atoms: C_5  and  C_6
REMARK    3  A    between atoms: C_6  and  O_7
REMARK    4  A    between atoms: C_6  and  C_24
REMARK    5  A    between atoms: O_7  and  C_8
REMARK    6  A    between atoms: C_14  and  C_15
REMARK                            x       y       z     vdW  Elec       q    Type
REMARK                         _______ _______ _______ _____ _____    ______ ____
ROOT
ATOM      1  O   UNL     1       4.392   4.407  16.615  0.00  0.00    +0.000 OA
ENDROOT
BRANCH   1   2
ATOM      2  C   UNL     1       3.955   3.987  17.824  0.00  0.00    +0.000 A 
ATOM      3  N   UNL     1       4.078   2.708  18.189  0.00  0.00    +0.000 NA
ATOM      4  O   UNL     1       3.339   2.600  19.364  0.00  0.00    +0.000 OA
ATOM      5  C   UNL     1       2.795   3.810  19.671  0.00  0.00    +0.000 A 
ATOM      6  C   UNL     1       1.930   4.085  20.722  0.00  0.00    +0.000 A 
ATOM      7  C   UNL     1       1.501   5.419  20.840  0.00  0.00    +0.000 A 
ATOM      8  C   UNL     1       1.973   6.460  20.014  0.00  0.00    +0.000 A 
ATOM      9  C   UNL     1       2.812   6.093  18.929  0.00  0.00    +0.000 A 
ATOM     10  C   UNL     1       3.210   4.749  18.750  0.00  0.00    +0.000 A 
BRANCH   8  11
ATOM     11  C   UNL     1       1.602   7.893  20.251  0.00  0.00    +0.000 A 
ATOM     12  C   UNL     1       1.243   8.308  21.556  0.00  0.00    +0.000 A 
ATOM     13  C   UNL     1       0.854   9.622  21.847  0.00  0.00    +0.000 A 
ATOM     14  C   UNL     1       0.843  10.584  20.848  0.00  0.00    +0.000 A 
ATOM     15  C   UNL     1       1.195  10.222  19.554  0.00  0.00    +0.000 A 
ATOM     16  C   UNL     1       1.544   8.895  19.248  0.00  0.00    +0.000 A 
ATOM     17 CL   UNL     1       1.803   8.589  17.559  0.00  0.00    +0.000 Cl
ENDBRANCH   8  11
ENDBRANCH   1   2
BRANCH   1  18
ATOM     18  C   UNL     1       5.765   4.110  16.313  0.00  0.00    +0.000 C 
BRANCH  18  19
ATOM     19  C   UNL     1       6.567   5.168  17.077  0.00  0.00    +0.000 A 
ATOM     20  C   UNL     1       6.422   6.524  16.747  0.00  0.00    +0.000 A 
ATOM     21  C   UNL     1       7.106   7.509  17.462  0.00  0.00    +0.000 A 
ATOM     22  C   UNL     1       7.950   7.156  18.513  0.00  0.00    +0.000 A 
ATOM     23  C   UNL     1       8.131   5.814  18.833  0.00  0.00    +0.000 A 
ATOM     24  C   UNL     1       7.460   4.829  18.111  0.00  0.00    +0.000 A 
ENDBRANCH  18  19
BRANCH  18  25
ATOM     25  C   UNL     1       6.086   4.115  14.788  0.00  0.00    +0.000 C 
BRANCH  25  29
ATOM     26  N   UNL     1       7.317   4.596  12.200  0.00  0.00    +0.000 NA
ATOM     27  C   UNL     1       7.760   5.140  13.272  0.00  0.00    +0.000 C 
ATOM     28  N   UNL     1       8.822   5.971  13.290  0.00  0.00    +0.000 N 
ATOM     29  N   UNL     1       7.221   4.997  14.500  0.00  0.00    +0.000 N 
ATOM     30  H   UNL     1       7.910   4.856  11.413  0.00  0.00    +0.000 HD
ATOM     31  H   UNL     1       9.109   6.305  12.382  0.00  0.00    +0.000 HD
ATOM     32  H   UNL     1       8.697   6.748  13.930  0.00  0.00    +0.000 HD
ATOM     33  H   UNL     1       7.858   5.132  15.274  0.00  0.00    +0.000 HD
ENDBRANCH  25  29
ENDBRANCH  18  25
ENDBRANCH   1  18
TORSDOF 6
ENDMDL
MODEL 7
REMARK VINA RESULT:      -8.8      1.481      1.975
REMARK  Name = 
REMARK  6 active torsions:
REMARK  status: ('A' for Active; 'I' for Inactive)
REMARK    1  A    between atoms: N_4  and  C_5
REMARK    2  A    between atoms: C_5  and  C_6
REMARK    3  A    between atoms: C_6  and  O_7
REMARK    4  A    between atoms: C_6  and  C_24
REMARK    5  A    between atoms: O_7  and  C_8
REMARK    6  A    between atoms: C_14  and  C_15
REMARK                            x       y       z     vdW  Elec       q    Type
REMARK                         _______ _______ _______ _____ _____    ______ ____
ROOT
ATOM      1  O   UNL     1       4.397   4.057  16.446  0.00  0.00    +0.000 OA
ENDROOT
BRANCH   1   2
ATOM      2  C   UNL     1       4.045   3.966  17.748  0.00  0.00    +0.000 A 
ATOM      3  N   UNL     1       4.209   2.824  18.423  0.00  0.00    +0.000 NA
ATOM      4  O   UNL     1       3.550   3.027  19.633  0.00  0.00    +0.000 OA
ATOM      5  C   UNL     1       3.011   4.278  19.653  0.00  0.00    +0.000 A 
ATOM      6  C   UNL     1       2.214   4.819  20.651  0.00  0.00    +0.000 A 
ATOM      7  C   UNL     1       1.777   6.140  20.450  0.00  0.00    +0.000 A 
ATOM      8  C   UNL     1       2.180   6.930  19.353  0.00  0.00    +0.000 A 
ATOM      9  C   UNL     1       2.950   6.291  18.346  0.00  0.00    +0.000 A 
ATOM     10  C   UNL     1       3.353   4.945  18.494  0.00  0.00    +0.000 A 
BRANCH   8  11
ATOM     11  C   UNL     1       1.807   8.377  19.236  0.00  0.00    +0.000 A 
ATOM     12  C   UNL     1       2.130   9.082  18.051  0.00  0.00    +0.000 A 
ATOM     13  C   UNL     1       1.844  10.443  17.883  0.00  0.00    +0.000 A 
ATOM     14  C   UNL     1       1.189  11.146  18.884  0.00  0.00    +0.000 A 
ATOM     15  C   UNL     1       0.848  10.493  20.061  0.00  0.00    +0.000 A 
ATOM     16  C   UNL     1       1.172   9.138  20.251  0.00  0.00    +0.000 A 
ATOM     17 CL   UNL     1       0.811   8.526  21.835  0.00  0.00    +0.000 Cl
ENDBRANCH   8  11
ENDBRANCH   1   2
BRANCH   1  18
ATOM     18  C   UNL     1       5.797   3.897  16.167  0.00  0.00    +0.000 C 
BRANCH  18  19
ATOM     19  C   UNL     1       6.478   5.028  16.943  0.00  0.00    +0.000 A 
ATOM     20  C   UNL     1       7.298   4.723  18.040  0.00  0.00    +0.000 A 
ATOM     21  C   UNL     1       7.968   5.733  18.732  0.00  0.00    +0.000 A 
ATOM     22  C   UNL     1       7.826   7.065  18.344  0.00  0.00    +0.000 A 
ATOM     23  C   UNL     1       6.993   7.389  17.279  0.00  0.00    +0.000 A 
ATOM     24  C   UNL     1       6.312   6.382  16.596  0.00  0.00    +0.000 A 
ENDBRANCH  18  19
BRANCH  18  25
ATOM     25  C   UNL     1       6.141   3.935  14.648  0.00  0.00    +0.000 C 
BRANCH  25  29
ATOM     26  N   UNL     1       7.349   4.546  12.077  0.00  0.00    +0.000 NA
ATOM     27  C   UNL     1       7.759   5.087  13.163  0.00  0.00    +0.000 C 
ATOM     28  N   UNL     1       8.774   5.975  13.205  0.00  0.00    +0.000 N 
ATOM     29  N   UNL     1       7.226   4.884  14.385  0.00  0.00    +0.000 N 
ATOM     30  H   UNL     1       7.930   4.858  11.298  0.00  0.00    +0.000 HD
ATOM     31  H   UNL     1       9.044   6.346  12.306  0.00  0.00    +0.000 HD
ATOM     32  H   UNL     1       8.605   6.728  13.863  0.00  0.00    +0.000 HD
ATOM     33  H   UNL     1       7.853   5.036  15.165  0.00  0.00    +0.000 HD
ENDBRANCH  25  29
ENDBRANCH  18  25
ENDBRANCH   1  18
TORSDOF 6
ENDMDL
MODEL 8
REMARK VINA RESULT:      -8.6      2.662      4.253
REMARK  Name = 
REMARK  6 active torsions:
REMARK  status: ('A' for Active; 'I' for Inactive)
REMARK    1  A    between atoms: N_4  and  C_5
REMARK    2  A    between atoms: C_5  and  C_6
REMARK    3  A    between atoms: C_6  and  O_7
REMARK    4  A    between atoms: C_6  and  C_24
REMARK    5  A    between atoms: O_7  and  C_8
REMARK    6  A    between atoms: C_14  and  C_15
REMARK                            x       y       z     vdW  Elec       q    Type
REMARK                         _______ _______ _______ _____ _____    ______ ____
ROOT
ATOM      1  O   UNL     1       3.303   6.268  18.181  0.00  0.00    +0.000 OA
ENDROOT
BRANCH   1   2
ATOM      2  C   UNL     1       2.665   6.494  19.351  0.00  0.00    +0.000 A 
ATOM      3  N   UNL     1       2.561   5.531  20.271  0.00  0.00    +0.000 NA
ATOM      4  O   UNL     1       1.674   6.036  21.218  0.00  0.00    +0.000 OA
ATOM      5  C   UNL     1       1.271   7.282  20.844  0.00  0.00    +0.000 A 
ATOM      6  C   UNL     1       0.329   8.074  21.485  0.00  0.00    +0.000 A 
ATOM      7  C   UNL     1       0.079   9.332  20.910  0.00  0.00    +0.000 A 
ATOM      8  C   UNL     1       0.791   9.830  19.798  0.00  0.00    +0.000 A 
ATOM      9  C   UNL     1       1.699   8.942  19.163  0.00  0.00    +0.000 A 
ATOM     10  C   UNL     1       1.924   7.649  19.685  0.00  0.00    +0.000 A 
BRANCH   8  11
ATOM     11  C   UNL     1       0.598  11.228  19.292  0.00  0.00    +0.000 A 
ATOM     12  C   UNL     1       1.624  12.183  19.489  0.00  0.00    +0.000 A 
ATOM     13  C   UNL     1       1.502  13.516  19.073  0.00  0.00    +0.000 A 
ATOM     14  C   UNL     1       0.359  13.937  18.410  0.00  0.00    +0.000 A 
ATOM     15  C   UNL     1      -0.671  13.031  18.190  0.00  0.00    +0.000 A 
ATOM     16  C   UNL     1      -0.570  11.704  18.644  0.00  0.00    +0.000 A 
ATOM     17 CL   UNL     1      -2.008  10.755  18.421  0.00  0.00    +0.000 Cl
ENDBRANCH   8  11
ENDBRANCH   1   2
BRANCH   1  18
ATOM     18  C   UNL     1       4.256   5.192  18.190  0.00  0.00    +0.000 C 
BRANCH  18  19
ATOM     19  C   UNL     1       5.622   5.884  18.160  0.00  0.00    +0.000 A 
ATOM     20  C   UNL     1       5.849   6.935  17.259  0.00  0.00    +0.000 A 
ATOM     21  C   UNL     1       7.070   7.613  17.248  0.00  0.00    +0.000 A 
ATOM     22  C   UNL     1       8.085   7.248  18.132  0.00  0.00    +0.000 A 
ATOM     23  C   UNL     1       7.888   6.187  19.010  0.00  0.00    +0.000 A 
ATOM     24  C   UNL     1       6.675   5.501  19.012  0.00  0.00    +0.000 A 
ENDBRANCH  18  19
BRANCH  18  25
ATOM     25  C   UNL     1       4.078   4.189  17.012  0.00  0.00    +0.000 C 
BRANCH  25  29
ATOM     26  N   UNL     1       1.295   3.756  17.727  0.00  0.00    +0.000 NA
ATOM     27  C   UNL     1       2.172   2.828  17.828  0.00  0.00    +0.000 C 
ATOM     28  N   UNL     1       1.882   1.586  18.269  0.00  0.00    +0.000 N 
ATOM     29  N   UNL     1       3.470   2.940  17.480  0.00  0.00    +0.000 N 
ATOM     30  H   UNL     1       0.396   3.416  18.067  0.00  0.00    +0.000 HD
ATOM     31  H   UNL     1       0.896   1.375  18.309  0.00  0.00    +0.000 HD
ATOM     32  H   UNL     1       2.379   0.865  17.756  0.00  0.00    +0.000 HD
ATOM     33  H   UNL     1       4.105   2.315  17.959  0.00  0.00    +0.000 HD
ENDBRANCH  25  29
ENDBRANCH  18  25
ENDBRANCH   1  18
TORSDOF 6
ENDMDL
MODEL 9
REMARK VINA RESULT:      -8.4      2.169      3.830
REMARK  Name = 
REMARK  6 active torsions:
REMARK  status: ('A' for Active; 'I' for Inactive)
REMARK    1  A    between atoms: N_4  and  C_5
REMARK    2  A    between atoms: C_5  and  C_6
REMARK    3  A    between atoms: C_6  and  O_7
REMARK    4  A    between atoms: C_6  and  C_24
REMARK    5  A    between atoms: O_7  and  C_8
REMARK    6  A    between atoms: C_14  and  C_15
REMARK                            x       y       z     vdW  Elec       q    Type
REMARK                         _______ _______ _______ _____ _____    ______ ____
ROOT
ATOM      1  O   UNL     1       4.340   5.181  15.986  0.00  0.00    +0.000 OA
ENDROOT
BRANCH   1   2
ATOM      2  C   UNL     1       4.220   4.690  17.240  0.00  0.00    +0.000 A 
ATOM      3  N   UNL     1       4.651   3.461  17.537  0.00  0.00    +0.000 NA
ATOM      4  O   UNL     1       4.174   3.216  18.823  0.00  0.00    +0.000 OA
ATOM      5  C   UNL     1       3.473   4.298  19.260  0.00  0.00    +0.000 A 
ATOM      6  C   UNL     1       2.777   4.405  20.457  0.00  0.00    +0.000 A 
ATOM      7  C   UNL     1       2.129   5.630  20.692  0.00  0.00    +0.000 A 
ATOM      8  C   UNL     1       2.233   6.740  19.827  0.00  0.00    +0.000 A 
ATOM      9  C   UNL     1       2.914   6.538  18.598  0.00  0.00    +0.000 A 
ATOM     10  C   UNL     1       3.524   5.297  18.309  0.00  0.00    +0.000 A 
BRANCH   8  11
ATOM     11  C   UNL     1       1.644   8.074  20.171  0.00  0.00    +0.000 A 
ATOM     12  C   UNL     1       1.238   8.328  21.504  0.00  0.00    +0.000 A 
ATOM     13  C   UNL     1       0.649   9.539  21.893  0.00  0.00    +0.000 A 
ATOM     14  C   UNL     1       0.475  10.558  20.969  0.00  0.00    +0.000 A 
ATOM     15  C   UNL     1       0.865  10.355  19.652  0.00  0.00    +0.000 A 
ATOM     16  C   UNL     1       1.417   9.126  19.247  0.00  0.00    +0.000 A 
ATOM     17 CL   UNL     1       1.701   8.991  17.540  0.00  0.00    +0.000 Cl
ENDBRANCH   8  11
ENDBRANCH   1   2
BRANCH   1  18
ATOM     18  C   UNL     1       5.592   5.818  15.685  0.00  0.00    +0.000 C 
BRANCH  18  19
ATOM     19  C   UNL     1       6.111   5.085  14.445  0.00  0.00    +0.000 A 
ATOM     20  C   UNL     1       5.330   4.081  13.852  0.00  0.00    +0.000 A 
ATOM     21  C   UNL     1       5.760   3.434  12.692  0.00  0.00    +0.000 A 
ATOM     22  C   UNL     1       6.981   3.773  12.109  0.00  0.00    +0.000 A 
ATOM     23  C   UNL     1       7.783   4.742  12.701  0.00  0.00    +0.000 A 
ATOM     24  C   UNL     1       7.360   5.379  13.867  0.00  0.00    +0.000 A 
ENDBRANCH  18  19
BRANCH  18  25
ATOM     25  C   UNL     1       6.613   5.780  16.861  0.00  0.00    +0.000 C 
BRANCH  25  29
ATOM     26  N   UNL     1       8.234   6.626  19.120  0.00  0.00    +0.000 NA
ATOM     27  C   UNL     1       7.919   7.431  18.174  0.00  0.00    +0.000 C 
ATOM     28  N   UNL     1       8.307   8.722  18.146  0.00  0.00    +0.000 N 
ATOM     29  N   UNL     1       7.205   7.103  17.077  0.00  0.00    +0.000 N 
ATOM     30  H   UNL     1       8.765   7.127  19.832  0.00  0.00    +0.000 HD
ATOM     31  H   UNL     1       9.037   8.955  18.803  0.00  0.00    +0.000 HD
ATOM     32  H   UNL     1       8.558   9.033  17.214  0.00  0.00    +0.000 HD
ATOM     33  H   UNL     1       6.706   7.866  16.639  0.00  0.00    +0.000 HD
ENDBRANCH  25  29
ENDBRANCH  18  25
ENDBRANCH   1  18
TORSDOF 6
ENDMDL
