MODEL 1
REMARK VINA RESULT:      -8.7      0.000      0.000
REMARK  Name = 
REMARK  7 active torsions:
REMARK  status: ('A' for Active; 'I' for Inactive)
REMARK    1  A    between atoms: C_2  and  C_3
REMARK    2  A    between atoms: C_7  and  C_8
REMARK    3  A    between atoms: C_8  and  O_9
REMARK    4  A    between atoms: O_9  and  C_10
REMARK    5  A    between atoms: C_15  and  C_16
REMARK    6  A    between atoms: N_19  and  C_20
REMARK    7  A    between atoms: C_25  and  O_26
REMARK                            x       y       z     vdW  Elec       q    Type
REMARK                         _______ _______ _______ _____ _____    ______ ____
ROOT
ATOM      1  C   UNL     1       3.772   3.991  19.252  0.00  0.00    +0.000 A 
ATOM      2  C   UNL     1       3.947   2.613  19.072  0.00  0.00    +0.000 A 
ATOM      3  C   UNL     1       2.906   1.829  18.580  0.00  0.00    +0.000 A 
ATOM      4  C   UNL     1       1.677   2.411  18.279  0.00  0.00    +0.000 A 
ATOM      5  C   UNL     1       1.473   3.774  18.502  0.00  0.00    +0.000 A 
ATOM      6  C   UNL     1       2.511   4.570  19.007  0.00  0.00    +0.000 A 
ENDROOT
BRANCH   6   7
ATOM      7  C   UNL     1       2.264   5.995  19.294  0.00  0.00    +0.000 A 
ATOM      8  C   UNL     1       1.760   6.475  20.564  0.00  0.00    +0.000 A 
ATOM      9  C   UNL     1       1.339   7.738  20.689  0.00  0.00    +0.000 A 
ATOM     10  N   UNL     1       1.405   8.631  19.629  0.00  0.00    +0.000 N 
ATOM     11  C   UNL     1       2.032   8.287  18.430  0.00  0.00    +0.000 A 
ATOM     12  O   UNL     1       2.221   9.059  17.493  0.00  0.00    +0.000 OA
ATOM     13  C   UNL     1       2.443   6.867  18.287  0.00  0.00    +0.000 A 
BRANCH  10  14
ATOM     14  C   UNL     1       0.823   9.983  19.751  0.00  0.00    +0.000 C 
ATOM     15  C   UNL     1      -0.336  10.196  18.764  0.00  0.00    +0.000 C 
ATOM     16  C   UNL     1      -0.940  11.592  18.879  0.00  0.00    +0.000 C 
ATOM     17  C   UNL     1      -1.350  11.907  20.314  0.00  0.00    +0.000 C 
ATOM     18  C   UNL     1      -0.181  11.739  21.276  0.00  0.00    +0.000 C 
ATOM     19  C   UNL     1       0.422  10.335  21.202  0.00  0.00    +0.000 C 
BRANCH  19  20
ATOM     20  O   UNL     1       1.546  10.286  22.085  0.00  0.00    +0.000 OA
ATOM     21  H   UNL     1       2.291  10.743  21.653  0.00  0.00    +0.000 HD
ENDBRANCH  19  20
ENDBRANCH  10  14
ENDBRANCH   6   7
BRANCH   1  22
ATOM     22  O   UNL     1       4.773   4.823  19.690  0.00  0.00    +0.000 OA
BRANCH  22  23
ATOM     23  C   UNL     1       5.982   4.784  18.930  0.00  0.00    +0.000 C 
BRANCH  23  28
ATOM     24  C   UNL     1       5.780   4.845  15.094  0.00  0.00    +0.000 A 
ATOM     25  C   UNL     1       5.391   6.170  14.878  0.00  0.00    +0.000 A 
ATOM     26  C   UNL     1       5.182   7.021  15.959  0.00  0.00    +0.000 A 
ATOM     27  C   UNL     1       5.370   6.552  17.258  0.00  0.00    +0.000 A 
ATOM     28  C   UNL     1       5.769   5.223  17.496  0.00  0.00    +0.000 A 
ATOM     29  C   UNL     1       5.966   4.370  16.399  0.00  0.00    +0.000 A 
BRANCH  24  31
ATOM     30  N   UNL     1       6.197   3.335  13.027  0.00  0.00    +0.000 NA
ATOM     31  C   UNL     1       5.996   3.993  13.963  0.00  0.00    +0.000 C 
ENDBRANCH  24  31
ENDBRANCH  23  28
ENDBRANCH  22  23
ENDBRANCH   1  22
TORSDOF 7
ENDMDL
MODEL 2
REMARK VINA RESULT:      -8.3      2.217      8.023
REMARK  Name = 
REMARK  7 active torsions:
REMARK  status: ('A' for Active; 'I' for Inactive)
REMARK    1  A    between atoms: C_2  and  C_3
REMARK    2  A    between atoms: C_7  and  C_8
REMARK    3  A    between atoms: C_8  and  O_9
REMARK    4  A    between atoms: O_9  and  C_10
REMARK    5  A    between atoms: C_15  and  C_16
REMARK    6  A    between atoms: N_19  and  C_20
REMARK    7  A    between atoms: C_25  and  O_26
REMARK                            x       y       z     vdW  Elec       q    Type
REMARK                         _______ _______ _______ _____ _____    ______ ____
ROOT
ATOM      1  C   UNL     1       2.360   4.676  19.742  0.00  0.00    +0.000 A 
ATOM      2  C   UNL     1       1.573   4.327  20.846  0.00  0.00    +0.000 A 
ATOM      3  C   UNL     1       1.898   3.214  21.620  0.00  0.00    +0.000 A 
ATOM      4  C   UNL     1       3.002   2.433  21.289  0.00  0.00    +0.000 A 
ATOM      5  C   UNL     1       3.765   2.740  20.161  0.00  0.00    +0.000 A 
ATOM      6  C   UNL     1       3.440   3.850  19.369  0.00  0.00    +0.000 A 
ENDROOT
BRANCH   6   7
ATOM      7  C   UNL     1       4.219   4.128  18.148  0.00  0.00    +0.000 A 
ATOM      8  C   UNL     1       3.622   4.245  16.834  0.00  0.00    +0.000 A 
ATOM      9  C   UNL     1       4.393   4.266  15.742  0.00  0.00    +0.000 A 
ATOM     10  N   UNL     1       5.777   4.216  15.833  0.00  0.00    +0.000 N 
ATOM     11  C   UNL     1       6.424   4.273  17.068  0.00  0.00    +0.000 A 
ATOM     12  O   UNL     1       7.642   4.341  17.218  0.00  0.00    +0.000 OA
ATOM     13  C   UNL     1       5.555   4.192  18.270  0.00  0.00    +0.000 A 
BRANCH  10  14
ATOM     14  C   UNL     1       6.604   4.117  14.614  0.00  0.00    +0.000 C 
ATOM     15  C   UNL     1       5.861   3.397  13.477  0.00  0.00    +0.000 C 
ATOM     16  C   UNL     1       6.710   3.284  12.215  0.00  0.00    +0.000 C 
ATOM     17  C   UNL     1       7.239   4.645  11.774  0.00  0.00    +0.000 C 
ATOM     18  C   UNL     1       8.015   5.330  12.894  0.00  0.00    +0.000 C 
ATOM     19  C   UNL     1       7.173   5.482  14.161  0.00  0.00    +0.000 C 
BRANCH  19  20
ATOM     20  O   UNL     1       7.994   6.071  15.173  0.00  0.00    +0.000 OA
ATOM     21  H   UNL     1       7.623   5.831  16.042  0.00  0.00    +0.000 HD
ENDBRANCH  19  20
ENDBRANCH  10  14
ENDBRANCH   6   7
BRANCH   1  22
ATOM     22  O   UNL     1       2.118   5.784  18.968  0.00  0.00    +0.000 OA
BRANCH  22  23
ATOM     23  C   UNL     1       2.821   6.967  19.353  0.00  0.00    +0.000 C 
BRANCH  23  28
ATOM     24  C   UNL     1       0.543   9.517  21.105  0.00  0.00    +0.000 A 
ATOM     25  C   UNL     1       0.102  10.264  20.008  0.00  0.00    +0.000 A 
ATOM     26  C   UNL     1       0.549   9.954  18.728  0.00  0.00    +0.000 A 
ATOM     27  C   UNL     1       1.432   8.893  18.540  0.00  0.00    +0.000 A 
ATOM     28  C   UNL     1       1.883   8.124  19.630  0.00  0.00    +0.000 A 
ATOM     29  C   UNL     1       1.434   8.452  20.919  0.00  0.00    +0.000 A 
BRANCH  24  31
ATOM     30  N   UNL     1      -0.312  10.166  23.466  0.00  0.00    +0.000 NA
ATOM     31  C   UNL     1       0.060   9.853  22.412  0.00  0.00    +0.000 C 
ENDBRANCH  24  31
ENDBRANCH  23  28
ENDBRANCH  22  23
ENDBRANCH   1  22
TORSDOF 7
ENDMDL
MODEL 3
REMARK VINA RESULT:      -8.2      2.418      4.554
REMARK  Name = 
REMARK  7 active torsions:
REMARK  status: ('A' for Active; 'I' for Inactive)
REMARK    1  A    between atoms: C_2  and  C_3
REMARK    2  A    between atoms: C_7  and  C_8
REMARK    3  A    between atoms: C_8  and  O_9
REMARK    4  A    between atoms: O_9  and  C_10
REMARK    5  A    between atoms: C_15  and  C_16
REMARK    6  A    between atoms: N_19  and  C_20
REMARK    7  A    between atoms: C_25  and  O_26
REMARK                            x       y       z     vdW  Elec       q    Type
REMARK                         _______ _______ _______ _____ _____    ______ ____
ROOT
ATOM      1  C   UNL     1       3.316   5.265  17.354  0.00  0.00    +0.000 A 
ATOM      2  C   UNL     1       4.296   4.430  16.805  0.00  0.00    +0.000 A 
ATOM      3  C   UNL     1       5.639   4.803  16.839  0.00  0.00    +0.000 A 
ATOM      4  C   UNL     1       6.011   6.019  17.404  0.00  0.00    +0.000 A 
ATOM      5  C   UNL     1       5.038   6.885  17.908  0.00  0.00    +0.000 A 
ATOM      6  C   UNL     1       3.684   6.524  17.871  0.00  0.00    +0.000 A 
ENDROOT
BRANCH   6   7
ATOM      7  C   UNL     1       2.663   7.473  18.353  0.00  0.00    +0.000 A 
ATOM      8  C   UNL     1       2.121   8.539  17.537  0.00  0.00    +0.000 A 
ATOM      9  C   UNL     1       1.377   9.502  18.092  0.00  0.00    +0.000 A 
ATOM     10  N   UNL     1       1.073   9.490  19.446  0.00  0.00    +0.000 N 
ATOM     11  C   UNL     1       1.418   8.408  20.257  0.00  0.00    +0.000 A 
ATOM     12  O   UNL     1       1.088   8.282  21.434  0.00  0.00    +0.000 OA
ATOM     13  C   UNL     1       2.291   7.376  19.640  0.00  0.00    +0.000 A 
BRANCH  10  14
ATOM     14  C   UNL     1       0.355  10.624  20.062  0.00  0.00    +0.000 C 
ATOM     15  C   UNL     1       1.316  11.748  20.481  0.00  0.00    +0.000 C 
ATOM     16  C   UNL     1       0.585  12.922  21.124  0.00  0.00    +0.000 C 
ATOM     17  C   UNL     1      -0.536  13.439  20.229  0.00  0.00    +0.000 C 
ATOM     18  C   UNL     1      -1.511  12.327  19.859  0.00  0.00    +0.000 C 
ATOM     19  C   UNL     1      -0.804  11.151  19.184  0.00  0.00    +0.000 C 
BRANCH  19  20
ATOM     20  O   UNL     1      -1.776  10.133  18.930  0.00  0.00    +0.000 OA
ATOM     21  H   UNL     1      -2.640  10.565  18.800  0.00  0.00    +0.000 HD
ENDBRANCH  19  20
ENDBRANCH  10  14
ENDBRANCH   6   7
BRANCH   1  22
ATOM     22  O   UNL     1       1.984   4.935  17.393  0.00  0.00    +0.000 OA
BRANCH  22  23
ATOM     23  C   UNL     1       1.699   3.564  17.682  0.00  0.00    +0.000 C 
BRANCH  23  28
ATOM     24  C   UNL     1       3.479   2.259  20.826  0.00  0.00    +0.000 A 
ATOM     25  C   UNL     1       2.514   2.532  21.800  0.00  0.00    +0.000 A 
ATOM     26  C   UNL     1       1.316   3.143  21.443  0.00  0.00    +0.000 A 
ATOM     27  C   UNL     1       1.077   3.476  20.111  0.00  0.00    +0.000 A 
ATOM     28  C   UNL     1       2.032   3.202  19.114  0.00  0.00    +0.000 A 
ATOM     29  C   UNL     1       3.242   2.595  19.486  0.00  0.00    +0.000 A 
BRANCH  24  31
ATOM     30  N   UNL     1       5.677   1.109  21.583  0.00  0.00    +0.000 NA
ATOM     31  C   UNL     1       4.700   1.621  21.220  0.00  0.00    +0.000 C 
ENDBRANCH  24  31
ENDBRANCH  23  28
ENDBRANCH  22  23
ENDBRANCH   1  22
TORSDOF 7
ENDMDL
MODEL 4
REMARK VINA RESULT:      -8.2      0.998      1.213
REMARK  Name = 
REMARK  7 active torsions:
REMARK  status: ('A' for Active; 'I' for Inactive)
REMARK    1  A    between atoms: C_2  and  C_3
REMARK    2  A    between atoms: C_7  and  C_8
REMARK    3  A    between atoms: C_8  and  O_9
REMARK    4  A    between atoms: O_9  and  C_10
REMARK    5  A    between atoms: C_15  and  C_16
REMARK    6  A    between atoms: N_19  and  C_20
REMARK    7  A    between atoms: C_25  and  O_26
REMARK                            x       y       z     vdW  Elec       q    Type
REMARK                         _______ _______ _______ _____ _____    ______ ____
ROOT
ATOM      1  C   UNL     1       3.785   4.440  19.618  0.00  0.00    +0.000 A 
ATOM      2  C   UNL     1       4.000   3.057  19.664  0.00  0.00    +0.000 A 
ATOM      3  C   UNL     1       2.957   2.173  19.393  0.00  0.00    +0.000 A 
ATOM      4  C   UNL     1       1.689   2.662  19.090  0.00  0.00    +0.000 A 
ATOM      5  C   UNL     1       1.449   4.037  19.090  0.00  0.00    +0.000 A 
ATOM      6  C   UNL     1       2.488   4.935  19.371  0.00  0.00    +0.000 A 
ENDROOT
BRANCH   6   7
ATOM      7  C   UNL     1       2.207   6.382  19.426  0.00  0.00    +0.000 A 
ATOM      8  C   UNL     1       1.830   7.073  20.641  0.00  0.00    +0.000 A 
ATOM      9  C   UNL     1       1.366   8.326  20.588  0.00  0.00    +0.000 A 
ATOM     10  N   UNL     1       1.268   9.011  19.385  0.00  0.00    +0.000 N 
ATOM     11  C   UNL     1       1.769   8.470  18.201  0.00  0.00    +0.000 A 
ATOM     12  O   UNL     1       1.813   9.061  17.124  0.00  0.00    +0.000 OA
ATOM     13  C   UNL     1       2.229   7.058  18.265  0.00  0.00    +0.000 A 
BRANCH  10  14
ATOM     14  C   UNL     1       0.639  10.346  19.333  0.00  0.00    +0.000 C 
ATOM     15  C   UNL     1      -0.427  10.518  20.427  0.00  0.00    +0.000 C 
ATOM     16  C   UNL     1      -1.086  11.893  20.377  0.00  0.00    +0.000 C 
ATOM     17  C   UNL     1      -0.050  13.011  20.414  0.00  0.00    +0.000 C 
ATOM     18  C   UNL     1       0.975  12.857  19.296  0.00  0.00    +0.000 C 
ATOM     19  C   UNL     1       1.672  11.497  19.344  0.00  0.00    +0.000 C 
BRANCH  19  20
ATOM     20  O   UNL     1       2.564  11.414  18.229  0.00  0.00    +0.000 OA
ATOM     21  H   UNL     1       3.185  12.165  18.281  0.00  0.00    +0.000 HD
ENDBRANCH  19  20
ENDBRANCH  10  14
ENDBRANCH   6   7
BRANCH   1  22
ATOM     22  O   UNL     1       4.781   5.362  19.830  0.00  0.00    +0.000 OA
BRANCH  22  23
ATOM     23  C   UNL     1       5.962   5.181  19.047  0.00  0.00    +0.000 C 
BRANCH  23  28
ATOM     24  C   UNL     1       5.765   4.949  15.217  0.00  0.00    +0.000 A 
ATOM     25  C   UNL     1       5.316   6.236  14.904  0.00  0.00    +0.000 A 
ATOM     26  C   UNL     1       5.067   7.154  15.919  0.00  0.00    +0.000 A 
ATOM     27  C   UNL     1       5.273   6.791  17.249  0.00  0.00    +0.000 A 
ATOM     28  C   UNL     1       5.733   5.503  17.584  0.00  0.00    +0.000 A 
ATOM     29  C   UNL     1       5.970   4.581  16.553  0.00  0.00    +0.000 A 
BRANCH  24  31
ATOM     30  N   UNL     1       6.249   3.314  13.264  0.00  0.00    +0.000 NA
ATOM     31  C   UNL     1       6.022   4.027  14.151  0.00  0.00    +0.000 C 
ENDBRANCH  24  31
ENDBRANCH  23  28
ENDBRANCH  22  23
ENDBRANCH   1  22
TORSDOF 7
ENDMDL
MODEL 5
REMARK VINA RESULT:      -8.1      1.964      2.764
REMARK  Name = 
REMARK  7 active torsions:
REMARK  status: ('A' for Active; 'I' for Inactive)
REMARK    1  A    between atoms: C_2  and  C_3
REMARK    2  A    between atoms: C_7  and  C_8
REMARK    3  A    between atoms: C_8  and  O_9
REMARK    4  A    between atoms: O_9  and  C_10
REMARK    5  A    between atoms: C_15  and  C_16
REMARK    6  A    between atoms: N_19  and  C_20
REMARK    7  A    between atoms: C_25  and  O_26
REMARK                            x       y       z     vdW  Elec       q    Type
REMARK                         _______ _______ _______ _____ _____    ______ ____
ROOT
ATOM      1  C   UNL     1       3.481   4.382  17.667  0.00  0.00    +0.000 A 
ATOM      2  C   UNL     1       3.821   3.049  17.405  0.00  0.00    +0.000 A 
ATOM      3  C   UNL     1       3.279   2.020  18.174  0.00  0.00    +0.000 A 
ATOM      4  C   UNL     1       2.407   2.314  19.219  0.00  0.00    +0.000 A 
ATOM      5  C   UNL     1       2.101   3.642  19.523  0.00  0.00    +0.000 A 
ATOM      6  C   UNL     1       2.648   4.686  18.763  0.00  0.00    +0.000 A 
ENDROOT
BRANCH   6   7
ATOM      7  C   UNL     1       2.363   6.085  19.132  0.00  0.00    +0.000 A 
ATOM      8  C   UNL     1       1.864   6.477  20.434  0.00  0.00    +0.000 A 
ATOM      9  C   UNL     1       1.407   7.718  20.635  0.00  0.00    +0.000 A 
ATOM     10  N   UNL     1       1.431   8.670  19.625  0.00  0.00    +0.000 N 
ATOM     11  C   UNL     1       2.050   8.412  18.401  0.00  0.00    +0.000 A 
ATOM     12  O   UNL     1       2.202   9.240  17.506  0.00  0.00    +0.000 OA
ATOM     13  C   UNL     1       2.501   7.015  18.173  0.00  0.00    +0.000 A 
BRANCH  10  14
ATOM     14  C   UNL     1       0.810   9.994  19.830  0.00  0.00    +0.000 C 
ATOM     15  C   UNL     1      -0.372  10.224  18.875  0.00  0.00    +0.000 C 
ATOM     16  C   UNL     1      -1.016  11.593  19.076  0.00  0.00    +0.000 C 
ATOM     17  C   UNL     1      -1.411  11.816  20.532  0.00  0.00    +0.000 C 
ATOM     18  C   UNL     1      -0.220  11.633  21.465  0.00  0.00    +0.000 C 
ATOM     19  C   UNL     1       0.424  10.255  21.305  0.00  0.00    +0.000 C 
BRANCH  19  20
ATOM     20  O   UNL     1       1.564  10.193  22.166  0.00  0.00    +0.000 OA
ATOM     21  H   UNL     1       1.476   9.401  22.728  0.00  0.00    +0.000 HD
ENDBRANCH  19  20
ENDBRANCH  10  14
ENDBRANCH   6   7
BRANCH   1  22
ATOM     22  O   UNL     1       3.945   5.436  16.919  0.00  0.00    +0.000 OA
BRANCH  22  23
ATOM     23  C   UNL     1       5.259   5.275  16.379  0.00  0.00    +0.000 C 
BRANCH  23  28
ATOM     24  C   UNL     1       7.752   7.677  18.046  0.00  0.00    +0.000 A 
ATOM     25  C   UNL     1       8.342   6.824  18.984  0.00  0.00    +0.000 A 
ATOM     26  C   UNL     1       7.925   5.501  19.084  0.00  0.00    +0.000 A 
ATOM     27  C   UNL     1       6.923   5.024  18.240  0.00  0.00    +0.000 A 
ATOM     28  C   UNL     1       6.323   5.863  17.284  0.00  0.00    +0.000 A 
ATOM     29  C   UNL     1       6.742   7.200  17.199  0.00  0.00    +0.000 A 
BRANCH  24  31
ATOM     30  N   UNL     1       8.532  10.146  17.899  0.00  0.00    +0.000 NA
ATOM     31  C   UNL     1       8.206   9.033  17.959  0.00  0.00    +0.000 C 
ENDBRANCH  24  31
ENDBRANCH  23  28
ENDBRANCH  22  23
ENDBRANCH   1  22
TORSDOF 7
ENDMDL
MODEL 6
REMARK VINA RESULT:      -8.1      2.122      2.814
REMARK  Name = 
REMARK  7 active torsions:
REMARK  status: ('A' for Active; 'I' for Inactive)
REMARK    1  A    between atoms: C_2  and  C_3
REMARK    2  A    between atoms: C_7  and  C_8
REMARK    3  A    between atoms: C_8  and  O_9
REMARK    4  A    between atoms: O_9  and  C_10
REMARK    5  A    between atoms: C_15  and  C_16
REMARK    6  A    between atoms: N_19  and  C_20
REMARK    7  A    between atoms: C_25  and  O_26
REMARK                            x       y       z     vdW  Elec       q    Type
REMARK                         _______ _______ _______ _____ _____    ______ ____
ROOT
ATOM      1  C   UNL     1       3.078   4.822  18.757  0.00  0.00    +0.000 A 
ATOM      2  C   UNL     1       3.463   3.482  18.874  0.00  0.00    +0.000 A 
ATOM      3  C   UNL     1       3.119   2.746  20.007  0.00  0.00    +0.000 A 
ATOM      4  C   UNL     1       2.402   3.348  21.039  0.00  0.00    +0.000 A 
ATOM      5  C   UNL     1       2.056   4.698  20.957  0.00  0.00    +0.000 A 
ATOM      6  C   UNL     1       2.406   5.450  19.826  0.00  0.00    +0.000 A 
ENDROOT
BRANCH   6   7
ATOM      7  C   UNL     1       2.086   6.889  19.779  0.00  0.00    +0.000 A 
ATOM      8  C   UNL     1       1.455   7.598  20.872  0.00  0.00    +0.000 A 
ATOM      9  C   UNL     1       0.982   8.836  20.689  0.00  0.00    +0.000 A 
ATOM     10  N   UNL     1       1.112   9.487  19.470  0.00  0.00    +0.000 N 
ATOM     11  C   UNL     1       1.855   8.931  18.428  0.00  0.00    +0.000 A 
ATOM     12  O   UNL     1       2.101   9.496  17.365  0.00  0.00    +0.000 OA
ATOM     13  C   UNL     1       2.325   7.536  18.626  0.00  0.00    +0.000 A 
BRANCH  10  14
ATOM     14  C   UNL     1       0.476  10.801  19.252  0.00  0.00    +0.000 C 
ATOM     15  C   UNL     1      -0.899  10.665  18.578  0.00  0.00    +0.000 C 
ATOM     16  C   UNL     1      -1.562  12.019  18.343  0.00  0.00    +0.000 C 
ATOM     17  C   UNL     1      -1.639  12.834  19.629  0.00  0.00    +0.000 C 
ATOM     18  C   UNL     1      -0.263  13.003  20.264  0.00  0.00    +0.000 C 
ATOM     19  C   UNL     1       0.408  11.657  20.538  0.00  0.00    +0.000 C 
BRANCH  19  20
ATOM     20  O   UNL     1       1.711  11.910  21.071  0.00  0.00    +0.000 OA
ATOM     21  H   UNL     1       2.058  11.074  21.433  0.00  0.00    +0.000 HD
ENDBRANCH  19  20
ENDBRANCH  10  14
ENDBRANCH   6   7
BRANCH   1  22
ATOM     22  O   UNL     1       3.346   5.586  17.648  0.00  0.00    +0.000 OA
BRANCH  22  23
ATOM     23  C   UNL     1       4.502   5.201  16.902  0.00  0.00    +0.000 C 
BRANCH  23  28
ATOM     24  C   UNL     1       7.416   7.480  17.939  0.00  0.00    +0.000 A 
ATOM     25  C   UNL     1       8.201   6.580  18.667  0.00  0.00    +0.000 A 
ATOM     26  C   UNL     1       7.781   5.263  18.831  0.00  0.00    +0.000 A 
ATOM     27  C   UNL     1       6.581   4.842  18.261  0.00  0.00    +0.000 A 
ATOM     28  C   UNL     1       5.781   5.730  17.517  0.00  0.00    +0.000 A 
ATOM     29  C   UNL     1       6.208   7.059  17.368  0.00  0.00    +0.000 A 
BRANCH  24  31
ATOM     30  N   UNL     1       8.223   9.932  17.685  0.00  0.00    +0.000 NA
ATOM     31  C   UNL     1       7.877   8.828  17.779  0.00  0.00    +0.000 C 
ENDBRANCH  24  31
ENDBRANCH  23  28
ENDBRANCH  22  23
ENDBRANCH   1  22
TORSDOF 7
ENDMDL
MODEL 7
REMARK VINA RESULT:      -8.0      1.284      1.383
REMARK  Name = 
REMARK  7 active torsions:
REMARK  status: ('A' for Active; 'I' for Inactive)
REMARK    1  A    between atoms: C_2  and  C_3
REMARK    2  A    between atoms: C_7  and  C_8
REMARK    3  A    between atoms: C_8  and  O_9
REMARK    4  A    between atoms: O_9  and  C_10
REMARK    5  A    between atoms: C_15  and  C_16
REMARK    6  A    between atoms: N_19  and  C_20
REMARK    7  A    between atoms: C_25  and  O_26
REMARK                            x       y       z     vdW  Elec       q    Type
REMARK                         _______ _______ _______ _____ _____    ______ ____
ROOT
ATOM      1  C   UNL     1       3.246   4.710  20.019  0.00  0.00    +0.000 A 
ATOM      2  C   UNL     1       3.385   3.335  20.249  0.00  0.00    +0.000 A 
ATOM      3  C   UNL     1       2.266   2.550  20.519  0.00  0.00    +0.000 A 
ATOM      4  C   UNL     1       1.003   3.131  20.577  0.00  0.00    +0.000 A 
ATOM      5  C   UNL     1       0.856   4.508  20.401  0.00  0.00    +0.000 A 
ATOM      6  C   UNL     1       1.976   5.310  20.139  0.00  0.00    +0.000 A 
ENDROOT
BRANCH   6   7
ATOM      7  C   UNL     1       1.814   6.771  20.014  0.00  0.00    +0.000 A 
ATOM      8  C   UNL     1       1.250   7.600  21.058  0.00  0.00    +0.000 A 
ATOM      9  C   UNL     1       0.917   8.870  20.804  0.00  0.00    +0.000 A 
ATOM     10  N   UNL     1       1.132   9.439  19.557  0.00  0.00    +0.000 N 
ATOM     11  C   UNL     1       1.823   8.753  18.557  0.00  0.00    +0.000 A 
ATOM     12  O   UNL     1       2.141   9.232  17.471  0.00  0.00    +0.000 OA
ATOM     13  C   UNL     1       2.136   7.327  18.834  0.00  0.00    +0.000 A 
BRANCH  10  14
ATOM     14  C   UNL     1       0.644  10.801  19.261  0.00  0.00    +0.000 C 
ATOM     15  C   UNL     1      -0.700  10.777  18.516  0.00  0.00    +0.000 C 
ATOM     16  C   UNL     1      -1.209  12.181  18.201  0.00  0.00    +0.000 C 
ATOM     17  C   UNL     1      -1.270  13.047  19.454  0.00  0.00    +0.000 C 
ATOM     18  C   UNL     1       0.081  13.103  20.158  0.00  0.00    +0.000 C 
ATOM     19  C   UNL     1       0.597  11.707  20.513  0.00  0.00    +0.000 C 
BRANCH  19  20
ATOM     20  O   UNL     1       1.890  11.849  21.108  0.00  0.00    +0.000 OA
ATOM     21  H   UNL     1       2.266  12.701  20.817  0.00  0.00    +0.000 HD
ENDBRANCH  19  20
ENDBRANCH  10  14
ENDBRANCH   6   7
BRANCH   1  22
ATOM     22  O   UNL     1       4.302   5.529  19.704  0.00  0.00    +0.000 OA
BRANCH  22  23
ATOM     23  C   UNL     1       5.532   4.862  19.414  0.00  0.00    +0.000 C 
BRANCH  23  28
ATOM     24  C   UNL     1       6.422   4.962  15.678  0.00  0.00    +0.000 A 
ATOM     25  C   UNL     1       7.247   6.091  15.641  0.00  0.00    +0.000 A 
ATOM     26  C   UNL     1       7.494   6.814  16.803  0.00  0.00    +0.000 A 
ATOM     27  C   UNL     1       6.924   6.405  18.008  0.00  0.00    +0.000 A 
ATOM     28  C   UNL     1       6.098   5.267  18.069  0.00  0.00    +0.000 A 
ATOM     29  C   UNL     1       5.845   4.552  16.888  0.00  0.00    +0.000 A 
BRANCH  24  31
ATOM     30  N   UNL     1       6.045   3.622  13.490  0.00  0.00    +0.000 NA
ATOM     31  C   UNL     1       6.191   4.232  14.467  0.00  0.00    +0.000 C 
ENDBRANCH  24  31
ENDBRANCH  23  28
ENDBRANCH  22  23
ENDBRANCH   1  22
TORSDOF 7
ENDMDL
MODEL 8
REMARK VINA RESULT:      -7.9      1.685      2.003
REMARK  Name = 
REMARK  7 active torsions:
REMARK  status: ('A' for Active; 'I' for Inactive)
REMARK    1  A    between atoms: C_2  and  C_3
REMARK    2  A    between atoms: C_7  and  C_8
REMARK    3  A    between atoms: C_8  and  O_9
REMARK    4  A    between atoms: O_9  and  C_10
REMARK    5  A    between atoms: C_15  and  C_16
REMARK    6  A    between atoms: N_19  and  C_20
REMARK    7  A    between atoms: C_25  and  O_26
REMARK                            x       y       z     vdW  Elec       q    Type
REMARK                         _______ _______ _______ _____ _____    ______ ____
ROOT
ATOM      1  C   UNL     1       3.701   4.914  19.703  0.00  0.00    +0.000 A 
ATOM      2  C   UNL     1       4.054   3.595  20.013  0.00  0.00    +0.000 A 
ATOM      3  C   UNL     1       3.153   2.761  20.672  0.00  0.00    +0.000 A 
ATOM      4  C   UNL     1       1.899   3.241  21.041  0.00  0.00    +0.000 A 
ATOM      5  C   UNL     1       1.555   4.569  20.784  0.00  0.00    +0.000 A 
ATOM      6  C   UNL     1       2.457   5.420  20.131  0.00  0.00    +0.000 A 
ENDROOT
BRANCH   6   7
ATOM      7  C   UNL     1       2.103   6.836  19.919  0.00  0.00    +0.000 A 
ATOM      8  C   UNL     1       1.553   7.681  20.958  0.00  0.00    +0.000 A 
ATOM      9  C   UNL     1       1.038   8.878  20.652  0.00  0.00    +0.000 A 
ATOM     10  N   UNL     1       1.049   9.358  19.350  0.00  0.00    +0.000 N 
ATOM     11  C   UNL     1       1.711   8.673  18.330  0.00  0.00    +0.000 A 
ATOM     12  O   UNL     1       1.852   9.090  17.183  0.00  0.00    +0.000 OA
ATOM     13  C   UNL     1       2.227   7.322  18.673  0.00  0.00    +0.000 A 
BRANCH  10  14
ATOM     14  C   UNL     1       0.368  10.624  19.013  0.00  0.00    +0.000 C 
ATOM     15  C   UNL     1      -0.844  10.880  19.924  0.00  0.00    +0.000 C 
ATOM     16  C   UNL     1      -1.558  12.183  19.581  0.00  0.00    +0.000 C 
ATOM     17  C   UNL     1      -0.593  13.364  19.575  0.00  0.00    +0.000 C 
ATOM     18  C   UNL     1       0.580  13.120  18.632  0.00  0.00    +0.000 C 
ATOM     19  C   UNL     1       1.331  11.833  18.977  0.00  0.00    +0.000 C 
BRANCH  19  20
ATOM     20  O   UNL     1       2.368  11.651  18.009  0.00  0.00    +0.000 OA
ATOM     21  H   UNL     1       2.066  10.985  17.363  0.00  0.00    +0.000 HD
ENDBRANCH  19  20
ENDBRANCH  10  14
ENDBRANCH   6   7
BRANCH   1  22
ATOM     22  O   UNL     1       4.527   5.770  19.016  0.00  0.00    +0.000 OA
BRANCH  22  23
ATOM     23  C   UNL     1       5.796   5.232  18.641  0.00  0.00    +0.000 C 
BRANCH  23  28
ATOM     24  C   UNL     1       6.843   4.957  14.955  0.00  0.00    +0.000 A 
ATOM     25  C   UNL     1       5.810   4.159  14.453  0.00  0.00    +0.000 A 
ATOM     26  C   UNL     1       4.804   3.705  15.300  0.00  0.00    +0.000 A 
ATOM     27  C   UNL     1       4.823   4.056  16.649  0.00  0.00    +0.000 A 
ATOM     28  C   UNL     1       5.849   4.865  17.172  0.00  0.00    +0.000 A 
ATOM     29  C   UNL     1       6.865   5.307  16.311  0.00  0.00    +0.000 A 
BRANCH  24  31
ATOM     30  N   UNL     1       8.692   5.826  13.358  0.00  0.00    +0.000 NA
ATOM     31  C   UNL     1       7.862   5.416  14.058  0.00  0.00    +0.000 C 
ENDBRANCH  24  31
ENDBRANCH  23  28
ENDBRANCH  22  23
ENDBRANCH   1  22
TORSDOF 7
ENDMDL
MODEL 9
REMARK VINA RESULT:      -7.9      1.874      2.415
REMARK  Name = 
REMARK  7 active torsions:
REMARK  status: ('A' for Active; 'I' for Inactive)
REMARK    1  A    between atoms: C_2  and  C_3
REMARK    2  A    between atoms: C_7  and  C_8
REMARK    3  A    between atoms: C_8  and  O_9
REMARK    4  A    between atoms: O_9  and  C_10
REMARK    5  A    between atoms: C_15  and  C_16
REMARK    6  A    between atoms: N_19  and  C_20
REMARK    7  A    between atoms: C_25  and  O_26
REMARK                            x       y       z     vdW  Elec       q    Type
REMARK                         _______ _______ _______ _____ _____    ______ ____
ROOT
ATOM      1  C   UNL     1       2.737   4.407  19.114  0.00  0.00    +0.000 A 
ATOM      2  C   UNL     1       3.085   3.067  19.323  0.00  0.00    +0.000 A 
ATOM      3  C   UNL     1       2.906   2.479  20.573  0.00  0.00    +0.000 A 
ATOM      4  C   UNL     1       2.393   3.228  21.629  0.00  0.00    +0.000 A 
ATOM      5  C   UNL     1       2.090   4.578  21.448  0.00  0.00    +0.000 A 
ATOM      6  C   UNL     1       2.276   5.183  20.197  0.00  0.00    +0.000 A 
ENDROOT
BRANCH   6   7
ATOM      7  C   UNL     1       2.007   6.624  20.036  0.00  0.00    +0.000 A 
ATOM      8  C   UNL     1       1.344   7.426  21.042  0.00  0.00    +0.000 A 
ATOM      9  C   UNL     1       0.923   8.661  20.750  0.00  0.00    +0.000 A 
ATOM     10  N   UNL     1       1.139   9.222  19.499  0.00  0.00    +0.000 N 
ATOM     11  C   UNL     1       1.916   8.574  18.539  0.00  0.00    +0.000 A 
ATOM     12  O   UNL     1       2.236   9.056  17.455  0.00  0.00    +0.000 OA
ATOM     13  C   UNL     1       2.328   7.182  18.856  0.00  0.00    +0.000 A 
BRANCH  10  14
ATOM     14  C   UNL     1       0.559  10.537  19.158  0.00  0.00    +0.000 C 
ATOM     15  C   UNL     1      -0.762  10.395  18.386  0.00  0.00    +0.000 C 
ATOM     16  C   UNL     1      -1.366  11.749  18.023  0.00  0.00    +0.000 C 
ATOM     17  C   UNL     1      -1.519  12.638  19.253  0.00  0.00    +0.000 C 
ATOM     18  C   UNL     1      -0.193  12.811  19.984  0.00  0.00    +0.000 C 
ATOM     19  C   UNL     1       0.416  11.467  20.385  0.00  0.00    +0.000 C 
BRANCH  19  20
ATOM     20  O   UNL     1       1.681  11.719  21.004  0.00  0.00    +0.000 OA
ATOM     21  H   UNL     1       1.516  12.074  21.897  0.00  0.00    +0.000 HD
ENDBRANCH  19  20
ENDBRANCH  10  14
ENDBRANCH   6   7
BRANCH   1  22
ATOM     22  O   UNL     1       2.847   5.030  17.895  0.00  0.00    +0.000 OA
BRANCH  22  23
ATOM     23  C   UNL     1       3.426   4.243  16.853  0.00  0.00    +0.000 C 
BRANCH  23  28
ATOM     24  C   UNL     1       6.770   6.134  16.796  0.00  0.00    +0.000 A 
ATOM     25  C   UNL     1       7.414   5.487  15.736  0.00  0.00    +0.000 A 
ATOM     26  C   UNL     1       6.779   4.446  15.065  0.00  0.00    +0.000 A 
ATOM     27  C   UNL     1       5.497   4.055  15.447  0.00  0.00    +0.000 A 
ATOM     28  C   UNL     1       4.829   4.699  16.506  0.00  0.00    +0.000 A 
ATOM     29  C   UNL     1       5.482   5.740  17.184  0.00  0.00    +0.000 A 
BRANCH  24  31
ATOM     30  N   UNL     1       8.028   8.067  17.982  0.00  0.00    +0.000 NA
ATOM     31  C   UNL     1       7.444   7.208  17.464  0.00  0.00    +0.000 C 
ENDBRANCH  24  31
ENDBRANCH  23  28
ENDBRANCH  22  23
ENDBRANCH   1  22
TORSDOF 7
ENDMDL
