MODEL 1
REMARK VINA RESULT:      -7.8      0.000      0.000
REMARK  Name = 
REMARK  2 active torsions:
REMARK  status: ('A' for Active; 'I' for Inactive)
REMARK    1  A    between atoms: C_2  and  C_3
REMARK    2  A    between atoms: N_14  and  C_15
REMARK                            x       y       z     vdW  Elec       q    Type
REMARK                         _______ _______ _______ _____ _____    ______ ____
ROOT
ATOM      1  O   UNL     1       4.926   3.574  18.797  0.00  0.00    +0.000 OA
ATOM      2  C   UNL     1       4.809   4.593  18.119  0.00  0.00    +0.000 C 
ATOM      3  N   UNL     1       3.970   5.642  18.513  0.00  0.00    +0.000 N 
ATOM      4  C   UNL     1       3.779   6.933  17.828  0.00  0.00    +0.000 C 
ATOM      5  C   UNL     1       2.347   7.473  17.898  0.00  0.00    +0.000 C 
ATOM      6  N   UNL     1       1.856   7.426  19.280  0.00  0.00    +0.000 N 
ATOM      7  C   UNL     1       1.959   6.102  19.915  0.00  0.00    +0.000 C 
ATOM      8  C   UNL     1       3.405   5.593  19.870  0.00  0.00    +0.000 C 
ENDROOT
BRANCH   2   9
ATOM      9  C   UNL     1       5.606   4.694  16.865  0.00  0.00    +0.000 A 
ATOM     10  C   UNL     1       5.012   4.325  15.646  0.00  0.00    +0.000 A 
ATOM     11  C   UNL     1       5.755   4.288  14.473  0.00  0.00    +0.000 A 
ATOM     12 CL   UNL     1       5.068   3.602  13.056  0.00  0.00    +0.000 Cl
ATOM     13  C   UNL     1       7.064   4.752  14.464  0.00  0.00    +0.000 A 
ATOM     14  C   UNL     1       7.635   5.232  15.645  0.00  0.00    +0.000 A 
ATOM     15  C   UNL     1       6.919   5.184  16.853  0.00  0.00    +0.000 A 
ATOM     16 CL   UNL     1       7.771   5.704  18.264  0.00  0.00    +0.000 Cl
ENDBRANCH   2   9
BRANCH   6  17
ATOM     17  C   UNL     1       1.376   8.542  19.924  0.00  0.00    +0.000 A 
ATOM     18  C   UNL     1       1.246   9.771  19.262  0.00  0.00    +0.000 A 
ATOM     19  C   UNL     1       0.763  10.905  19.918  0.00  0.00    +0.000 A 
ATOM     20  C   UNL     1       0.394  10.849  21.254  0.00  0.00    +0.000 A 
ATOM     21 CL   UNL     1      -0.192  12.291  21.998  0.00  0.00    +0.000 Cl
ATOM     22  C   UNL     1       0.507   9.640  21.936  0.00  0.00    +0.000 A 
ATOM     23 CL   UNL     1       0.083   9.474  23.606  0.00  0.00    +0.000 Cl
ATOM     24  C   UNL     1       0.989   8.505  21.271  0.00  0.00    +0.000 A 
ENDBRANCH   6  17
TORSDOF 2
ENDMDL
MODEL 2
REMARK VINA RESULT:      -7.7      2.860      4.104
REMARK  Name = 
REMARK  2 active torsions:
REMARK  status: ('A' for Active; 'I' for Inactive)
REMARK    1  A    between atoms: C_2  and  C_3
REMARK    2  A    between atoms: N_14  and  C_15
REMARK                            x       y       z     vdW  Elec       q    Type
REMARK                         _______ _______ _______ _____ _____    ______ ____
ROOT
ATOM      1  O   UNL     1       2.291   5.575  20.795  0.00  0.00    +0.000 OA
ATOM      2  C   UNL     1       2.637   6.120  19.749  0.00  0.00    +0.000 C 
ATOM      3  N   UNL     1       2.253   7.432  19.444  0.00  0.00    +0.000 N 
ATOM      4  C   UNL     1       2.639   8.219  18.260  0.00  0.00    +0.000 C 
ATOM      5  C   UNL     1       1.535   9.142  17.736  0.00  0.00    +0.000 C 
ATOM      6  N   UNL     1       0.962   9.922  18.838  0.00  0.00    +0.000 N 
ATOM      7  C   UNL     1       0.485   9.111  19.970  0.00  0.00    +0.000 C 
ATOM      8  C   UNL     1       1.613   8.220  20.508  0.00  0.00    +0.000 C 
ENDROOT
BRANCH   2   9
ATOM      9  C   UNL     1       3.503   5.350  18.813  0.00  0.00    +0.000 A 
ATOM     10  C   UNL     1       4.898   5.400  18.974  0.00  0.00    +0.000 A 
ATOM     11  C   UNL     1       5.745   4.798  18.052  0.00  0.00    +0.000 A 
ATOM     12 CL   UNL     1       7.436   5.084  18.143  0.00  0.00    +0.000 Cl
ATOM     13  C   UNL     1       5.219   4.016  17.033  0.00  0.00    +0.000 A 
ATOM     14  C   UNL     1       3.835   3.860  16.925  0.00  0.00    +0.000 A 
ATOM     15  C   UNL     1       2.972   4.543  17.798  0.00  0.00    +0.000 A 
ATOM     16 CL   UNL     1       1.280   4.355  17.496  0.00  0.00    +0.000 Cl
ENDBRANCH   2   9
BRANCH   6  17
ATOM     17  C   UNL     1       0.912  11.296  18.815  0.00  0.00    +0.000 A 
ATOM     18  C   UNL     1      -0.287  11.989  19.035  0.00  0.00    +0.000 A 
ATOM     19  C   UNL     1      -0.338  13.384  19.007  0.00  0.00    +0.000 A 
ATOM     20  C   UNL     1       0.804  14.131  18.758  0.00  0.00    +0.000 A 
ATOM     21 CL   UNL     1       0.662  15.851  18.736  0.00  0.00    +0.000 Cl
ATOM     22  C   UNL     1       2.010  13.471  18.541  0.00  0.00    +0.000 A 
ATOM     23 CL   UNL     1       3.484  14.315  18.211  0.00  0.00    +0.000 Cl
ATOM     24  C   UNL     1       2.055  12.070  18.574  0.00  0.00    +0.000 A 
ENDBRANCH   6  17
TORSDOF 2
ENDMDL
MODEL 3
REMARK VINA RESULT:      -7.6      2.559      3.966
REMARK  Name = 
REMARK  2 active torsions:
REMARK  status: ('A' for Active; 'I' for Inactive)
REMARK    1  A    between atoms: C_2  and  C_3
REMARK    2  A    between atoms: N_14  and  C_15
REMARK                            x       y       z     vdW  Elec       q    Type
REMARK                         _______ _______ _______ _____ _____    ______ ____
ROOT
ATOM      1  O   UNL     1       2.172   5.570  20.772  0.00  0.00    +0.000 OA
ATOM      2  C   UNL     1       2.580   6.116  19.749  0.00  0.00    +0.000 C 
ATOM      3  N   UNL     1       2.265   7.448  19.454  0.00  0.00    +0.000 N 
ATOM      4  C   UNL     1       2.729   8.237  18.299  0.00  0.00    +0.000 C 
ATOM      5  C   UNL     1       1.687   9.218  17.752  0.00  0.00    +0.000 C 
ATOM      6  N   UNL     1       1.109  10.004  18.847  0.00  0.00    +0.000 N 
ATOM      7  C   UNL     1       0.556   9.197  19.947  0.00  0.00    +0.000 C 
ATOM      8  C   UNL     1       1.622   8.247  20.508  0.00  0.00    +0.000 C 
ENDROOT
BRANCH   2   9
ATOM      9  C   UNL     1       3.444   5.324  18.830  0.00  0.00    +0.000 A 
ATOM     10  C   UNL     1       4.839   5.366  18.998  0.00  0.00    +0.000 A 
ATOM     11  C   UNL     1       5.686   4.741  18.091  0.00  0.00    +0.000 A 
ATOM     12 CL   UNL     1       7.378   5.017  18.185  0.00  0.00    +0.000 Cl
ATOM     13  C   UNL     1       5.159   3.946  17.082  0.00  0.00    +0.000 A 
ATOM     14  C   UNL     1       3.775   3.798  16.971  0.00  0.00    +0.000 A 
ATOM     15  C   UNL     1       2.912   4.503  17.827  0.00  0.00    +0.000 A 
ATOM     16 CL   UNL     1       1.220   4.323  17.520  0.00  0.00    +0.000 Cl
ENDBRANCH   2   9
BRANCH   6  17
ATOM     17  C   UNL     1       1.121  11.379  18.847  0.00  0.00    +0.000 A 
ATOM     18  C   UNL     1       2.193  12.101  18.303  0.00  0.00    +0.000 A 
ATOM     19  C   UNL     1       2.207  13.498  18.307  0.00  0.00    +0.000 A 
ATOM     20  C   UNL     1       1.155  14.216  18.855  0.00  0.00    +0.000 A 
ATOM     21 CL   UNL     1       1.245  15.940  18.827  0.00  0.00    +0.000 Cl
ATOM     22  C   UNL     1       0.074  13.526  19.398  0.00  0.00    +0.000 A 
ATOM     23 CL   UNL     1      -1.279  14.334  20.112  0.00  0.00    +0.000 Cl
ATOM     24  C   UNL     1       0.064  12.125  19.386  0.00  0.00    +0.000 A 
ENDBRANCH   6  17
TORSDOF 2
ENDMDL
MODEL 4
REMARK VINA RESULT:      -7.6      0.623      1.461
REMARK  Name = 
REMARK  2 active torsions:
REMARK  status: ('A' for Active; 'I' for Inactive)
REMARK    1  A    between atoms: C_2  and  C_3
REMARK    2  A    between atoms: N_14  and  C_15
REMARK                            x       y       z     vdW  Elec       q    Type
REMARK                         _______ _______ _______ _____ _____    ______ ____
ROOT
ATOM      1  O   UNL     1       4.937   3.542  18.837  0.00  0.00    +0.000 OA
ATOM      2  C   UNL     1       4.809   4.565  18.168  0.00  0.00    +0.000 C 
ATOM      3  N   UNL     1       3.964   5.605  18.574  0.00  0.00    +0.000 N 
ATOM      4  C   UNL     1       3.760   6.900  17.901  0.00  0.00    +0.000 C 
ATOM      5  C   UNL     1       2.324   7.427  17.982  0.00  0.00    +0.000 C 
ATOM      6  N   UNL     1       1.840   7.366  19.365  0.00  0.00    +0.000 N 
ATOM      7  C   UNL     1       1.956   6.037  19.989  0.00  0.00    +0.000 C 
ATOM      8  C   UNL     1       3.406   5.540  19.933  0.00  0.00    +0.000 C 
ENDROOT
BRANCH   2   9
ATOM      9  C   UNL     1       5.600   4.682  16.911  0.00  0.00    +0.000 A 
ATOM     10  C   UNL     1       5.007   4.310  15.693  0.00  0.00    +0.000 A 
ATOM     11  C   UNL     1       5.746   4.289  14.516  0.00  0.00    +0.000 A 
ATOM     12 CL   UNL     1       5.062   3.599  13.100  0.00  0.00    +0.000 Cl
ATOM     13  C   UNL     1       7.048   4.771  14.505  0.00  0.00    +0.000 A 
ATOM     14  C   UNL     1       7.616   5.254  15.685  0.00  0.00    +0.000 A 
ATOM     15  C   UNL     1       6.906   5.191  16.896  0.00  0.00    +0.000 A 
ATOM     16 CL   UNL     1       7.756   5.718  18.306  0.00  0.00    +0.000 Cl
ENDBRANCH   2   9
BRANCH   6  17
ATOM     17  C   UNL     1       1.354   8.472  20.021  0.00  0.00    +0.000 A 
ATOM     18  C   UNL     1       1.141   8.466  21.407  0.00  0.00    +0.000 A 
ATOM     19  C   UNL     1       0.642   9.588  22.073  0.00  0.00    +0.000 A 
ATOM     20  C   UNL     1       0.340  10.749  21.377  0.00  0.00    +0.000 A 
ATOM     21 CL   UNL     1      -0.275  12.094  22.267  0.00  0.00    +0.000 Cl
ATOM     22  C   UNL     1       0.547  10.787  20.000  0.00  0.00    +0.000 A 
ATOM     23 CL   UNL     1       0.190  12.185  19.045  0.00  0.00    +0.000 Cl
ATOM     24  C   UNL     1       1.051   9.659  19.339  0.00  0.00    +0.000 A 
ENDBRANCH   6  17
TORSDOF 2
ENDMDL
MODEL 5
REMARK VINA RESULT:      -6.7      2.819      3.746
REMARK  Name = 
REMARK  2 active torsions:
REMARK  status: ('A' for Active; 'I' for Inactive)
REMARK    1  A    between atoms: C_2  and  C_3
REMARK    2  A    between atoms: N_14  and  C_15
REMARK                            x       y       z     vdW  Elec       q    Type
REMARK                         _______ _______ _______ _____ _____    ______ ____
ROOT
ATOM      1  O   UNL     1       4.081   6.785  16.865  0.00  0.00    +0.000 OA
ATOM      2  C   UNL     1       3.381   6.502  17.834  0.00  0.00    +0.000 C 
ATOM      3  N   UNL     1       2.524   7.443  18.419  0.00  0.00    +0.000 N 
ATOM      4  C   UNL     1       1.596   7.223  19.542  0.00  0.00    +0.000 C 
ATOM      5  C   UNL     1       1.461   8.423  20.485  0.00  0.00    +0.000 C 
ATOM      6  N   UNL     1       1.221   9.648  19.714  0.00  0.00    +0.000 N 
ATOM      7  C   UNL     1       2.218   9.906  18.661  0.00  0.00    +0.000 C 
ATOM      8  C   UNL     1       2.314   8.711  17.704  0.00  0.00    +0.000 C 
ENDROOT
BRANCH   2   9
ATOM      9  C   UNL     1       3.451   5.113  18.366  0.00  0.00    +0.000 A 
ATOM     10  C   UNL     1       2.350   4.257  18.192  0.00  0.00    +0.000 A 
ATOM     11  C   UNL     1       2.325   2.997  18.777  0.00  0.00    +0.000 A 
ATOM     12 CL   UNL     1       0.874   2.080  18.751  0.00  0.00    +0.000 Cl
ATOM     13  C   UNL     1       3.452   2.510  19.425  0.00  0.00    +0.000 A 
ATOM     14  C   UNL     1       4.599   3.303  19.508  0.00  0.00    +0.000 A 
ATOM     15  C   UNL     1       4.597   4.613  19.001  0.00  0.00    +0.000 A 
ATOM     16 CL   UNL     1       6.038   5.532  19.260  0.00  0.00    +0.000 Cl
ENDBRANCH   2   9
BRANCH   6  17
ATOM     17  C   UNL     1       0.134  10.457  19.944  0.00  0.00    +0.000 A 
ATOM     18  C   UNL     1      -0.776  10.767  18.923  0.00  0.00    +0.000 A 
ATOM     19  C   UNL     1      -1.878  11.594  19.156  0.00  0.00    +0.000 A 
ATOM     20  C   UNL     1      -2.105  12.136  20.412  0.00  0.00    +0.000 A 
ATOM     21 CL   UNL     1      -3.486  13.150  20.623  0.00  0.00    +0.000 Cl
ATOM     22  C   UNL     1      -1.221  11.842  21.446  0.00  0.00    +0.000 A 
ATOM     23 CL   UNL     1      -1.414  12.480  23.043  0.00  0.00    +0.000 Cl
ATOM     24  C   UNL     1      -0.119  11.009  21.207  0.00  0.00    +0.000 A 
ENDBRANCH   6  17
TORSDOF 2
ENDMDL
MODEL 6
REMARK VINA RESULT:      -6.7      3.101      4.068
REMARK  Name = 
REMARK  2 active torsions:
REMARK  status: ('A' for Active; 'I' for Inactive)
REMARK    1  A    between atoms: C_2  and  C_3
REMARK    2  A    between atoms: N_14  and  C_15
REMARK                            x       y       z     vdW  Elec       q    Type
REMARK                         _______ _______ _______ _____ _____    ______ ____
ROOT
ATOM      1  O   UNL     1       4.108   6.729  16.887  0.00  0.00    +0.000 OA
ATOM      2  C   UNL     1       3.380   6.468  17.842  0.00  0.00    +0.000 C 
ATOM      3  N   UNL     1       2.515   7.424  18.388  0.00  0.00    +0.000 N 
ATOM      4  C   UNL     1       1.556   7.230  19.490  0.00  0.00    +0.000 C 
ATOM      5  C   UNL     1       1.405   8.446  20.409  0.00  0.00    +0.000 C 
ATOM      6  N   UNL     1       1.196   9.659  19.612  0.00  0.00    +0.000 N 
ATOM      7  C   UNL     1       2.222   9.894  18.583  0.00  0.00    +0.000 C 
ATOM      8  C   UNL     1       2.334   8.682  17.648  0.00  0.00    +0.000 C 
ENDROOT
BRANCH   2   9
ATOM      9  C   UNL     1       3.425   5.087  18.397  0.00  0.00    +0.000 A 
ATOM     10  C   UNL     1       2.315   4.243  18.224  0.00  0.00    +0.000 A 
ATOM     11  C   UNL     1       2.266   2.993  18.829  0.00  0.00    +0.000 A 
ATOM     12 CL   UNL     1       0.803   2.094  18.800  0.00  0.00    +0.000 Cl
ATOM     13  C   UNL     1       3.378   2.502  19.500  0.00  0.00    +0.000 A 
ATOM     14  C   UNL     1       4.534   3.281  19.583  0.00  0.00    +0.000 A 
ATOM     15  C   UNL     1       4.556   4.583  19.055  0.00  0.00    +0.000 A 
ATOM     16 CL   UNL     1       6.006   5.487  19.317  0.00  0.00    +0.000 Cl
ENDBRANCH   2   9
BRANCH   6  17
ATOM     17  C   UNL     1       0.109  10.481  19.800  0.00  0.00    +0.000 A 
ATOM     18  C   UNL     1      -0.052  11.221  20.980  0.00  0.00    +0.000 A 
ATOM     19  C   UNL     1      -1.159  12.052  21.173  0.00  0.00    +0.000 A 
ATOM     20  C   UNL     1      -2.137  12.169  20.197  0.00  0.00    +0.000 A 
ATOM     21 CL   UNL     1      -3.476  13.212  20.508  0.00  0.00    +0.000 Cl
ATOM     22  C   UNL     1      -2.000  11.449  19.013  0.00  0.00    +0.000 A 
ATOM     23 CL   UNL     1      -3.173  11.521  17.742  0.00  0.00    +0.000 Cl
ATOM     24  C   UNL     1      -0.886  10.621  18.824  0.00  0.00    +0.000 A 
ENDBRANCH   6  17
TORSDOF 2
ENDMDL
MODEL 7
REMARK VINA RESULT:      -6.5      3.047      4.183
REMARK  Name = 
REMARK  2 active torsions:
REMARK  status: ('A' for Active; 'I' for Inactive)
REMARK    1  A    between atoms: C_2  and  C_3
REMARK    2  A    between atoms: N_14  and  C_15
REMARK                            x       y       z     vdW  Elec       q    Type
REMARK                         _______ _______ _______ _____ _____    ______ ____
ROOT
ATOM      1  O   UNL     1       3.300   7.364  17.147  0.00  0.00    +0.000 OA
ATOM      2  C   UNL     1       2.822   6.935  18.195  0.00  0.00    +0.000 C 
ATOM      3  N   UNL     1       2.093   7.760  19.059  0.00  0.00    +0.000 N 
ATOM      4  C   UNL     1       1.423   7.366  20.312  0.00  0.00    +0.000 C 
ATOM      5  C   UNL     1       1.470   8.433  21.409  0.00  0.00    +0.000 C 
ATOM      6  N   UNL     1       1.057   9.733  20.869  0.00  0.00    +0.000 N 
ATOM      7  C   UNL     1       1.808  10.160  19.677  0.00  0.00    +0.000 C 
ATOM      8  C   UNL     1       1.720   9.097  18.574  0.00  0.00    +0.000 C 
ENDROOT
BRANCH   2   9
ATOM      9  C   UNL     1       3.022   5.495  18.517  0.00  0.00    +0.000 A 
ATOM     10  C   UNL     1       1.945   4.605  18.367  0.00  0.00    +0.000 A 
ATOM     11  C   UNL     1       2.053   3.279  18.770  0.00  0.00    +0.000 A 
ATOM     12 CL   UNL     1       0.651   2.287  18.802  0.00  0.00    +0.000 Cl
ATOM     13  C   UNL     1       3.276   2.780  19.198  0.00  0.00    +0.000 A 
ATOM     14  C   UNL     1       4.388   3.623  19.243  0.00  0.00    +0.000 A 
ATOM     15  C   UNL     1       4.263   4.986  18.927  0.00  0.00    +0.000 A 
ATOM     16 CL   UNL     1       5.685   5.948  19.126  0.00  0.00    +0.000 Cl
ENDBRANCH   2   9
BRANCH   6  17
ATOM     17  C   UNL     1       0.031  10.462  21.420  0.00  0.00    +0.000 A 
ATOM     18  C   UNL     1      -0.429  10.211  22.721  0.00  0.00    +0.000 A 
ATOM     19  C   UNL     1      -1.476  10.949  23.279  0.00  0.00    +0.000 A 
ATOM     20  C   UNL     1      -2.096  11.959  22.557  0.00  0.00    +0.000 A 
ATOM     21 CL   UNL     1      -3.383  12.826  23.312  0.00  0.00    +0.000 Cl
ATOM     22  C   UNL     1      -1.657  12.234  21.265  0.00  0.00    +0.000 A 
ATOM     23 CL   UNL     1      -2.374  13.466  20.284  0.00  0.00    +0.000 Cl
ATOM     24  C   UNL     1      -0.604  11.493  20.712  0.00  0.00    +0.000 A 
ENDBRANCH   6  17
TORSDOF 2
ENDMDL
MODEL 8
REMARK VINA RESULT:      -6.5      2.975      4.630
REMARK  Name = 
REMARK  2 active torsions:
REMARK  status: ('A' for Active; 'I' for Inactive)
REMARK    1  A    between atoms: C_2  and  C_3
REMARK    2  A    between atoms: N_14  and  C_15
REMARK                            x       y       z     vdW  Elec       q    Type
REMARK                         _______ _______ _______ _____ _____    ______ ____
ROOT
ATOM      1  O   UNL     1       2.751   8.040  17.083  0.00  0.00    +0.000 OA
ATOM      2  C   UNL     1       2.535   7.674  18.237  0.00  0.00    +0.000 C 
ATOM      3  N   UNL     1       1.803   8.464  19.131  0.00  0.00    +0.000 N 
ATOM      4  C   UNL     1       1.427   8.125  20.515  0.00  0.00    +0.000 C 
ATOM      5  C   UNL     1       1.437   9.318  21.476  0.00  0.00    +0.000 C 
ATOM      6  N   UNL     1       0.701  10.444  20.893  0.00  0.00    +0.000 N 
ATOM      7  C   UNL     1       1.159  10.837  19.550  0.00  0.00    +0.000 C 
ATOM      8  C   UNL     1       1.107   9.641  18.591  0.00  0.00    +0.000 C 
ENDROOT
BRANCH   2   9
ATOM      9  C   UNL     1       3.058   6.344  18.658  0.00  0.00    +0.000 A 
ATOM     10  C   UNL     1       2.208   5.462  19.347  0.00  0.00    +0.000 A 
ATOM     11  C   UNL     1       2.689   4.265  19.863  0.00  0.00    +0.000 A 
ATOM     12 CL   UNL     1       1.693   3.331  20.905  0.00  0.00    +0.000 Cl
ATOM     13  C   UNL     1       3.987   3.859  19.582  0.00  0.00    +0.000 A 
ATOM     14  C   UNL     1       4.811   4.670  18.800  0.00  0.00    +0.000 A 
ATOM     15  C   UNL     1       4.361   5.924  18.355  0.00  0.00    +0.000 A 
ATOM     16 CL   UNL     1       5.509   6.882  17.488  0.00  0.00    +0.000 Cl
ENDBRANCH   2   9
BRANCH   6  17
ATOM     17  C   UNL     1      -0.349  11.048  21.543  0.00  0.00    +0.000 A 
ATOM     18  C   UNL     1      -0.796  10.592  22.792  0.00  0.00    +0.000 A 
ATOM     19  C   UNL     1      -1.866  11.203  23.450  0.00  0.00    +0.000 A 
ATOM     20  C   UNL     1      -2.522  12.286  22.884  0.00  0.00    +0.000 A 
ATOM     21 CL   UNL     1      -3.836  12.988  23.755  0.00  0.00    +0.000 Cl
ATOM     22  C   UNL     1      -2.096  12.765  21.648  0.00  0.00    +0.000 A 
ATOM     23 CL   UNL     1      -2.857  14.103  20.857  0.00  0.00    +0.000 Cl
ATOM     24  C   UNL     1      -1.020  12.150  20.994  0.00  0.00    +0.000 A 
ENDBRANCH   6  17
TORSDOF 2
ENDMDL
MODEL 9
REMARK VINA RESULT:      -6.4      1.548      2.148
REMARK  Name = 
REMARK  2 active torsions:
REMARK  status: ('A' for Active; 'I' for Inactive)
REMARK    1  A    between atoms: C_2  and  C_3
REMARK    2  A    between atoms: N_14  and  C_15
REMARK                            x       y       z     vdW  Elec       q    Type
REMARK                         _______ _______ _______ _____ _____    ______ ____
ROOT
ATOM      1  O   UNL     1       3.880   4.214  19.433  0.00  0.00    +0.000 OA
ATOM      2  C   UNL     1       4.110   5.153  18.674  0.00  0.00    +0.000 C 
ATOM      3  N   UNL     1       3.414   6.364  18.775  0.00  0.00    +0.000 N 
ATOM      4  C   UNL     1       3.625   7.580  17.970  0.00  0.00    +0.000 C 
ATOM      5  C   UNL     1       2.339   8.350  17.653  0.00  0.00    +0.000 C 
ATOM      6  N   UNL     1       1.551   8.545  18.874  0.00  0.00    +0.000 N 
ATOM      7  C   UNL     1       1.261   7.304  19.612  0.00  0.00    +0.000 C 
ATOM      8  C   UNL     1       2.560   6.564  19.955  0.00  0.00    +0.000 C 
ENDROOT
BRANCH   2   9
ATOM      9  C   UNL     1       5.172   4.976  17.645  0.00  0.00    +0.000 A 
ATOM     10  C   UNL     1       4.801   4.709  16.317  0.00  0.00    +0.000 A 
ATOM     11  C   UNL     1       5.758   4.418  15.353  0.00  0.00    +0.000 A 
ATOM     12 CL   UNL     1       5.260   3.858  13.807  0.00  0.00    +0.000 Cl
ATOM     13  C   UNL     1       7.108   4.526  15.659  0.00  0.00    +0.000 A 
ATOM     14  C   UNL     1       7.496   4.905  16.945  0.00  0.00    +0.000 A 
ATOM     15  C   UNL     1       6.535   5.108  17.949  0.00  0.00    +0.000 A 
ATOM     16 CL   UNL     1       7.144   5.466  19.527  0.00  0.00    +0.000 Cl
ENDBRANCH   2   9
BRANCH   6  17
ATOM     17  C   UNL     1       1.154   9.791  19.299  0.00  0.00    +0.000 A 
ATOM     18  C   UNL     1       0.266   9.949  20.373  0.00  0.00    +0.000 A 
ATOM     19  C   UNL     1      -0.141  11.214  20.802  0.00  0.00    +0.000 A 
ATOM     20  C   UNL     1       0.324  12.360  20.173  0.00  0.00    +0.000 A 
ATOM     21 CL   UNL     1      -0.226  13.888  20.756  0.00  0.00    +0.000 Cl
ATOM     22  C   UNL     1       1.210  12.234  19.106  0.00  0.00    +0.000 A 
ATOM     23 CL   UNL     1       1.835  13.603  18.252  0.00  0.00    +0.000 Cl
ATOM     24  C   UNL     1       1.618  10.961  18.684  0.00  0.00    +0.000 A 
ENDBRANCH   6  17
TORSDOF 2
ENDMDL
