MODEL 1
REMARK VINA RESULT:      -8.3      0.000      0.000
REMARK  Name = 
REMARK  13 active torsions:
REMARK  status: ('A' for Active; 'I' for Inactive)
REMARK    1  A    between atoms: C_1  and  C_2
REMARK    2  A    between atoms: N_4  and  C_5
REMARK    3  A    between atoms: C_5  and  C_6
REMARK    4  A    between atoms: C_6  and  N_7
REMARK    5  A    between atoms: C_8  and  C_10
REMARK    6  A    between atoms: C_12  and  N_13
REMARK    7  A    between atoms: N_13  and  C_14
REMARK    8  A    between atoms: C_14  and  C_15
REMARK    9  A    between atoms: C_19  and  C_20
REMARK   10  A    between atoms: C_23  and  S_24
REMARK   11  A    between atoms: S_24  and  N_27
REMARK   12  A    between atoms: N_27  and  C_28
REMARK   13  A    between atoms: C_33  and  C_34
REMARK                            x       y       z     vdW  Elec       q    Type
REMARK                         _______ _______ _______ _____ _____    ______ ____
ROOT
ATOM      1  C   UNL     1       6.806   5.795  17.731  0.00  0.00    +0.000 A 
ATOM      2  C   UNL     1       6.783   5.882  16.324  0.00  0.00    +0.000 A 
ATOM      3  C   UNL     1       5.856   5.162  15.559  0.00  0.00    +0.000 A 
ATOM      4  C   UNL     1       5.025   4.264  16.224  0.00  0.00    +0.000 A 
ATOM      5  C   UNL     1       5.026   4.165  17.611  0.00  0.00    +0.000 A 
ATOM      6  C   UNL     1       5.919   4.920  18.374  0.00  0.00    +0.000 A 
ENDROOT
BRANCH   1   8
ATOM      7  N   UNL     1       8.029   7.893  18.165  0.00  0.00    +0.000 N 
ATOM      8  C   UNL     1       7.748   6.600  18.574  0.00  0.00    +0.000 C 
ATOM      9  O   UNL     1       8.218   6.126  19.601  0.00  0.00    +0.000 OA
ATOM     10  H   UNL     1       7.582   8.298  17.359  0.00  0.00    +0.000 HD
BRANCH   7  11
ATOM     11  C   UNL     1       8.916   8.762  18.919  0.00  0.00    +0.000 C 
BRANCH  11  12
ATOM     12  C   UNL     1       8.832  10.227  18.478  0.00  0.00    +0.000 C 
BRANCH  12  16
ATOM     13  C   UNL     1      11.620  12.289  20.023  0.00  0.00    +0.000 C 
ATOM     14  C   UNL     1      10.298  11.572  19.944  0.00  0.00    +0.000 C 
ATOM     15  O   UNL     1       9.508  11.545  20.880  0.00  0.00    +0.000 OA
ATOM     16  N   UNL     1      10.064  10.958  18.735  0.00  0.00    +0.000 N 
ATOM     17  H   UNL     1      10.783  10.955  18.022  0.00  0.00    +0.000 HD
ENDBRANCH  12  16
ENDBRANCH  11  12
ENDBRANCH   7  11
ENDBRANCH   1   8
BRANCH   5  18
ATOM     18  S   UNL     1       3.957   2.966  18.359  0.00  0.00    +0.000 S 
ATOM     19  O   UNL     1       3.850   1.847  17.443  0.00  0.00    +0.000 OA
ATOM     20  O   UNL     1       4.416   2.762  19.716  0.00  0.00    +0.000 OA
BRANCH  18  21
ATOM     21  N   UNL     1       2.445   3.701  18.345  0.00  0.00    +0.000 N 
ATOM     22  H   UNL     1       1.660   3.051  18.305  0.00  0.00    +0.000 HD
BRANCH  21  23
ATOM     23  C   UNL     1       2.260   4.981  18.926  0.00  0.00    +0.000 A 
ATOM     24  C   UNL     1       2.477   6.090  18.100  0.00  0.00    +0.000 A 
ATOM     25  C   UNL     1       2.367   7.383  18.610  0.00  0.00    +0.000 A 
ATOM     26  C   UNL     1       2.005   7.574  19.938  0.00  0.00    +0.000 A 
ATOM     27  C   UNL     1       1.745   6.472  20.752  0.00  0.00    +0.000 A 
ATOM     28  C   UNL     1       1.872   5.161  20.262  0.00  0.00    +0.000 A 
ATOM     29  C   UNL     1       1.549   4.025  21.190  0.00  0.00    +0.000 C 
ENDBRANCH  21  23
ENDBRANCH  18  21
ENDBRANCH   5  18
BRANCH   3  30
ATOM     30  N   UNL     1       5.878   5.248  14.166  0.00  0.00    +0.000 N 
ATOM     31  H   UNL     1       4.968   5.129  13.725  0.00  0.00    +0.000 HD
BRANCH  30  32
ATOM     32  C   UNL     1       6.912   4.504  13.450  0.00  0.00    +0.000 C 
BRANCH  32  33
ATOM     33  C   UNL     1       6.286   3.505  12.516  0.00  0.00    +0.000 A 
ATOM     34  C   UNL     1       7.043   2.449  11.998  0.00  0.00    +0.000 A 
ATOM     35  C   UNL     1       6.492   1.592  11.050  0.00  0.00    +0.000 A 
ATOM     36  C   UNL     1       5.179   1.778  10.615  0.00  0.00    +0.000 A 
ATOM     37  C   UNL     1       4.400   2.820  11.126  0.00  0.00    +0.000 A 
ATOM     38  C   UNL     1       2.997   3.041  10.645  0.00  0.00    +0.000 C 
ATOM     39  C   UNL     1       4.960   3.677  12.079  0.00  0.00    +0.000 A 
ENDBRANCH  32  33
ENDBRANCH  30  32
ENDBRANCH   3  30
TORSDOF 10
ENDMDL
MODEL 2
REMARK VINA RESULT:      -8.2      7.106     10.685
REMARK  Name = 
REMARK  13 active torsions:
REMARK  status: ('A' for Active; 'I' for Inactive)
REMARK    1  A    between atoms: C_1  and  C_2
REMARK    2  A    between atoms: N_4  and  C_5
REMARK    3  A    between atoms: C_5  and  C_6
REMARK    4  A    between atoms: C_6  and  N_7
REMARK    5  A    between atoms: C_8  and  C_10
REMARK    6  A    between atoms: C_12  and  N_13
REMARK    7  A    between atoms: N_13  and  C_14
REMARK    8  A    between atoms: C_14  and  C_15
REMARK    9  A    between atoms: C_19  and  C_20
REMARK   10  A    between atoms: C_23  and  S_24
REMARK   11  A    between atoms: S_24  and  N_27
REMARK   12  A    between atoms: N_27  and  C_28
REMARK   13  A    between atoms: C_33  and  C_34
REMARK                            x       y       z     vdW  Elec       q    Type
REMARK                         _______ _______ _______ _____ _____    ______ ____
ROOT
ATOM      1  C   UNL     1      -1.101  10.419  17.946  0.00  0.00    +0.000 A 
ATOM      2  C   UNL     1      -0.027   9.533  17.723  0.00  0.00    +0.000 A 
ATOM      3  C   UNL     1       1.145   9.591  18.489  0.00  0.00    +0.000 A 
ATOM      4  C   UNL     1       1.266  10.629  19.410  0.00  0.00    +0.000 A 
ATOM      5  C   UNL     1       0.219  11.511  19.651  0.00  0.00    +0.000 A 
ATOM      6  C   UNL     1      -0.967  11.421  18.918  0.00  0.00    +0.000 A 
ENDROOT
BRANCH   1   8
ATOM      7  N   UNL     1      -2.476  11.057  16.000  0.00  0.00    +0.000 N 
ATOM      8  C   UNL     1      -2.386  10.338  17.180  0.00  0.00    +0.000 C 
ATOM      9  O   UNL     1      -3.304   9.632  17.583  0.00  0.00    +0.000 OA
ATOM     10  H   UNL     1      -1.692  11.576  15.641  0.00  0.00    +0.000 HD
BRANCH   7  11
ATOM     11  C   UNL     1      -3.671  11.035  15.175  0.00  0.00    +0.000 C 
BRANCH  11  12
ATOM     12  C   UNL     1      -3.668   9.896  14.151  0.00  0.00    +0.000 C 
BRANCH  12  16
ATOM     13  C   UNL     1      -6.127   9.713  11.265  0.00  0.00    +0.000 C 
ATOM     14  C   UNL     1      -4.793   9.670  11.963  0.00  0.00    +0.000 C 
ATOM     15  O   UNL     1      -3.746   9.457  11.364  0.00  0.00    +0.000 OA
ATOM     16  N   UNL     1      -4.861   9.891  13.319  0.00  0.00    +0.000 N 
ATOM     17  H   UNL     1      -5.762   9.993  13.769  0.00  0.00    +0.000 HD
ENDBRANCH  12  16
ENDBRANCH  11  12
ENDBRANCH   7  11
ENDBRANCH   1   8
BRANCH   5  18
ATOM     18  S   UNL     1       0.486  12.820  20.815  0.00  0.00    +0.000 S 
ATOM     19  O   UNL     1      -0.179  14.002  20.302  0.00  0.00    +0.000 OA
ATOM     20  O   UNL     1       0.160  12.306  22.128  0.00  0.00    +0.000 OA
BRANCH  18  21
ATOM     21  N   UNL     1       2.132  13.145  20.694  0.00  0.00    +0.000 N 
ATOM     22  H   UNL     1       2.733  12.334  20.833  0.00  0.00    +0.000 HD
BRANCH  21  23
ATOM     23  C   UNL     1       2.596  14.230  19.907  0.00  0.00    +0.000 A 
ATOM     24  C   UNL     1       2.783  13.988  18.541  0.00  0.00    +0.000 A 
ATOM     25  C   UNL     1       3.286  14.986  17.708  0.00  0.00    +0.000 A 
ATOM     26  C   UNL     1       3.570  16.243  18.230  0.00  0.00    +0.000 A 
ATOM     27  C   UNL     1       3.343  16.501  19.582  0.00  0.00    +0.000 A 
ATOM     28  C   UNL     1       2.857  15.500  20.440  0.00  0.00    +0.000 A 
ATOM     29  C   UNL     1       2.612  15.860  21.878  0.00  0.00    +0.000 C 
ENDBRANCH  21  23
ENDBRANCH  18  21
ENDBRANCH   5  18
BRANCH   3  30
ATOM     30  N   UNL     1       2.201   8.718  18.224  0.00  0.00    +0.000 N 
ATOM     31  H   UNL     1       2.316   8.487  17.239  0.00  0.00    +0.000 HD
BRANCH  30  32
ATOM     32  C   UNL     1       2.334   7.530  19.064  0.00  0.00    +0.000 C 
BRANCH  32  33
ATOM     33  C   UNL     1       2.849   6.372  18.253  0.00  0.00    +0.000 A 
ATOM     34  C   UNL     1       2.169   5.150  18.252  0.00  0.00    +0.000 A 
ATOM     35  C   UNL     1       2.707   4.050  17.591  0.00  0.00    +0.000 A 
ATOM     36  C   UNL     1       3.926   4.161  16.920  0.00  0.00    +0.000 A 
ATOM     37  C   UNL     1       4.619   5.375  16.900  0.00  0.00    +0.000 A 
ATOM     38  C   UNL     1       5.941   5.497  16.202  0.00  0.00    +0.000 C 
ATOM     39  C   UNL     1       4.072   6.477  17.565  0.00  0.00    +0.000 A 
ENDBRANCH  32  33
ENDBRANCH  30  32
ENDBRANCH   3  30
TORSDOF 10
ENDMDL
MODEL 3
REMARK VINA RESULT:      -8.2      7.311     10.770
REMARK  Name = 
REMARK  13 active torsions:
REMARK  status: ('A' for Active; 'I' for Inactive)
REMARK    1  A    between atoms: C_1  and  C_2
REMARK    2  A    between atoms: N_4  and  C_5
REMARK    3  A    between atoms: C_5  and  C_6
REMARK    4  A    between atoms: C_6  and  N_7
REMARK    5  A    between atoms: C_8  and  C_10
REMARK    6  A    between atoms: C_12  and  N_13
REMARK    7  A    between atoms: N_13  and  C_14
REMARK    8  A    between atoms: C_14  and  C_15
REMARK    9  A    between atoms: C_19  and  C_20
REMARK   10  A    between atoms: C_23  and  S_24
REMARK   11  A    between atoms: S_24  and  N_27
REMARK   12  A    between atoms: N_27  and  C_28
REMARK   13  A    between atoms: C_33  and  C_34
REMARK                            x       y       z     vdW  Elec       q    Type
REMARK                         _______ _______ _______ _____ _____    ______ ____
ROOT
ATOM      1  C   UNL     1      -1.032  10.392  18.032  0.00  0.00    +0.000 A 
ATOM      2  C   UNL     1       0.060   9.521  17.842  0.00  0.00    +0.000 A 
ATOM      3  C   UNL     1       1.224   9.622  18.615  0.00  0.00    +0.000 A 
ATOM      4  C   UNL     1       1.318  10.687  19.508  0.00  0.00    +0.000 A 
ATOM      5  C   UNL     1       0.253  11.556  19.716  0.00  0.00    +0.000 A 
ATOM      6  C   UNL     1      -0.925  11.422  18.977  0.00  0.00    +0.000 A 
ENDROOT
BRANCH   1   8
ATOM      7  N   UNL     1      -2.458  11.058  16.133  0.00  0.00    +0.000 N 
ATOM      8  C   UNL     1      -2.309  10.266  17.259  0.00  0.00    +0.000 C 
ATOM      9  O   UNL     1      -3.167   9.464  17.607  0.00  0.00    +0.000 OA
ATOM     10  H   UNL     1      -1.717  11.662  15.814  0.00  0.00    +0.000 HD
BRANCH   7  11
ATOM     11  C   UNL     1      -3.649  11.002  15.304  0.00  0.00    +0.000 C 
BRANCH  11  12
ATOM     12  C   UNL     1      -3.510  10.035  14.124  0.00  0.00    +0.000 C 
BRANCH  12  16
ATOM     13  C   UNL     1      -6.069   9.588  11.356  0.00  0.00    +0.000 C 
ATOM     14  C   UNL     1      -4.708   9.650  11.997  0.00  0.00    +0.000 C 
ATOM     15  O   UNL     1      -3.675   9.466  11.364  0.00  0.00    +0.000 OA
ATOM     16  N   UNL     1      -4.734   9.928  13.344  0.00  0.00    +0.000 N 
ATOM     17  H   UNL     1      -5.621  10.002  13.828  0.00  0.00    +0.000 HD
ENDBRANCH  12  16
ENDBRANCH  11  12
ENDBRANCH   7  11
ENDBRANCH   1   8
BRANCH   5  18
ATOM     18  S   UNL     1       0.486  12.901  20.846  0.00  0.00    +0.000 S 
ATOM     19  O   UNL     1       1.823  12.782  21.393  0.00  0.00    +0.000 OA
ATOM     20  O   UNL     1       0.075  14.112  20.170  0.00  0.00    +0.000 OA
BRANCH  18  21
ATOM     21  N   UNL     1      -0.551  12.548  22.122  0.00  0.00    +0.000 N 
ATOM     22  H   UNL     1      -0.231  11.795  22.729  0.00  0.00    +0.000 HD
BRANCH  21  23
ATOM     23  C   UNL     1      -1.417  13.542  22.643  0.00  0.00    +0.000 A 
ATOM     24  C   UNL     1      -0.859  14.467  23.533  0.00  0.00    +0.000 A 
ATOM     25  C   UNL     1      -1.654  15.444  24.129  0.00  0.00    +0.000 A 
ATOM     26  C   UNL     1      -3.005  15.524  23.810  0.00  0.00    +0.000 A 
ATOM     27  C   UNL     1      -3.555  14.633  22.890  0.00  0.00    +0.000 A 
ATOM     28  C   UNL     1      -2.774  13.628  22.296  0.00  0.00    +0.000 A 
ATOM     29  C   UNL     1      -3.430  12.722  21.293  0.00  0.00    +0.000 C 
ENDBRANCH  21  23
ENDBRANCH  18  21
ENDBRANCH   5  18
BRANCH   3  30
ATOM     30  N   UNL     1       2.299   8.763  18.382  0.00  0.00    +0.000 N 
ATOM     31  H   UNL     1       2.498   8.598  17.397  0.00  0.00    +0.000 HD
BRANCH  30  32
ATOM     32  C   UNL     1       2.359   7.519  19.147  0.00  0.00    +0.000 C 
BRANCH  32  33
ATOM     33  C   UNL     1       2.891   6.403  18.290  0.00  0.00    +0.000 A 
ATOM     34  C   UNL     1       2.270   5.150  18.293  0.00  0.00    +0.000 A 
ATOM     35  C   UNL     1       2.828   4.090  17.586  0.00  0.00    +0.000 A 
ATOM     36  C   UNL     1       4.009   4.273  16.864  0.00  0.00    +0.000 A 
ATOM     37  C   UNL     1       4.642   5.519  16.839  0.00  0.00    +0.000 A 
ATOM     38  C   UNL     1       5.924   5.717  16.086  0.00  0.00    +0.000 C 
ATOM     39  C   UNL     1       4.075   6.580  17.550  0.00  0.00    +0.000 A 
ENDBRANCH  32  33
ENDBRANCH  30  32
ENDBRANCH   3  30
TORSDOF 10
ENDMDL
MODEL 4
REMARK VINA RESULT:      -8.1      7.281     10.897
REMARK  Name = 
REMARK  13 active torsions:
REMARK  status: ('A' for Active; 'I' for Inactive)
REMARK    1  A    between atoms: C_1  and  C_2
REMARK    2  A    between atoms: N_4  and  C_5
REMARK    3  A    between atoms: C_5  and  C_6
REMARK    4  A    between atoms: C_6  and  N_7
REMARK    5  A    between atoms: C_8  and  C_10
REMARK    6  A    between atoms: C_12  and  N_13
REMARK    7  A    between atoms: N_13  and  C_14
REMARK    8  A    between atoms: C_14  and  C_15
REMARK    9  A    between atoms: C_19  and  C_20
REMARK   10  A    between atoms: C_23  and  S_24
REMARK   11  A    between atoms: S_24  and  N_27
REMARK   12  A    between atoms: N_27  and  C_28
REMARK   13  A    between atoms: C_33  and  C_34
REMARK                            x       y       z     vdW  Elec       q    Type
REMARK                         _______ _______ _______ _____ _____    ______ ____
ROOT
ATOM      1  C   UNL     1      -1.263  10.914  18.045  0.00  0.00    +0.000 A 
ATOM      2  C   UNL     1      -0.366   9.835  18.181  0.00  0.00    +0.000 A 
ATOM      3  C   UNL     1       0.805   9.946  18.942  0.00  0.00    +0.000 A 
ATOM      4  C   UNL     1       1.119  11.195  19.472  0.00  0.00    +0.000 A 
ATOM      5  C   UNL     1       0.247  12.272  19.354  0.00  0.00    +0.000 A 
ATOM      6  C   UNL     1      -0.943  12.145  18.635  0.00  0.00    +0.000 A 
ENDROOT
BRANCH   1   8
ATOM      7  N   UNL     1      -2.541  11.166  15.950  0.00  0.00    +0.000 N 
ATOM      8  C   UNL     1      -2.550  10.802  17.286  0.00  0.00    +0.000 C 
ATOM      9  O   UNL     1      -3.558  10.373  17.836  0.00  0.00    +0.000 OA
ATOM     10  H   UNL     1      -1.692  11.449  15.489  0.00  0.00    +0.000 HD
BRANCH   7  11
ATOM     11  C   UNL     1      -3.731  11.080  15.121  0.00  0.00    +0.000 C 
BRANCH  11  12
ATOM     12  C   UNL     1      -3.749   9.834  14.230  0.00  0.00    +0.000 C 
BRANCH  12  16
ATOM     13  C   UNL     1      -6.100   9.653  11.256  0.00  0.00    +0.000 C 
ATOM     14  C   UNL     1      -4.788   9.673  11.994  0.00  0.00    +0.000 C 
ATOM     15  O   UNL     1      -3.709   9.592  11.418  0.00  0.00    +0.000 OA
ATOM     16  N   UNL     1      -4.914   9.789  13.359  0.00  0.00    +0.000 N 
ATOM     17  H   UNL     1      -5.832   9.782  13.784  0.00  0.00    +0.000 HD
ENDBRANCH  12  16
ENDBRANCH  11  12
ENDBRANCH   7  11
ENDBRANCH   1   8
BRANCH   5  18
ATOM     18  S   UNL     1       0.755  13.829  20.030  0.00  0.00    +0.000 S 
ATOM     19  O   UNL     1       2.160  14.003  19.716  0.00  0.00    +0.000 OA
ATOM     20  O   UNL     1      -0.217  14.819  19.619  0.00  0.00    +0.000 OA
BRANCH  18  21
ATOM     21  N   UNL     1       0.697  13.591  21.694  0.00  0.00    +0.000 N 
ATOM     22  H   UNL     1       1.479  13.997  22.206  0.00  0.00    +0.000 HD
BRANCH  21  23
ATOM     23  C   UNL     1      -0.546  13.408  22.352  0.00  0.00    +0.000 A 
ATOM     24  C   UNL     1      -1.036  12.099  22.430  0.00  0.00    +0.000 A 
ATOM     25  C   UNL     1      -2.274  11.840  23.015  0.00  0.00    +0.000 A 
ATOM     26  C   UNL     1      -3.013  12.885  23.558  0.00  0.00    +0.000 A 
ATOM     27  C   UNL     1      -2.508  14.185  23.522  0.00  0.00    +0.000 A 
ATOM     28  C   UNL     1      -1.272  14.467  22.917  0.00  0.00    +0.000 A 
ATOM     29  C   UNL     1      -0.781  15.887  22.941  0.00  0.00    +0.000 C 
ENDBRANCH  21  23
ENDBRANCH  18  21
ENDBRANCH   5  18
BRANCH   3  30
ATOM     30  N   UNL     1       1.687   8.868  19.034  0.00  0.00    +0.000 N 
ATOM     31  H   UNL     1       2.104   8.746  19.955  0.00  0.00    +0.000 HD
BRANCH  30  32
ATOM     32  C   UNL     1       2.685   8.707  17.979  0.00  0.00    +0.000 C 
BRANCH  32  33
ATOM     33  C   UNL     1       3.074   7.261  17.844  0.00  0.00    +0.000 A 
ATOM     34  C   UNL     1       4.315   6.909  17.302  0.00  0.00    +0.000 A 
ATOM     35  C   UNL     1       4.627   5.571  17.076  0.00  0.00    +0.000 A 
ATOM     36  C   UNL     1       3.705   4.573  17.393  0.00  0.00    +0.000 A 
ATOM     37  C   UNL     1       2.462   4.900  17.944  0.00  0.00    +0.000 A 
ATOM     38  C   UNL     1       1.457   3.835  18.265  0.00  0.00    +0.000 C 
ATOM     39  C   UNL     1       2.156   6.245  18.170  0.00  0.00    +0.000 A 
ENDBRANCH  32  33
ENDBRANCH  30  32
ENDBRANCH   3  30
TORSDOF 10
ENDMDL
MODEL 5
REMARK VINA RESULT:      -8.1      0.761      1.308
REMARK  Name = 
REMARK  13 active torsions:
REMARK  status: ('A' for Active; 'I' for Inactive)
REMARK    1  A    between atoms: C_1  and  C_2
REMARK    2  A    between atoms: N_4  and  C_5
REMARK    3  A    between atoms: C_5  and  C_6
REMARK    4  A    between atoms: C_6  and  N_7
REMARK    5  A    between atoms: C_8  and  C_10
REMARK    6  A    between atoms: C_12  and  N_13
REMARK    7  A    between atoms: N_13  and  C_14
REMARK    8  A    between atoms: C_14  and  C_15
REMARK    9  A    between atoms: C_19  and  C_20
REMARK   10  A    between atoms: C_23  and  S_24
REMARK   11  A    between atoms: S_24  and  N_27
REMARK   12  A    between atoms: N_27  and  C_28
REMARK   13  A    between atoms: C_33  and  C_34
REMARK                            x       y       z     vdW  Elec       q    Type
REMARK                         _______ _______ _______ _____ _____    ______ ____
ROOT
ATOM      1  C   UNL     1       6.707   5.526  17.822  0.00  0.00    +0.000 A 
ATOM      2  C   UNL     1       6.640   5.668  16.421  0.00  0.00    +0.000 A 
ATOM      3  C   UNL     1       5.678   4.992  15.660  0.00  0.00    +0.000 A 
ATOM      4  C   UNL     1       4.854   4.081  16.316  0.00  0.00    +0.000 A 
ATOM      5  C   UNL     1       4.899   3.927  17.698  0.00  0.00    +0.000 A 
ATOM      6  C   UNL     1       5.828   4.639  18.460  0.00  0.00    +0.000 A 
ENDROOT
BRANCH   1   8
ATOM      7  N   UNL     1       7.974   7.588  18.298  0.00  0.00    +0.000 N 
ATOM      8  C   UNL     1       7.688   6.284  18.664  0.00  0.00    +0.000 C 
ATOM      9  O   UNL     1       8.185   5.763  19.655  0.00  0.00    +0.000 OA
ATOM     10  H   UNL     1       7.506   8.031  17.524  0.00  0.00    +0.000 HD
BRANCH   7  11
ATOM     11  C   UNL     1       8.898   8.414  19.055  0.00  0.00    +0.000 C 
BRANCH  11  12
ATOM     12  C   UNL     1       8.869   9.886  18.629  0.00  0.00    +0.000 C 
BRANCH  12  16
ATOM     13  C   UNL     1      11.383  12.297  20.138  0.00  0.00    +0.000 C 
ATOM     14  C   UNL     1      10.703  11.483  19.070  0.00  0.00    +0.000 C 
ATOM     15  O   UNL     1      11.075  11.489  17.902  0.00  0.00    +0.000 OA
ATOM     16  N   UNL     1       9.637  10.740  19.522  0.00  0.00    +0.000 N 
ATOM     17  H   UNL     1       9.333  10.828  20.484  0.00  0.00    +0.000 HD
ENDBRANCH  12  16
ENDBRANCH  11  12
ENDBRANCH   7  11
ENDBRANCH   1   8
BRANCH   5  18
ATOM     18  S   UNL     1       3.836   2.715  18.433  0.00  0.00    +0.000 S 
ATOM     19  O   UNL     1       3.678   1.637  17.477  0.00  0.00    +0.000 OA
ATOM     20  O   UNL     1       4.339   2.447  19.764  0.00  0.00    +0.000 OA
BRANCH  18  21
ATOM     21  N   UNL     1       2.338   3.473  18.503  0.00  0.00    +0.000 N 
ATOM     22  H   UNL     1       1.548   2.838  18.607  0.00  0.00    +0.000 HD
BRANCH  21  23
ATOM     23  C   UNL     1       2.225   4.806  18.975  0.00  0.00    +0.000 A 
ATOM     24  C   UNL     1       2.314   5.826  18.022  0.00  0.00    +0.000 A 
ATOM     25  C   UNL     1       2.266   7.164  18.411  0.00  0.00    +0.000 A 
ATOM     26  C   UNL     1       2.092   7.488  19.751  0.00  0.00    +0.000 A 
ATOM     27  C   UNL     1       1.959   6.473  20.699  0.00  0.00    +0.000 A 
ATOM     28  C   UNL     1       2.027   5.120  20.328  0.00  0.00    +0.000 A 
ATOM     29  C   UNL     1       1.848   4.083  21.400  0.00  0.00    +0.000 C 
ENDBRANCH  21  23
ENDBRANCH  18  21
ENDBRANCH   5  18
BRANCH   3  30
ATOM     30  N   UNL     1       5.656   5.132  14.271  0.00  0.00    +0.000 N 
ATOM     31  H   UNL     1       4.725   5.079  13.860  0.00  0.00    +0.000 HD
BRANCH  30  32
ATOM     32  C   UNL     1       6.622   4.364  13.490  0.00  0.00    +0.000 C 
BRANCH  32  33
ATOM     33  C   UNL     1       5.912   3.503  12.481  0.00  0.00    +0.000 A 
ATOM     34  C   UNL     1       4.708   3.928  11.910  0.00  0.00    +0.000 A 
ATOM     35  C   UNL     1       3.998   3.083  11.062  0.00  0.00    +0.000 A 
ATOM     36  C   UNL     1       4.487   1.808  10.772  0.00  0.00    +0.000 A 
ATOM     37  C   UNL     1       5.693   1.365  11.323  0.00  0.00    +0.000 A 
ATOM     38  C   UNL     1       6.212  -0.011  11.035  0.00  0.00    +0.000 C 
ATOM     39  C   UNL     1       6.401   2.220  12.173  0.00  0.00    +0.000 A 
ENDBRANCH  32  33
ENDBRANCH  30  32
ENDBRANCH   3  30
TORSDOF 10
ENDMDL
MODEL 6
REMARK VINA RESULT:      -8.0      4.136      7.135
REMARK  Name = 
REMARK  13 active torsions:
REMARK  status: ('A' for Active; 'I' for Inactive)
REMARK    1  A    between atoms: C_1  and  C_2
REMARK    2  A    between atoms: N_4  and  C_5
REMARK    3  A    between atoms: C_5  and  C_6
REMARK    4  A    between atoms: C_6  and  N_7
REMARK    5  A    between atoms: C_8  and  C_10
REMARK    6  A    between atoms: C_12  and  N_13
REMARK    7  A    between atoms: N_13  and  C_14
REMARK    8  A    between atoms: C_14  and  C_15
REMARK    9  A    between atoms: C_19  and  C_20
REMARK   10  A    between atoms: C_23  and  S_24
REMARK   11  A    between atoms: S_24  and  N_27
REMARK   12  A    between atoms: N_27  and  C_28
REMARK   13  A    between atoms: C_33  and  C_34
REMARK                            x       y       z     vdW  Elec       q    Type
REMARK                         _______ _______ _______ _____ _____    ______ ____
ROOT
ATOM      1  C   UNL     1       3.432   7.090  17.742  0.00  0.00    +0.000 A 
ATOM      2  C   UNL     1       3.160   6.230  18.825  0.00  0.00    +0.000 A 
ATOM      3  C   UNL     1       2.253   6.580  19.833  0.00  0.00    +0.000 A 
ATOM      4  C   UNL     1       1.705   7.860  19.796  0.00  0.00    +0.000 A 
ATOM      5  C   UNL     1       1.954   8.725  18.735  0.00  0.00    +0.000 A 
ATOM      6  C   UNL     1       2.823   8.353  17.707  0.00  0.00    +0.000 A 
ENDROOT
BRANCH   1   8
ATOM      7  N   UNL     1       4.756   5.391  16.541  0.00  0.00    +0.000 N 
ATOM      8  C   UNL     1       4.353   6.713  16.622  0.00  0.00    +0.000 C 
ATOM      9  O   UNL     1       4.702   7.551  15.799  0.00  0.00    +0.000 OA
ATOM     10  H   UNL     1       4.406   4.695  17.179  0.00  0.00    +0.000 HD
BRANCH   7  11
ATOM     11  C   UNL     1       5.634   4.918  15.485  0.00  0.00    +0.000 C 
BRANCH  11  12
ATOM     12  C   UNL     1       7.118   5.110  15.814  0.00  0.00    +0.000 C 
BRANCH  12  16
ATOM     13  C   UNL     1       7.931   5.714  19.472  0.00  0.00    +0.000 C 
ATOM     14  C   UNL     1       7.653   6.057  18.033  0.00  0.00    +0.000 C 
ATOM     15  O   UNL     1       7.655   7.211  17.620  0.00  0.00    +0.000 OA
ATOM     16  N   UNL     1       7.398   4.966  17.234  0.00  0.00    +0.000 N 
ATOM     17  H   UNL     1       7.341   4.043  17.645  0.00  0.00    +0.000 HD
ENDBRANCH  12  16
ENDBRANCH  11  12
ENDBRANCH   7  11
ENDBRANCH   1   8
BRANCH   5  18
ATOM     18  S   UNL     1       1.241  10.346  18.800  0.00  0.00    +0.000 S 
ATOM     19  O   UNL     1       2.035  11.206  17.945  0.00  0.00    +0.000 OA
ATOM     20  O   UNL     1      -0.182  10.203  18.578  0.00  0.00    +0.000 OA
BRANCH  18  21
ATOM     21  N   UNL     1       1.550  10.866  20.369  0.00  0.00    +0.000 N 
ATOM     22  H   UNL     1       2.424  11.379  20.479  0.00  0.00    +0.000 HD
BRANCH  21  23
ATOM     23  C   UNL     1       0.483  11.108  21.271  0.00  0.00    +0.000 A 
ATOM     24  C   UNL     1       0.181  10.090  22.184  0.00  0.00    +0.000 A 
ATOM     25  C   UNL     1      -0.886  10.229  23.070  0.00  0.00    +0.000 A 
ATOM     26  C   UNL     1      -1.634  11.400  23.072  0.00  0.00    +0.000 A 
ATOM     27  C   UNL     1      -1.309  12.434  22.195  0.00  0.00    +0.000 A 
ATOM     28  C   UNL     1      -0.250  12.304  21.280  0.00  0.00    +0.000 A 
ATOM     29  C   UNL     1       0.058  13.470  20.385  0.00  0.00    +0.000 C 
ENDBRANCH  21  23
ENDBRANCH  18  21
ENDBRANCH   5  18
BRANCH   3  30
ATOM     30  N   UNL     1       2.027   5.717  20.906  0.00  0.00    +0.000 N 
ATOM     31  H   UNL     1       2.857   5.514  21.461  0.00  0.00    +0.000 HD
BRANCH  30  32
ATOM     32  C   UNL     1       1.248   4.506  20.660  0.00  0.00    +0.000 C 
BRANCH  32  33
ATOM     33  C   UNL     1       2.053   3.521  19.858  0.00  0.00    +0.000 A 
ATOM     34  C   UNL     1       1.624   3.124  18.587  0.00  0.00    +0.000 A 
ATOM     35  C   UNL     1       2.311   2.130  17.895  0.00  0.00    +0.000 A 
ATOM     36  C   UNL     1       3.435   1.529  18.462  0.00  0.00    +0.000 A 
ATOM     37  C   UNL     1       3.887   1.916  19.727  0.00  0.00    +0.000 A 
ATOM     38  C   UNL     1       5.080   1.257  20.354  0.00  0.00    +0.000 C 
ATOM     39  C   UNL     1       3.194   2.915  20.416  0.00  0.00    +0.000 A 
ENDBRANCH  32  33
ENDBRANCH  30  32
ENDBRANCH   3  30
TORSDOF 10
ENDMDL
MODEL 7
REMARK VINA RESULT:      -8.0      7.485     11.062
REMARK  Name = 
REMARK  13 active torsions:
REMARK  status: ('A' for Active; 'I' for Inactive)
REMARK    1  A    between atoms: C_1  and  C_2
REMARK    2  A    between atoms: N_4  and  C_5
REMARK    3  A    between atoms: C_5  and  C_6
REMARK    4  A    between atoms: C_6  and  N_7
REMARK    5  A    between atoms: C_8  and  C_10
REMARK    6  A    between atoms: C_12  and  N_13
REMARK    7  A    between atoms: N_13  and  C_14
REMARK    8  A    between atoms: C_14  and  C_15
REMARK    9  A    between atoms: C_19  and  C_20
REMARK   10  A    between atoms: C_23  and  S_24
REMARK   11  A    between atoms: S_24  and  N_27
REMARK   12  A    between atoms: N_27  and  C_28
REMARK   13  A    between atoms: C_33  and  C_34
REMARK                            x       y       z     vdW  Elec       q    Type
REMARK                         _______ _______ _______ _____ _____    ______ ____
ROOT
ATOM      1  C   UNL     1      -1.383  10.819  18.107  0.00  0.00    +0.000 A 
ATOM      2  C   UNL     1      -0.417   9.792  18.122  0.00  0.00    +0.000 A 
ATOM      3  C   UNL     1       0.785   9.924  18.830  0.00  0.00    +0.000 A 
ATOM      4  C   UNL     1       1.051  11.152  19.431  0.00  0.00    +0.000 A 
ATOM      5  C   UNL     1       0.112  12.178  19.433  0.00  0.00    +0.000 A 
ATOM      6  C   UNL     1      -1.105  12.025  18.767  0.00  0.00    +0.000 A 
ENDROOT
BRANCH   1   8
ATOM      7  N   UNL     1      -3.529  11.786  17.370  0.00  0.00    +0.000 N 
ATOM      8  C   UNL     1      -2.700  10.678  17.406  0.00  0.00    +0.000 C 
ATOM      9  O   UNL     1      -3.002   9.622  16.864  0.00  0.00    +0.000 OA
ATOM     10  H   UNL     1      -3.240  12.670  17.756  0.00  0.00    +0.000 HD
BRANCH   7  11
ATOM     11  C   UNL     1      -4.819  11.760  16.704  0.00  0.00    +0.000 C 
BRANCH  11  12
ATOM     12  C   UNL     1      -5.963  12.247  17.599  0.00  0.00    +0.000 C 
BRANCH  12  16
ATOM     13  C   UNL     1      -5.661  14.712  20.470  0.00  0.00    +0.000 C 
ATOM     14  C   UNL     1      -6.223  13.565  19.674  0.00  0.00    +0.000 C 
ATOM     15  O   UNL     1      -7.196  12.920  20.048  0.00  0.00    +0.000 OA
ATOM     16  N   UNL     1      -5.551  13.313  18.500  0.00  0.00    +0.000 N 
ATOM     17  H   UNL     1      -4.712  13.834  18.277  0.00  0.00    +0.000 HD
ENDBRANCH  12  16
ENDBRANCH  11  12
ENDBRANCH   7  11
ENDBRANCH   1   8
BRANCH   5  18
ATOM     18  S   UNL     1       0.562  13.714  20.193  0.00  0.00    +0.000 S 
ATOM     19  O   UNL     1       1.988  13.893  20.002  0.00  0.00    +0.000 OA
ATOM     20  O   UNL     1      -0.372  14.718  19.728  0.00  0.00    +0.000 OA
BRANCH  18  21
ATOM     21  N   UNL     1       0.364  13.431  21.838  0.00  0.00    +0.000 N 
ATOM     22  H   UNL     1       1.108  13.807  22.424  0.00  0.00    +0.000 HD
BRANCH  21  23
ATOM     23  C   UNL     1      -0.932  13.252  22.388  0.00  0.00    +0.000 A 
ATOM     24  C   UNL     1      -1.744  14.388  22.481  0.00  0.00    +0.000 A 
ATOM     25  C   UNL     1      -3.010  14.306  23.057  0.00  0.00    +0.000 A 
ATOM     26  C   UNL     1      -3.486  13.080  23.509  0.00  0.00    +0.000 A 
ATOM     27  C   UNL     1      -2.697  11.938  23.378  0.00  0.00    +0.000 A 
ATOM     28  C   UNL     1      -1.409  12.006  22.820  0.00  0.00    +0.000 A 
ATOM     29  C   UNL     1      -0.629  10.729  22.686  0.00  0.00    +0.000 C 
ENDBRANCH  21  23
ENDBRANCH  18  21
ENDBRANCH   5  18
BRANCH   3  30
ATOM     30  N   UNL     1       1.733   8.900  18.803  0.00  0.00    +0.000 N 
ATOM     31  H   UNL     1       1.707   8.329  17.960  0.00  0.00    +0.000 HD
BRANCH  30  32
ATOM     32  C   UNL     1       1.881   8.072  19.997  0.00  0.00    +0.000 C 
BRANCH  32  33
ATOM     33  C   UNL     1       2.042   6.627  19.615  0.00  0.00    +0.000 A 
ATOM     34  C   UNL     1       2.393   6.275  18.307  0.00  0.00    +0.000 A 
ATOM     35  C   UNL     1       2.433   4.937  17.928  0.00  0.00    +0.000 A 
ATOM     36  C   UNL     1       2.128   3.937  18.853  0.00  0.00    +0.000 A 
ATOM     37  C   UNL     1       1.784   4.263  20.167  0.00  0.00    +0.000 A 
ATOM     38  C   UNL     1       1.432   3.196  21.160  0.00  0.00    +0.000 C 
ATOM     39  C   UNL     1       1.748   5.610  20.542  0.00  0.00    +0.000 A 
ENDBRANCH  32  33
ENDBRANCH  30  32
ENDBRANCH   3  30
TORSDOF 10
ENDMDL
MODEL 8
REMARK VINA RESULT:      -8.0      7.719     11.101
REMARK  Name = 
REMARK  13 active torsions:
REMARK  status: ('A' for Active; 'I' for Inactive)
REMARK    1  A    between atoms: C_1  and  C_2
REMARK    2  A    between atoms: N_4  and  C_5
REMARK    3  A    between atoms: C_5  and  C_6
REMARK    4  A    between atoms: C_6  and  N_7
REMARK    5  A    between atoms: C_8  and  C_10
REMARK    6  A    between atoms: C_12  and  N_13
REMARK    7  A    between atoms: N_13  and  C_14
REMARK    8  A    between atoms: C_14  and  C_15
REMARK    9  A    between atoms: C_19  and  C_20
REMARK   10  A    between atoms: C_23  and  S_24
REMARK   11  A    between atoms: S_24  and  N_27
REMARK   12  A    between atoms: N_27  and  C_28
REMARK   13  A    between atoms: C_33  and  C_34
REMARK                            x       y       z     vdW  Elec       q    Type
REMARK                         _______ _______ _______ _____ _____    ______ ____
ROOT
ATOM      1  C   UNL     1      -1.359  10.601  18.289  0.00  0.00    +0.000 A 
ATOM      2  C   UNL     1      -0.315   9.680  18.072  0.00  0.00    +0.000 A 
ATOM      3  C   UNL     1       0.706   9.492  19.012  0.00  0.00    +0.000 A 
ATOM      4  C   UNL     1       0.724  10.328  20.126  0.00  0.00    +0.000 A 
ATOM      5  C   UNL     1      -0.298  11.241  20.364  0.00  0.00    +0.000 A 
ATOM      6  C   UNL     1      -1.341  11.392  19.447  0.00  0.00    +0.000 A 
ENDROOT
BRANCH   1   8
ATOM      7  N   UNL     1      -3.545  11.590  17.715  0.00  0.00    +0.000 N 
ATOM      8  C   UNL     1      -2.494  10.777  17.326  0.00  0.00    +0.000 C 
ATOM      9  O   UNL     1      -2.462  10.238  16.226  0.00  0.00    +0.000 OA
ATOM     10  H   UNL     1      -3.528  12.087  18.591  0.00  0.00    +0.000 HD
BRANCH   7  11
ATOM     11  C   UNL     1      -4.685  11.840  16.851  0.00  0.00    +0.000 C 
BRANCH  11  12
ATOM     12  C   UNL     1      -5.951  12.215  17.628  0.00  0.00    +0.000 C 
BRANCH  12  16
ATOM     13  C   UNL     1      -5.274  14.564  20.532  0.00  0.00    +0.000 C 
ATOM     14  C   UNL     1      -5.421  13.252  19.807  0.00  0.00    +0.000 C 
ATOM     15  O   UNL     1      -5.253  12.172  20.362  0.00  0.00    +0.000 OA
ATOM     16  N   UNL     1      -5.758  13.379  18.480  0.00  0.00    +0.000 N 
ATOM     17  H   UNL     1      -5.817  14.298  18.059  0.00  0.00    +0.000 HD
ENDBRANCH  12  16
ENDBRANCH  11  12
ENDBRANCH   7  11
ENDBRANCH   1   8
BRANCH   5  18
ATOM     18  S   UNL     1      -0.164  12.285  21.789  0.00  0.00    +0.000 S 
ATOM     19  O   UNL     1      -0.364  11.452  22.959  0.00  0.00    +0.000 OA
ATOM     20  O   UNL     1       1.046  13.066  21.643  0.00  0.00    +0.000 OA
BRANCH  18  21
ATOM     21  N   UNL     1      -1.523  13.270  21.705  0.00  0.00    +0.000 N 
ATOM     22  H   UNL     1      -2.233  12.954  21.045  0.00  0.00    +0.000 HD
BRANCH  21  23
ATOM     23  C   UNL     1      -1.909  14.063  22.815  0.00  0.00    +0.000 A 
ATOM     24  C   UNL     1      -1.243  15.282  22.986  0.00  0.00    +0.000 A 
ATOM     25  C   UNL     1      -1.527  16.095  24.082  0.00  0.00    +0.000 A 
ATOM     26  C   UNL     1      -2.505  15.711  24.993  0.00  0.00    +0.000 A 
ATOM     27  C   UNL     1      -3.201  14.518  24.802  0.00  0.00    +0.000 A 
ATOM     28  C   UNL     1      -2.913  13.675  23.715  0.00  0.00    +0.000 A 
ATOM     29  C   UNL     1      -3.724  12.420  23.560  0.00  0.00    +0.000 C 
ENDBRANCH  21  23
ENDBRANCH  18  21
ENDBRANCH   5  18
BRANCH   3  30
ATOM     30  N   UNL     1       1.741   8.592  18.755  0.00  0.00    +0.000 N 
ATOM     31  H   UNL     1       1.619   8.045  17.904  0.00  0.00    +0.000 HD
BRANCH  30  32
ATOM     32  C   UNL     1       2.210   7.754  19.856  0.00  0.00    +0.000 C 
BRANCH  32  33
ATOM     33  C   UNL     1       2.121   6.300  19.482  0.00  0.00    +0.000 A 
ATOM     34  C   UNL     1       2.253   5.903  18.147  0.00  0.00    +0.000 A 
ATOM     35  C   UNL     1       2.060   4.572  17.789  0.00  0.00    +0.000 A 
ATOM     36  C   UNL     1       1.739   3.624  18.762  0.00  0.00    +0.000 A 
ATOM     37  C   UNL     1       1.611   3.996  20.104  0.00  0.00    +0.000 A 
ATOM     38  C   UNL     1       1.243   2.988  21.151  0.00  0.00    +0.000 C 
ATOM     39  C   UNL     1       1.808   5.334  20.456  0.00  0.00    +0.000 A 
ENDBRANCH  32  33
ENDBRANCH  30  32
ENDBRANCH   3  30
TORSDOF 10
ENDMDL
MODEL 9
REMARK VINA RESULT:      -8.0      5.714      9.467
REMARK  Name = 
REMARK  13 active torsions:
REMARK  status: ('A' for Active; 'I' for Inactive)
REMARK    1  A    between atoms: C_1  and  C_2
REMARK    2  A    between atoms: N_4  and  C_5
REMARK    3  A    between atoms: C_5  and  C_6
REMARK    4  A    between atoms: C_6  and  N_7
REMARK    5  A    between atoms: C_8  and  C_10
REMARK    6  A    between atoms: C_12  and  N_13
REMARK    7  A    between atoms: N_13  and  C_14
REMARK    8  A    between atoms: C_14  and  C_15
REMARK    9  A    between atoms: C_19  and  C_20
REMARK   10  A    between atoms: C_23  and  S_24
REMARK   11  A    between atoms: S_24  and  N_27
REMARK   12  A    between atoms: N_27  and  C_28
REMARK   13  A    between atoms: C_33  and  C_34
REMARK                            x       y       z     vdW  Elec       q    Type
REMARK                         _______ _______ _______ _____ _____    ______ ____
ROOT
ATOM      1  C   UNL     1       9.434  12.213  21.252  0.00  0.00    +0.000 A 
ATOM      2  C   UNL     1       9.125  10.924  20.774  0.00  0.00    +0.000 A 
ATOM      3  C   UNL     1       9.576  10.476  19.525  0.00  0.00    +0.000 A 
ATOM      4  C   UNL     1      10.248  11.387  18.714  0.00  0.00    +0.000 A 
ATOM      5  C   UNL     1      10.568  12.663  19.165  0.00  0.00    +0.000 A 
ATOM      6  C   UNL     1      10.158  13.089  20.430  0.00  0.00    +0.000 A 
ENDROOT
BRANCH   1   8
ATOM      7  N   UNL     1       8.596  11.743  23.524  0.00  0.00    +0.000 N 
ATOM      8  C   UNL     1       9.014  12.694  22.608  0.00  0.00    +0.000 C 
ATOM      9  O   UNL     1       9.075  13.885  22.889  0.00  0.00    +0.000 OA
ATOM     10  H   UNL     1       8.618  10.760  23.307  0.00  0.00    +0.000 HD
BRANCH   7  11
ATOM     11  C   UNL     1       8.184  12.100  24.870  0.00  0.00    +0.000 C 
BRANCH  11  12
ATOM     12  C   UNL     1       6.724  12.561  24.944  0.00  0.00    +0.000 C 
BRANCH  12  16
ATOM     13  C   UNL     1       5.608  16.121  24.244  0.00  0.00    +0.000 C 
ATOM     14  C   UNL     1       5.575  14.617  24.194  0.00  0.00    +0.000 C 
ATOM     15  O   UNL     1       4.712  13.998  23.582  0.00  0.00    +0.000 OA
ATOM     16  N   UNL     1       6.594  14.010  24.892  0.00  0.00    +0.000 N 
ATOM     17  H   UNL     1       7.238  14.571  25.435  0.00  0.00    +0.000 HD
ENDBRANCH  12  16
ENDBRANCH  11  12
ENDBRANCH   7  11
ENDBRANCH   1   8
BRANCH   5  18
ATOM     18  S   UNL     1      11.391  13.759  18.043  0.00  0.00    +0.000 S 
ATOM     19  O   UNL     1      11.907  14.870  18.819  0.00  0.00    +0.000 OA
ATOM     20  O   UNL     1      12.279  12.959  17.228  0.00  0.00    +0.000 OA
BRANCH  18  21
ATOM     21  N   UNL     1      10.147  14.403  17.114  0.00  0.00    +0.000 N 
ATOM     22  H   UNL     1       9.865  13.822  16.325  0.00  0.00    +0.000 HD
BRANCH  21  23
ATOM     23  C   UNL     1       9.210  15.301  17.686  0.00  0.00    +0.000 A 
ATOM     24  C   UNL     1       9.662  16.597  17.964  0.00  0.00    +0.000 A 
ATOM     25  C   UNL     1       8.819  17.524  18.575  0.00  0.00    +0.000 A 
ATOM     26  C   UNL     1       7.509  17.171  18.877  0.00  0.00    +0.000 A 
ATOM     27  C   UNL     1       7.042  15.896  18.562  0.00  0.00    +0.000 A 
ATOM     28  C   UNL     1       7.884  14.941  17.966  0.00  0.00    +0.000 A 
ATOM     29  C   UNL     1       7.303  13.597  17.630  0.00  0.00    +0.000 C 
ENDBRANCH  21  23
ENDBRANCH  18  21
ENDBRANCH   5  18
BRANCH   3  30
ATOM     30  N   UNL     1       9.229   9.204  19.068  0.00  0.00    +0.000 N 
ATOM     31  H   UNL     1      10.025   8.604  18.857  0.00  0.00    +0.000 HD
BRANCH  30  32
ATOM     32  C   UNL     1       8.204   9.104  18.032  0.00  0.00    +0.000 C 
BRANCH  32  33
ATOM     33  C   UNL     1       7.705   7.689  17.925  0.00  0.00    +0.000 A 
ATOM     34  C   UNL     1       8.130   6.717  18.838  0.00  0.00    +0.000 A 
ATOM     35  C   UNL     1       7.755   5.387  18.670  0.00  0.00    +0.000 A 
ATOM     36  C   UNL     1       6.949   5.016  17.594  0.00  0.00    +0.000 A 
ATOM     37  C   UNL     1       6.504   5.971  16.674  0.00  0.00    +0.000 A 
ATOM     38  C   UNL     1       5.658   5.576  15.501  0.00  0.00    +0.000 C 
ATOM     39  C   UNL     1       6.883   7.305  16.849  0.00  0.00    +0.000 A 
ENDBRANCH  32  33
ENDBRANCH  30  32
ENDBRANCH   3  30
TORSDOF 10
ENDMDL
