MODEL 1
REMARK VINA RESULT:      -6.5      0.000      0.000
REMARK  Name = 
REMARK  6 active torsions:
REMARK  status: ('A' for Active; 'I' for Inactive)
REMARK    1  A    between atoms: C_1  and  N_2
REMARK    2  A    between atoms: C_6  and  C_7
REMARK    3  A    between atoms: C_9  and  C_10
REMARK    4  A    between atoms: N_17  and  S_18
REMARK    5  A    between atoms: S_18  and  C_21
REMARK    6  A    between atoms: C_29  and  C_30
REMARK                            x       y       z     vdW  Elec       q    Type
REMARK                         _______ _______ _______ _____ _____    ______ ____
ROOT
ATOM      1  C   UNL     1      -2.532  14.259  23.128  0.00  0.00    +0.000 A 
ATOM      2  C   UNL     1      -1.391  14.637  22.327  0.00  0.00    +0.000 A 
ATOM      3  C   UNL     1      -0.525  13.775  21.768  0.00  0.00    +0.000 A 
ATOM      4  N   UNL     1      -0.724  12.372  22.026  0.00  0.00    +0.000 N 
ATOM      5  C   UNL     1      -1.704  11.957  22.975  0.00  0.00    +0.000 A 
ATOM      6  O   UNL     1      -1.744  10.834  23.462  0.00  0.00    +0.000 OA
ATOM      7  C   UNL     1      -2.704  12.957  23.420  0.00  0.00    +0.000 A 
ENDROOT
BRANCH   3   8
ATOM      8  C   UNL     1       0.553  14.360  20.957  0.00  0.00    +0.000 A 
ATOM      9  C   UNL     1       1.702  14.880  21.571  0.00  0.00    +0.000 A 
ATOM     10  C   UNL     1       2.694  15.500  20.805  0.00  0.00    +0.000 A 
ATOM     11  C   UNL     1       2.527  15.628  19.428  0.00  0.00    +0.000 A 
ATOM     12 BR   UNL     1       3.849  16.504  18.401  0.00  0.00    +0.000 Br
ATOM     13  C   UNL     1       1.384  15.129  18.806  0.00  0.00    +0.000 A 
ATOM     14  C   UNL     1       0.398  14.502  19.571  0.00  0.00    +0.000 A 
ENDBRANCH   3   8
BRANCH   1  20
ATOM     15  C   UNL     1      -5.068  15.257  21.800  0.00  0.00    +0.000 C 
ATOM     16  N   UNL     1      -4.543  15.687  23.079  0.00  0.00    +0.000 N 
ATOM     17  C   UNL     1      -5.163  16.624  23.869  0.00  0.00    +0.000 A 
ATOM     18  C   UNL     1      -4.437  16.765  25.029  0.00  0.00    +0.000 A 
ATOM     19  C   UNL     1      -3.329  15.893  24.931  0.00  0.00    +0.000 A 
ATOM     20  C   UNL     1      -3.401  15.234  23.714  0.00  0.00    +0.000 A 
ENDBRANCH   1  20
BRANCH   4  21
ATOM     21  S   UNL     1       0.330  11.230  21.308  0.00  0.00    +0.000 S 
ATOM     22  O   UNL     1       1.612  11.828  21.006  0.00  0.00    +0.000 OA
ATOM     23  O   UNL     1       0.303  10.010  22.091  0.00  0.00    +0.000 OA
BRANCH  21  24
ATOM     24  C   UNL     1      -0.439  10.891  19.736  0.00  0.00    +0.000 A 
ATOM     25  C   UNL     1      -1.695  11.438  19.452  0.00  0.00    +0.000 A 
ATOM     26  C   UNL     1      -2.338  11.100  18.260  0.00  0.00    +0.000 A 
ATOM     27  C   UNL     1      -1.722  10.236  17.351  0.00  0.00    +0.000 A 
ATOM     28  C   UNL     1      -0.448   9.732  17.615  0.00  0.00    +0.000 A 
ATOM     29  C   UNL     1       0.203  10.067  18.803  0.00  0.00    +0.000 A 
ENDBRANCH  21  24
ENDBRANCH   4  21
BRANCH   7  30
ATOM     30  C   UNL     1      -3.878  12.482  24.260  0.00  0.00    +0.000 C 
ATOM     31  N   UNL     1      -4.851  12.087  24.958  0.00  0.00    +0.000 NA
ENDBRANCH   7  30
TORSDOF 5
ENDMDL
MODEL 2
REMARK VINA RESULT:      -6.4      0.513      1.093
REMARK  Name = 
REMARK  6 active torsions:
REMARK  status: ('A' for Active; 'I' for Inactive)
REMARK    1  A    between atoms: C_1  and  N_2
REMARK    2  A    between atoms: C_6  and  C_7
REMARK    3  A    between atoms: C_9  and  C_10
REMARK    4  A    between atoms: N_17  and  S_18
REMARK    5  A    between atoms: S_18  and  C_21
REMARK    6  A    between atoms: C_29  and  C_30
REMARK                            x       y       z     vdW  Elec       q    Type
REMARK                         _______ _______ _______ _____ _____    ______ ____
ROOT
ATOM      1  C   UNL     1      -2.672  14.263  22.996  0.00  0.00    +0.000 A 
ATOM      2  C   UNL     1      -1.515  14.639  22.218  0.00  0.00    +0.000 A 
ATOM      3  C   UNL     1      -0.616  13.779  21.712  0.00  0.00    +0.000 A 
ATOM      4  N   UNL     1      -0.794  12.380  22.009  0.00  0.00    +0.000 N 
ATOM      5  C   UNL     1      -1.794  11.975  22.941  0.00  0.00    +0.000 A 
ATOM      6  O   UNL     1      -1.826  10.867  23.463  0.00  0.00    +0.000 OA
ATOM      7  C   UNL     1      -2.826  12.968  23.325  0.00  0.00    +0.000 A 
ENDROOT
BRANCH   3   8
ATOM      8  C   UNL     1       0.475  14.361  20.915  0.00  0.00    +0.000 A 
ATOM      9  C   UNL     1       1.610  14.891  21.543  0.00  0.00    +0.000 A 
ATOM     10  C   UNL     1       2.613  15.508  20.789  0.00  0.00    +0.000 A 
ATOM     11  C   UNL     1       2.470  15.622  19.408  0.00  0.00    +0.000 A 
ATOM     12 BR   UNL     1       3.806  16.493  18.396  0.00  0.00    +0.000 Br
ATOM     13  C   UNL     1       1.341  15.112  18.771  0.00  0.00    +0.000 A 
ATOM     14  C   UNL     1       0.343  14.489  19.524  0.00  0.00    +0.000 A 
ENDBRANCH   3   8
BRANCH   1  20
ATOM     15  C   UNL     1      -2.242  15.686  25.638  0.00  0.00    +0.000 C 
ATOM     16  N   UNL     1      -3.367  15.860  24.743  0.00  0.00    +0.000 N 
ATOM     17  C   UNL     1      -4.401  16.728  24.995  0.00  0.00    +0.000 A 
ATOM     18  C   UNL     1      -5.272  16.689  23.931  0.00  0.00    +0.000 A 
ATOM     19  C   UNL     1      -4.755  15.752  23.009  0.00  0.00    +0.000 A 
ATOM     20  C   UNL     1      -3.576  15.238  23.526  0.00  0.00    +0.000 A 
ENDBRANCH   1  20
BRANCH   4  21
ATOM     21  S   UNL     1       0.304  11.239  21.358  0.00  0.00    +0.000 S 
ATOM     22  O   UNL     1       1.586  11.850  21.089  0.00  0.00    +0.000 OA
ATOM     23  O   UNL     1       0.266  10.039  22.171  0.00  0.00    +0.000 OA
BRANCH  21  24
ATOM     24  C   UNL     1      -0.402  10.849  19.768  0.00  0.00    +0.000 A 
ATOM     25  C   UNL     1      -1.668  11.344  19.437  0.00  0.00    +0.000 A 
ATOM     26  C   UNL     1      -2.259  10.965  18.230  0.00  0.00    +0.000 A 
ATOM     27  C   UNL     1      -1.582  10.113  17.355  0.00  0.00    +0.000 A 
ATOM     28  C   UNL     1      -0.299   9.661  17.667  0.00  0.00    +0.000 A 
ATOM     29  C   UNL     1       0.300  10.037  18.869  0.00  0.00    +0.000 A 
ENDBRANCH  21  24
ENDBRANCH   4  21
BRANCH   7  30
ATOM     30  C   UNL     1      -4.014  12.495  24.145  0.00  0.00    +0.000 C 
ATOM     31  N   UNL     1      -5.000  12.102  24.827  0.00  0.00    +0.000 NA
ENDBRANCH   7  30
TORSDOF 5
ENDMDL
MODEL 3
REMARK VINA RESULT:      -6.2      4.390      6.598
REMARK  Name = 
REMARK  6 active torsions:
REMARK  status: ('A' for Active; 'I' for Inactive)
REMARK    1  A    between atoms: C_1  and  N_2
REMARK    2  A    between atoms: C_6  and  C_7
REMARK    3  A    between atoms: C_9  and  C_10
REMARK    4  A    between atoms: N_17  and  S_18
REMARK    5  A    between atoms: S_18  and  C_21
REMARK    6  A    between atoms: C_29  and  C_30
REMARK                            x       y       z     vdW  Elec       q    Type
REMARK                         _______ _______ _______ _____ _____    ______ ____
ROOT
ATOM      1  C   UNL     1       1.852  13.876  18.789  0.00  0.00    +0.000 A 
ATOM      2  C   UNL     1       1.978  12.439  18.872  0.00  0.00    +0.000 A 
ATOM      3  C   UNL     1       0.964  11.591  19.107  0.00  0.00    +0.000 A 
ATOM      4  N   UNL     1      -0.339  12.161  19.340  0.00  0.00    +0.000 N 
ATOM      5  C   UNL     1      -0.481  13.573  19.477  0.00  0.00    +0.000 A 
ATOM      6  O   UNL     1      -1.473  14.112  19.953  0.00  0.00    +0.000 OA
ATOM      7  C   UNL     1       0.654  14.427  19.054  0.00  0.00    +0.000 A 
ENDROOT
BRANCH   3   8
ATOM      8  C   UNL     1       1.294  10.158  19.116  0.00  0.00    +0.000 A 
ATOM      9  C   UNL     1       1.391   9.459  20.328  0.00  0.00    +0.000 A 
ATOM     10  C   UNL     1       1.775   8.115  20.341  0.00  0.00    +0.000 A 
ATOM     11  C   UNL     1       2.091   7.473  19.145  0.00  0.00    +0.000 A 
ATOM     12 BR   UNL     1       2.650   5.669  19.169  0.00  0.00    +0.000 Br
ATOM     13  C   UNL     1       2.012   8.158  17.935  0.00  0.00    +0.000 A 
ATOM     14  C   UNL     1       1.620   9.499  17.922  0.00  0.00    +0.000 A 
ENDBRANCH   3   8
BRANCH   1  20
ATOM     15  C   UNL     1       3.819  14.664  20.956  0.00  0.00    +0.000 C 
ATOM     16  N   UNL     1       3.856  15.082  19.570  0.00  0.00    +0.000 N 
ATOM     17  C   UNL     1       4.829  15.907  19.060  0.00  0.00    +0.000 A 
ATOM     18  C   UNL     1       4.602  16.066  17.713  0.00  0.00    +0.000 A 
ATOM     19  C   UNL     1       3.442  15.323  17.399  0.00  0.00    +0.000 A 
ATOM     20  C   UNL     1       2.983  14.722  18.560  0.00  0.00    +0.000 A 
ENDBRANCH   1  20
BRANCH   4  21
ATOM     21  S   UNL     1      -1.673  11.121  19.608  0.00  0.00    +0.000 S 
ATOM     22  O   UNL     1      -1.229   9.795  19.977  0.00  0.00    +0.000 OA
ATOM     23  O   UNL     1      -2.626  11.796  20.467  0.00  0.00    +0.000 OA
BRANCH  21  24
ATOM     24  C   UNL     1      -2.405  10.965  17.990  0.00  0.00    +0.000 A 
ATOM     25  C   UNL     1      -3.572  11.676  17.691  0.00  0.00    +0.000 A 
ATOM     26  C   UNL     1      -4.196  11.485  16.456  0.00  0.00    +0.000 A 
ATOM     27  C   UNL     1      -3.647  10.603  15.523  0.00  0.00    +0.000 A 
ATOM     28  C   UNL     1      -2.456   9.933  15.805  0.00  0.00    +0.000 A 
ATOM     29  C   UNL     1      -1.824  10.121  17.035  0.00  0.00    +0.000 A 
ENDBRANCH  21  24
ENDBRANCH   4  21
BRANCH   7  30
ATOM     30  C   UNL     1       0.443  15.931  18.992  0.00  0.00    +0.000 C 
ATOM     31  N   UNL     1       0.267  17.179  18.941  0.00  0.00    +0.000 NA
ENDBRANCH   7  30
TORSDOF 5
ENDMDL
MODEL 4
REMARK VINA RESULT:      -6.2      2.514      4.226
REMARK  Name = 
REMARK  6 active torsions:
REMARK  status: ('A' for Active; 'I' for Inactive)
REMARK    1  A    between atoms: C_1  and  N_2
REMARK    2  A    between atoms: C_6  and  C_7
REMARK    3  A    between atoms: C_9  and  C_10
REMARK    4  A    between atoms: N_17  and  S_18
REMARK    5  A    between atoms: S_18  and  C_21
REMARK    6  A    between atoms: C_29  and  C_30
REMARK                            x       y       z     vdW  Elec       q    Type
REMARK                         _______ _______ _______ _____ _____    ______ ____
ROOT
ATOM      1  C   UNL     1      -3.604  13.865  22.023  0.00  0.00    +0.000 A 
ATOM      2  C   UNL     1      -3.488  13.205  20.744  0.00  0.00    +0.000 A 
ATOM      3  C   UNL     1      -2.494  12.372  20.395  0.00  0.00    +0.000 A 
ATOM      4  N   UNL     1      -1.439  12.159  21.354  0.00  0.00    +0.000 N 
ATOM      5  C   UNL     1      -1.394  12.942  22.544  0.00  0.00    +0.000 A 
ATOM      6  O   UNL     1      -0.403  13.033  23.259  0.00  0.00    +0.000 OA
ATOM      7  C   UNL     1      -2.604  13.717  22.910  0.00  0.00    +0.000 A 
ENDROOT
BRANCH   3   8
ATOM      8  C   UNL     1      -2.577  11.772  19.055  0.00  0.00    +0.000 A 
ATOM      9  C   UNL     1      -1.750  12.228  18.019  0.00  0.00    +0.000 A 
ATOM     10  C   UNL     1      -1.880  11.707  16.729  0.00  0.00    +0.000 A 
ATOM     11  C   UNL     1      -2.856  10.750  16.464  0.00  0.00    +0.000 A 
ATOM     12 BR   UNL     1      -3.058  10.078  14.709  0.00  0.00    +0.000 Br
ATOM     13  C   UNL     1      -3.695  10.297  17.479  0.00  0.00    +0.000 A 
ATOM     14  C   UNL     1      -3.559  10.812  18.771  0.00  0.00    +0.000 A 
ENDBRANCH   3   8
BRANCH   1  20
ATOM     15  C   UNL     1      -6.138  13.025  23.458  0.00  0.00    +0.000 C 
ATOM     16  N   UNL     1      -5.834  14.349  22.957  0.00  0.00    +0.000 N 
ATOM     17  C   UNL     1      -6.689  15.416  23.088  0.00  0.00    +0.000 A 
ATOM     18  C   UNL     1      -6.082  16.529  22.554  0.00  0.00    +0.000 A 
ATOM     19  C   UNL     1      -4.821  16.118  22.068  0.00  0.00    +0.000 A 
ATOM     20  C   UNL     1      -4.680  14.762  22.317  0.00  0.00    +0.000 A 
ENDBRANCH   1  20
BRANCH   4  21
ATOM     21  S   UNL     1      -0.167  11.078  20.974  0.00  0.00    +0.000 S 
ATOM     22  O   UNL     1       0.629  10.783  22.145  0.00  0.00    +0.000 OA
ATOM     23  O   UNL     1      -0.706   9.972  20.208  0.00  0.00    +0.000 OA
BRANCH  21  24
ATOM     24  C   UNL     1       0.880  12.036  19.895  0.00  0.00    +0.000 A 
ATOM     25  C   UNL     1       1.527  11.407  18.826  0.00  0.00    +0.000 A 
ATOM     26  C   UNL     1       2.417  12.137  18.036  0.00  0.00    +0.000 A 
ATOM     27  C   UNL     1       2.644  13.489  18.302  0.00  0.00    +0.000 A 
ATOM     28  C   UNL     1       1.959  14.125  19.338  0.00  0.00    +0.000 A 
ATOM     29  C   UNL     1       1.066  13.405  20.130  0.00  0.00    +0.000 A 
ENDBRANCH  21  24
ENDBRANCH   4  21
BRANCH   7  30
ATOM     30  C   UNL     1      -2.650  14.383  24.275  0.00  0.00    +0.000 C 
ATOM     31  N   UNL     1      -2.689  14.936  25.408  0.00  0.00    +0.000 NA
ENDBRANCH   7  30
TORSDOF 5
ENDMDL
MODEL 5
REMARK VINA RESULT:      -6.1      3.740      7.060
REMARK  Name = 
REMARK  6 active torsions:
REMARK  status: ('A' for Active; 'I' for Inactive)
REMARK    1  A    between atoms: C_1  and  N_2
REMARK    2  A    between atoms: C_6  and  C_7
REMARK    3  A    between atoms: C_9  and  C_10
REMARK    4  A    between atoms: N_17  and  S_18
REMARK    5  A    between atoms: S_18  and  C_21
REMARK    6  A    between atoms: C_29  and  C_30
REMARK                            x       y       z     vdW  Elec       q    Type
REMARK                         _______ _______ _______ _____ _____    ______ ____
ROOT
ATOM      1  C   UNL     1       2.428  14.018  18.840  0.00  0.00    +0.000 A 
ATOM      2  C   UNL     1       2.386  12.580  18.963  0.00  0.00    +0.000 A 
ATOM      3  C   UNL     1       1.262  11.846  19.018  0.00  0.00    +0.000 A 
ATOM      4  N   UNL     1       0.006  12.552  18.998  0.00  0.00    +0.000 N 
ATOM      5  C   UNL     1      -0.010  13.975  19.087  0.00  0.00    +0.000 A 
ATOM      6  O   UNL     1      -1.010  14.626  19.363  0.00  0.00    +0.000 OA
ATOM      7  C   UNL     1       1.267  14.696  18.870  0.00  0.00    +0.000 A 
ENDROOT
BRANCH   3   8
ATOM      8  C   UNL     1       1.433  10.388  19.108  0.00  0.00    +0.000 A 
ATOM      9  C   UNL     1       1.283   9.730  20.337  0.00  0.00    +0.000 A 
ATOM     10  C   UNL     1       1.516   8.355  20.436  0.00  0.00    +0.000 A 
ATOM     11  C   UNL     1       1.926   7.639  19.313  0.00  0.00    +0.000 A 
ATOM     12 BR   UNL     1       2.280   5.789  19.459  0.00  0.00    +0.000 Br
ATOM     13  C   UNL     1       2.092   8.282  18.088  0.00  0.00    +0.000 A 
ATOM     14  C   UNL     1       1.852   9.655  17.989  0.00  0.00    +0.000 A 
ENDBRANCH   3   8
BRANCH   1  20
ATOM     15  C   UNL     1       3.954  14.819  21.333  0.00  0.00    +0.000 C 
ATOM     16  N   UNL     1       4.333  15.108  19.966  0.00  0.00    +0.000 N 
ATOM     17  C   UNL     1       5.473  15.796  19.631  0.00  0.00    +0.000 A 
ATOM     18  C   UNL     1       5.561  15.855  18.260  0.00  0.00    +0.000 A 
ATOM     19  C   UNL     1       4.424  15.192  17.745  0.00  0.00    +0.000 A 
ATOM     20  C   UNL     1       3.665  14.739  18.813  0.00  0.00    +0.000 A 
ENDBRANCH   1  20
BRANCH   4  21
ATOM     21  S   UNL     1      -1.456  11.662  19.028  0.00  0.00    +0.000 S 
ATOM     22  O   UNL     1      -2.412  12.205  18.088  0.00  0.00    +0.000 OA
ATOM     23  O   UNL     1      -1.145  10.248  18.957  0.00  0.00    +0.000 OA
BRANCH  21  24
ATOM     24  C   UNL     1      -2.112  12.000  20.651  0.00  0.00    +0.000 A 
ATOM     25  C   UNL     1      -1.362  11.658  21.781  0.00  0.00    +0.000 A 
ATOM     26  C   UNL     1      -1.913  11.839  23.051  0.00  0.00    +0.000 A 
ATOM     27  C   UNL     1      -3.194  12.375  23.190  0.00  0.00    +0.000 A 
ATOM     28  C   UNL     1      -3.920  12.761  22.062  0.00  0.00    +0.000 A 
ATOM     29  C   UNL     1      -3.376  12.586  20.789  0.00  0.00    +0.000 A 
ENDBRANCH  21  24
ENDBRANCH   4  21
BRANCH   7  30
ATOM     30  C   UNL     1       1.230  16.210  18.750  0.00  0.00    +0.000 C 
ATOM     31  N   UNL     1       1.198  17.468  18.649  0.00  0.00    +0.000 NA
ENDBRANCH   7  30
TORSDOF 5
ENDMDL
MODEL 6
REMARK VINA RESULT:      -6.1      3.190      7.225
REMARK  Name = 
REMARK  6 active torsions:
REMARK  status: ('A' for Active; 'I' for Inactive)
REMARK    1  A    between atoms: C_1  and  N_2
REMARK    2  A    between atoms: C_6  and  C_7
REMARK    3  A    between atoms: C_9  and  C_10
REMARK    4  A    between atoms: N_17  and  S_18
REMARK    5  A    between atoms: S_18  and  C_21
REMARK    6  A    between atoms: C_29  and  C_30
REMARK                            x       y       z     vdW  Elec       q    Type
REMARK                         _______ _______ _______ _____ _____    ______ ____
ROOT
ATOM      1  C   UNL     1      -1.742  12.495  21.101  0.00  0.00    +0.000 A 
ATOM      2  C   UNL     1      -2.739  13.405  20.589  0.00  0.00    +0.000 A 
ATOM      3  C   UNL     1      -3.822  13.821  21.266  0.00  0.00    +0.000 A 
ATOM      4  N   UNL     1      -4.028  13.280  22.586  0.00  0.00    +0.000 N 
ATOM      5  C   UNL     1      -3.193  12.224  23.058  0.00  0.00    +0.000 A 
ATOM      6  O   UNL     1      -3.468  11.522  24.024  0.00  0.00    +0.000 OA
ATOM      7  C   UNL     1      -1.944  11.942  22.311  0.00  0.00    +0.000 A 
ENDROOT
BRANCH   3   8
ATOM      8  C   UNL     1      -4.700  14.780  20.579  0.00  0.00    +0.000 A 
ATOM      9  C   UNL     1      -5.739  14.327  19.754  0.00  0.00    +0.000 A 
ATOM     10  C   UNL     1      -6.527  15.238  19.045  0.00  0.00    +0.000 A 
ATOM     11  C   UNL     1      -6.261  16.603  19.137  0.00  0.00    +0.000 A 
ATOM     12 BR   UNL     1      -7.301  17.829  18.145  0.00  0.00    +0.000 Br
ATOM     13  C   UNL     1      -5.223  17.066  19.942  0.00  0.00    +0.000 A 
ATOM     14  C   UNL     1      -4.441  16.156  20.657  0.00  0.00    +0.000 A 
ENDBRANCH   3   8
BRANCH   1  20
ATOM     15  C   UNL     1       0.950  13.888  21.137  0.00  0.00    +0.000 C 
ATOM     16  N   UNL     1       0.589  12.739  20.332  0.00  0.00    +0.000 N 
ATOM     17  C   UNL     1       1.461  12.123  19.469  0.00  0.00    +0.000 A 
ATOM     18  C   UNL     1       0.823  11.044  18.903  0.00  0.00    +0.000 A 
ATOM     19  C   UNL     1      -0.487  11.014  19.431  0.00  0.00    +0.000 A 
ATOM     20  C   UNL     1      -0.624  12.075  20.312  0.00  0.00    +0.000 A 
ENDBRANCH   1  20
BRANCH   4  21
ATOM     21  S   UNL     1      -5.373  13.804  23.507  0.00  0.00    +0.000 S 
ATOM     22  O   UNL     1      -6.516  14.053  22.656  0.00  0.00    +0.000 OA
ATOM     23  O   UNL     1      -5.536  12.918  24.642  0.00  0.00    +0.000 OA
BRANCH  21  24
ATOM     24  C   UNL     1      -4.857  15.396  24.120  0.00  0.00    +0.000 A 
ATOM     25  C   UNL     1      -3.545  15.566  24.577  0.00  0.00    +0.000 A 
ATOM     26  C   UNL     1      -3.168  16.786  25.141  0.00  0.00    +0.000 A 
ATOM     27  C   UNL     1      -4.088  17.832  25.231  0.00  0.00    +0.000 A 
ATOM     28  C   UNL     1      -5.381  17.675  24.729  0.00  0.00    +0.000 A 
ATOM     29  C   UNL     1      -5.766  16.461  24.161  0.00  0.00    +0.000 A 
ENDBRANCH  21  24
ENDBRANCH   4  21
BRANCH   7  30
ATOM     30  C   UNL     1      -0.943  10.972  22.916  0.00  0.00    +0.000 C 
ATOM     31  N   UNL     1      -0.112  10.167  23.419  0.00  0.00    +0.000 NA
ENDBRANCH   7  30
TORSDOF 5
ENDMDL
MODEL 7
REMARK VINA RESULT:      -6.0      2.501      4.214
REMARK  Name = 
REMARK  6 active torsions:
REMARK  status: ('A' for Active; 'I' for Inactive)
REMARK    1  A    between atoms: C_1  and  N_2
REMARK    2  A    between atoms: C_6  and  C_7
REMARK    3  A    between atoms: C_9  and  C_10
REMARK    4  A    between atoms: N_17  and  S_18
REMARK    5  A    between atoms: S_18  and  C_21
REMARK    6  A    between atoms: C_29  and  C_30
REMARK                            x       y       z     vdW  Elec       q    Type
REMARK                         _______ _______ _______ _____ _____    ______ ____
ROOT
ATOM      1  C   UNL     1      -3.611  13.851  22.019  0.00  0.00    +0.000 A 
ATOM      2  C   UNL     1      -3.493  13.190  20.741  0.00  0.00    +0.000 A 
ATOM      3  C   UNL     1      -2.494  12.361  20.393  0.00  0.00    +0.000 A 
ATOM      4  N   UNL     1      -1.438  12.155  21.351  0.00  0.00    +0.000 N 
ATOM      5  C   UNL     1      -1.395  12.941  22.540  0.00  0.00    +0.000 A 
ATOM      6  O   UNL     1      -0.404  13.039  23.253  0.00  0.00    +0.000 OA
ATOM      7  C   UNL     1      -2.609  13.710  22.906  0.00  0.00    +0.000 A 
ENDROOT
BRANCH   3   8
ATOM      8  C   UNL     1      -2.576  11.758  19.054  0.00  0.00    +0.000 A 
ATOM      9  C   UNL     1      -1.763  12.227  18.013  0.00  0.00    +0.000 A 
ATOM     10  C   UNL     1      -1.892  11.702  16.723  0.00  0.00    +0.000 A 
ATOM     11  C   UNL     1      -2.854  10.728  16.465  0.00  0.00    +0.000 A 
ATOM     12 BR   UNL     1      -3.055  10.051  14.713  0.00  0.00    +0.000 Br
ATOM     13  C   UNL     1      -3.679  10.263  17.487  0.00  0.00    +0.000 A 
ATOM     14  C   UNL     1      -3.543  10.782  18.777  0.00  0.00    +0.000 A 
ENDBRANCH   3   8
BRANCH   1  20
ATOM     15  C   UNL     1      -3.598  16.795  21.295  0.00  0.00    +0.000 C 
ATOM     16  N   UNL     1      -4.654  16.086  21.988  0.00  0.00    +0.000 N 
ATOM     17  C   UNL     1      -5.816  16.688  22.403  0.00  0.00    +0.000 A 
ATOM     18  C   UNL     1      -6.621  15.733  22.977  0.00  0.00    +0.000 A 
ATOM     19  C   UNL     1      -5.915  14.510  22.922  0.00  0.00    +0.000 A 
ATOM     20  C   UNL     1      -4.692  14.742  22.312  0.00  0.00    +0.000 A 
ENDBRANCH   1  20
BRANCH   4  21
ATOM     21  S   UNL     1      -0.160  11.081  20.971  0.00  0.00    +0.000 S 
ATOM     22  O   UNL     1       0.637  10.791  22.143  0.00  0.00    +0.000 OA
ATOM     23  O   UNL     1      -0.693   9.971  20.206  0.00  0.00    +0.000 OA
BRANCH  21  24
ATOM     24  C   UNL     1       0.882  12.044  19.892  0.00  0.00    +0.000 A 
ATOM     25  C   UNL     1       1.531  11.417  18.823  0.00  0.00    +0.000 A 
ATOM     26  C   UNL     1       2.417  12.151  18.032  0.00  0.00    +0.000 A 
ATOM     27  C   UNL     1       2.638  13.504  18.298  0.00  0.00    +0.000 A 
ATOM     28  C   UNL     1       1.951  14.137  19.334  0.00  0.00    +0.000 A 
ATOM     29  C   UNL     1       1.062  13.413  20.127  0.00  0.00    +0.000 A 
ENDBRANCH  21  24
ENDBRANCH   4  21
BRANCH   7  30
ATOM     30  C   UNL     1      -2.657  14.378  24.269  0.00  0.00    +0.000 C 
ATOM     31  N   UNL     1      -2.698  14.933  25.401  0.00  0.00    +0.000 NA
ENDBRANCH   7  30
TORSDOF 5
ENDMDL
MODEL 8
REMARK VINA RESULT:      -6.0      2.501      4.563
REMARK  Name = 
REMARK  6 active torsions:
REMARK  status: ('A' for Active; 'I' for Inactive)
REMARK    1  A    between atoms: C_1  and  N_2
REMARK    2  A    between atoms: C_6  and  C_7
REMARK    3  A    between atoms: C_9  and  C_10
REMARK    4  A    between atoms: N_17  and  S_18
REMARK    5  A    between atoms: S_18  and  C_21
REMARK    6  A    between atoms: C_29  and  C_30
REMARK                            x       y       z     vdW  Elec       q    Type
REMARK                         _______ _______ _______ _____ _____    ______ ____
ROOT
ATOM      1  C   UNL     1      -2.742  13.478  23.106  0.00  0.00    +0.000 A 
ATOM      2  C   UNL     1      -1.956  12.662  22.210  0.00  0.00    +0.000 A 
ATOM      3  C   UNL     1      -0.723  12.967  21.775  0.00  0.00    +0.000 A 
ATOM      4  N   UNL     1      -0.161  14.225  22.197  0.00  0.00    +0.000 N 
ATOM      5  C   UNL     1      -0.970  15.160  22.907  0.00  0.00    +0.000 A 
ATOM      6  O   UNL     1      -0.677  16.341  23.049  0.00  0.00    +0.000 OA
ATOM      7  C   UNL     1      -2.254  14.677  23.470  0.00  0.00    +0.000 A 
ENDROOT
BRANCH   3   8
ATOM      8  C   UNL     1      -0.075  11.984  20.893  0.00  0.00    +0.000 A 
ATOM      9  C   UNL     1      -0.042  12.186  19.506  0.00  0.00    +0.000 A 
ATOM     10  C   UNL     1       0.510  11.217  18.663  0.00  0.00    +0.000 A 
ATOM     11  C   UNL     1       1.006  10.032  19.201  0.00  0.00    +0.000 A 
ATOM     12 BR   UNL     1       1.714   8.707  18.056  0.00  0.00    +0.000 Br
ATOM     13  C   UNL     1       0.968   9.811  20.576  0.00  0.00    +0.000 A 
ATOM     14  C   UNL     1       0.424  10.783  21.419  0.00  0.00    +0.000 A 
ENDBRANCH   3   8
BRANCH   1  20
ATOM     15  C   UNL     1      -5.225  14.075  21.474  0.00  0.00    +0.000 C 
ATOM     16  N   UNL     1      -5.182  13.402  22.755  0.00  0.00    +0.000 N 
ATOM     17  C   UNL     1      -6.303  12.933  23.396  0.00  0.00    +0.000 A 
ATOM     18  C   UNL     1      -5.911  12.306  24.556  0.00  0.00    +0.000 A 
ATOM     19  C   UNL     1      -4.504  12.413  24.629  0.00  0.00    +0.000 A 
ATOM     20  C   UNL     1      -4.063  13.101  23.509  0.00  0.00    +0.000 A 
ENDBRANCH   1  20
BRANCH   4  21
ATOM     21  S   UNL     1       1.422  14.645  21.700  0.00  0.00    +0.000 S 
ATOM     22  O   UNL     1       2.048  15.527  22.660  0.00  0.00    +0.000 OA
ATOM     23  O   UNL     1       2.125  13.440  21.307  0.00  0.00    +0.000 OA
BRANCH  21  24
ATOM     24  C   UNL     1       1.149  15.624  20.235  0.00  0.00    +0.000 A 
ATOM     25  C   UNL     1       2.201  16.379  19.705  0.00  0.00    +0.000 A 
ATOM     26  C   UNL     1       1.963  17.215  18.613  0.00  0.00    +0.000 A 
ATOM     27  C   UNL     1       0.690  17.283  18.045  0.00  0.00    +0.000 A 
ATOM     28  C   UNL     1      -0.345  16.492  18.546  0.00  0.00    +0.000 A 
ATOM     29  C   UNL     1      -0.116  15.651  19.634  0.00  0.00    +0.000 A 
ENDBRANCH  21  24
ENDBRANCH   4  21
BRANCH   7  30
ATOM     30  C   UNL     1      -3.023  15.595  24.405  0.00  0.00    +0.000 C 
ATOM     31  N   UNL     1      -3.663  16.357  25.182  0.00  0.00    +0.000 NA
ENDBRANCH   7  30
TORSDOF 5
ENDMDL
MODEL 9
REMARK VINA RESULT:      -5.9      4.027      7.392
REMARK  Name = 
REMARK  6 active torsions:
REMARK  status: ('A' for Active; 'I' for Inactive)
REMARK    1  A    between atoms: C_1  and  N_2
REMARK    2  A    between atoms: C_6  and  C_7
REMARK    3  A    between atoms: C_9  and  C_10
REMARK    4  A    between atoms: N_17  and  S_18
REMARK    5  A    between atoms: S_18  and  C_21
REMARK    6  A    between atoms: C_29  and  C_30
REMARK                            x       y       z     vdW  Elec       q    Type
REMARK                         _______ _______ _______ _____ _____    ______ ____
ROOT
ATOM      1  C   UNL     1      -2.472  12.070  19.733  0.00  0.00    +0.000 A 
ATOM      2  C   UNL     1      -2.764  13.137  20.661  0.00  0.00    +0.000 A 
ATOM      3  C   UNL     1      -3.954  13.750  20.778  0.00  0.00    +0.000 A 
ATOM      4  N   UNL     1      -5.002  13.343  19.877  0.00  0.00    +0.000 N 
ATOM      5  C   UNL     1      -4.710  12.446  18.808  0.00  0.00    +0.000 A 
ATOM      6  O   UNL     1      -5.447  12.276  17.845  0.00  0.00    +0.000 OA
ATOM      7  C   UNL     1      -3.423  11.712  18.852  0.00  0.00    +0.000 A 
ENDROOT
BRANCH   3   8
ATOM      8  C   UNL     1      -4.059  14.791  21.811  0.00  0.00    +0.000 A 
ATOM      9  C   UNL     1      -4.069  16.147  21.455  0.00  0.00    +0.000 A 
ATOM     10  C   UNL     1      -4.096  17.138  22.441  0.00  0.00    +0.000 A 
ATOM     11  C   UNL     1      -4.085  16.776  23.786  0.00  0.00    +0.000 A 
ATOM     12 BR   UNL     1      -4.079  18.117  25.117  0.00  0.00    +0.000 Br
ATOM     13  C   UNL     1      -4.060  15.433  24.156  0.00  0.00    +0.000 A 
ATOM     14  C   UNL     1      -4.041  14.444  23.169  0.00  0.00    +0.000 A 
ENDBRANCH   3   8
BRANCH   1  20
ATOM     15  C   UNL     1      -0.145  13.349  18.273  0.00  0.00    +0.000 C 
ATOM     16  N   UNL     1      -0.130  12.074  18.958  0.00  0.00    +0.000 N 
ATOM     17  C   UNL     1       0.984  11.275  19.034  0.00  0.00    +0.000 A 
ATOM     18  C   UNL     1       0.675  10.169  19.792  0.00  0.00    +0.000 A 
ATOM     19  C   UNL     1      -0.678  10.296  20.175  0.00  0.00    +0.000 A 
ATOM     20  C   UNL     1      -1.171  11.478  19.647  0.00  0.00    +0.000 A 
ENDBRANCH   1  20
BRANCH   4  21
ATOM     21  S   UNL     1      -6.548  14.067  20.008  0.00  0.00    +0.000 S 
ATOM     22  O   UNL     1      -6.471  15.494  19.790  0.00  0.00    +0.000 OA
ATOM     23  O   UNL     1      -7.493  13.297  19.223  0.00  0.00    +0.000 OA
BRANCH  21  24
ATOM     24  C   UNL     1      -6.959  13.851  21.729  0.00  0.00    +0.000 A 
ATOM     25  C   UNL     1      -6.872  12.579  22.304  0.00  0.00    +0.000 A 
ATOM     26  C   UNL     1      -7.280  12.393  23.626  0.00  0.00    +0.000 A 
ATOM     27  C   UNL     1      -7.755  13.474  24.372  0.00  0.00    +0.000 A 
ATOM     28  C   UNL     1      -7.795  14.751  23.811  0.00  0.00    +0.000 A 
ATOM     29  C   UNL     1      -7.386  14.946  22.492  0.00  0.00    +0.000 A 
ENDBRANCH  21  24
ENDBRANCH   4  21
BRANCH   7  30
ATOM     30  C   UNL     1      -3.189  10.601  17.842  0.00  0.00    +0.000 C 
ATOM     31  N   UNL     1      -2.995   9.680  17.002  0.00  0.00    +0.000 NA
ENDBRANCH   7  30
TORSDOF 5
ENDMDL
