MODEL 1
REMARK VINA RESULT:      -8.0      0.000      0.000
REMARK  Name = 
REMARK  10 active torsions:
REMARK  status: ('A' for Active; 'I' for Inactive)
REMARK    1  A    between atoms: C_1  and  O_2
REMARK    2  A    between atoms: O_2  and  C_3
REMARK    3  A    between atoms: C_6  and  C_7
REMARK    4  A    between atoms: C_7  and  C_8
REMARK    5  A    between atoms: C_7  and  C_9
REMARK    6  A    between atoms: C_11  and  C_12
REMARK    7  A    between atoms: C_12  and  N_13
REMARK    8  A    between atoms: C_18  and  C_19
REMARK    9  A    between atoms: C_19  and  C_20
REMARK   10  A    between atoms: C_19  and  C_26
REMARK                            x       y       z     vdW  Elec       q    Type
REMARK                         _______ _______ _______ _____ _____    ______ ____
ROOT
ATOM      1  N   UNL     1       2.181   8.186  18.916  0.00  0.00    +0.000 NA
ATOM      2  C   UNL     1       2.192   7.421  20.189  0.00  0.00    +0.000 C 
ATOM      3  C   UNL     1       1.457   8.043  21.387  0.00  0.00    +0.000 C 
ATOM      4  C   UNL     1       0.193   8.783  21.055  0.00  0.00    +0.000 C 
ATOM      5  O   UNL     1      -0.582   9.026  21.966  0.00  0.00    +0.000 OA
ATOM      6  C   UNL     1      -0.104   9.271  19.656  0.00  0.00    +0.000 C 
ATOM      7  C   UNL     1       1.196   9.305  18.777  0.00  0.00    +0.000 C 
ENDROOT
BRANCH   1   8
ATOM      8  C   UNL     1       2.284   7.278  17.740  0.00  0.00    +0.000 C 
BRANCH   8  14
ATOM      9  C   UNL     1       3.108   4.858  17.996  0.00  0.00    +0.000 A 
ATOM     10  C   UNL     1       4.161   3.922  18.114  0.00  0.00    +0.000 A 
ATOM     11  C   UNL     1       5.517   4.368  18.085  0.00  0.00    +0.000 A 
ATOM     12  C   UNL     1       5.829   5.745  17.937  0.00  0.00    +0.000 A 
ATOM     13  C   UNL     1       4.744   6.654  17.872  0.00  0.00    +0.000 A 
ATOM     14  C   UNL     1       3.396   6.233  17.896  0.00  0.00    +0.000 A 
BRANCH  12  15
ATOM     15  C   UNL     1       7.257   6.283  17.814  0.00  0.00    +0.000 C 
ATOM     16  C   UNL     1       7.359   7.765  17.438  0.00  0.00    +0.000 C 
ATOM     17  C   UNL     1       8.063   6.019  19.093  0.00  0.00    +0.000 C 
ENDBRANCH  12  15
BRANCH   9  19
ATOM     18  C   UNL     1       1.121   3.365  18.343  0.00  0.00    +0.000 C 
ATOM     19  O   UNL     1       1.783   4.516  17.960  0.00  0.00    +0.000 OA
ENDBRANCH   9  19
ENDBRANCH   8  14
ENDBRANCH   1   8
BRANCH   6  20
ATOM     20  C   UNL     1      -0.871  10.682  19.598  0.00  0.00    +0.000 C 
BRANCH  20  21
ATOM     21  C   UNL     1       0.078  11.897  19.589  0.00  0.00    +0.000 A 
ATOM     22  C   UNL     1       0.240  12.725  18.454  0.00  0.00    +0.000 A 
ATOM     23  C   UNL     1       1.072  13.860  18.496  0.00  0.00    +0.000 A 
ATOM     24  C   UNL     1       1.761  14.179  19.664  0.00  0.00    +0.000 A 
ATOM     25  C   UNL     1       1.607  13.382  20.801  0.00  0.00    +0.000 A 
ATOM     26  C   UNL     1       0.775  12.258  20.768  0.00  0.00    +0.000 A 
ENDBRANCH  20  21
BRANCH  20  27
ATOM     27  C   UNL     1      -1.993  10.892  18.543  0.00  0.00    +0.000 A 
ATOM     28  C   UNL     1      -3.131  11.701  18.770  0.00  0.00    +0.000 A 
ATOM     29  C   UNL     1      -4.119  11.843  17.795  0.00  0.00    +0.000 A 
ATOM     30  C   UNL     1      -4.006  11.187  16.571  0.00  0.00    +0.000 A 
ATOM     31  C   UNL     1      -2.900  10.381  16.315  0.00  0.00    +0.000 A 
ATOM     32  C   UNL     1      -1.896  10.238  17.290  0.00  0.00    +0.000 A 
ENDBRANCH  20  27
ENDBRANCH   6  20
TORSDOF 7
ENDMDL
MODEL 2
REMARK VINA RESULT:      -8.0      1.711      8.742
REMARK  Name = 
REMARK  10 active torsions:
REMARK  status: ('A' for Active; 'I' for Inactive)
REMARK    1  A    between atoms: C_1  and  O_2
REMARK    2  A    between atoms: O_2  and  C_3
REMARK    3  A    between atoms: C_6  and  C_7
REMARK    4  A    between atoms: C_7  and  C_8
REMARK    5  A    between atoms: C_7  and  C_9
REMARK    6  A    between atoms: C_11  and  C_12
REMARK    7  A    between atoms: C_12  and  N_13
REMARK    8  A    between atoms: C_18  and  C_19
REMARK    9  A    between atoms: C_19  and  C_20
REMARK   10  A    between atoms: C_19  and  C_26
REMARK                            x       y       z     vdW  Elec       q    Type
REMARK                         _______ _______ _______ _____ _____    ______ ____
ROOT
ATOM      1  N   UNL     1       1.393   8.524  18.782  0.00  0.00    +0.000 NA
ATOM      2  C   UNL     1       1.527   8.362  20.252  0.00  0.00    +0.000 C 
ATOM      3  C   UNL     1       1.910   6.967  20.771  0.00  0.00    +0.000 C 
ATOM      4  C   UNL     1       2.883   6.205  19.918  0.00  0.00    +0.000 C 
ATOM      5  O   UNL     1       3.453   5.249  20.416  0.00  0.00    +0.000 OA
ATOM      6  C   UNL     1       3.121   6.559  18.467  0.00  0.00    +0.000 C 
ATOM      7  C   UNL     1       1.963   7.455  17.903  0.00  0.00    +0.000 C 
ENDROOT
BRANCH   1   8
ATOM      8  C   UNL     1       1.697   9.921  18.365  0.00  0.00    +0.000 C 
BRANCH   8  14
ATOM      9  C   UNL     1       0.551  12.186  18.767  0.00  0.00    +0.000 A 
ATOM     10  C   UNL     1      -0.606  12.998  18.761  0.00  0.00    +0.000 A 
ATOM     11  C   UNL     1      -1.855  12.454  18.335  0.00  0.00    +0.000 A 
ATOM     12  C   UNL     1      -1.957  11.103  17.913  0.00  0.00    +0.000 A 
ATOM     13  C   UNL     1      -0.785  10.310  17.982  0.00  0.00    +0.000 A 
ATOM     14  C   UNL     1       0.462  10.829  18.397  0.00  0.00    +0.000 A 
BRANCH  12  15
ATOM     15  C   UNL     1      -3.244  10.480  17.366  0.00  0.00    +0.000 C 
ATOM     16  C   UNL     1      -4.450  11.425  17.319  0.00  0.00    +0.000 C 
ATOM     17  C   UNL     1      -3.019   9.863  15.979  0.00  0.00    +0.000 C 
ENDBRANCH  12  15
BRANCH   9  19
ATOM     18  C   UNL     1       2.661  13.515  18.482  0.00  0.00    +0.000 C 
ATOM     19  O   UNL     1       1.799  12.635  19.108  0.00  0.00    +0.000 OA
ENDBRANCH   9  19
ENDBRANCH   8  14
ENDBRANCH   1   8
BRANCH   6  20
ATOM     20  C   UNL     1       3.382   5.292  17.514  0.00  0.00    +0.000 C 
BRANCH  20  21
ATOM     21  C   UNL     1       4.859   5.130  17.099  0.00  0.00    +0.000 A 
ATOM     22  C   UNL     1       5.927   5.303  18.011  0.00  0.00    +0.000 A 
ATOM     23  C   UNL     1       7.261   5.093  17.613  0.00  0.00    +0.000 A 
ATOM     24  C   UNL     1       7.550   4.719  16.303  0.00  0.00    +0.000 A 
ATOM     25  C   UNL     1       6.510   4.530  15.389  0.00  0.00    +0.000 A 
ATOM     26  C   UNL     1       5.182   4.729  15.780  0.00  0.00    +0.000 A 
ENDBRANCH  20  21
BRANCH  20  27
ATOM     27  C   UNL     1       2.803   3.908  17.918  0.00  0.00    +0.000 A 
ATOM     28  C   UNL     1       1.427   3.684  18.165  0.00  0.00    +0.000 A 
ATOM     29  C   UNL     1       0.960   2.424  18.543  0.00  0.00    +0.000 A 
ATOM     30  C   UNL     1       1.841   1.355  18.687  0.00  0.00    +0.000 A 
ATOM     31  C   UNL     1       3.202   1.541  18.455  0.00  0.00    +0.000 A 
ATOM     32  C   UNL     1       3.681   2.806  18.067  0.00  0.00    +0.000 A 
ENDBRANCH  20  27
ENDBRANCH   6  20
TORSDOF 7
ENDMDL
MODEL 3
REMARK VINA RESULT:      -7.9      1.077      2.946
REMARK  Name = 
REMARK  10 active torsions:
REMARK  status: ('A' for Active; 'I' for Inactive)
REMARK    1  A    between atoms: C_1  and  O_2
REMARK    2  A    between atoms: O_2  and  C_3
REMARK    3  A    between atoms: C_6  and  C_7
REMARK    4  A    between atoms: C_7  and  C_8
REMARK    5  A    between atoms: C_7  and  C_9
REMARK    6  A    between atoms: C_11  and  C_12
REMARK    7  A    between atoms: C_12  and  N_13
REMARK    8  A    between atoms: C_18  and  C_19
REMARK    9  A    between atoms: C_19  and  C_20
REMARK   10  A    between atoms: C_19  and  C_26
REMARK                            x       y       z     vdW  Elec       q    Type
REMARK                         _______ _______ _______ _____ _____    ______ ____
ROOT
ATOM      1  N   UNL     1       2.158   8.283  18.915  0.00  0.00    +0.000 NA
ATOM      2  C   UNL     1       2.194   7.536  20.198  0.00  0.00    +0.000 C 
ATOM      3  C   UNL     1       1.438   8.150  21.387  0.00  0.00    +0.000 C 
ATOM      4  C   UNL     1       0.150   8.842  21.046  0.00  0.00    +0.000 C 
ATOM      5  O   UNL     1      -0.633   9.072  21.953  0.00  0.00    +0.000 OA
ATOM      6  C   UNL     1      -0.163   9.300  19.639  0.00  0.00    +0.000 C 
ATOM      7  C   UNL     1       1.135   9.366  18.760  0.00  0.00    +0.000 C 
ENDROOT
BRANCH   1   8
ATOM      8  C   UNL     1       2.291   7.362  17.751  0.00  0.00    +0.000 C 
BRANCH   8  14
ATOM      9  C   UNL     1       4.371   5.874  18.001  0.00  0.00    +0.000 A 
ATOM     10  C   UNL     1       4.971   4.650  18.374  0.00  0.00    +0.000 A 
ATOM     11  C   UNL     1       4.169   3.600  18.915  0.00  0.00    +0.000 A 
ATOM     12  C   UNL     1       2.770   3.765  19.087  0.00  0.00    +0.000 A 
ATOM     13  C   UNL     1       2.202   4.989  18.654  0.00  0.00    +0.000 A 
ATOM     14  C   UNL     1       2.977   6.041  18.120  0.00  0.00    +0.000 A 
BRANCH  12  15
ATOM     15  C   UNL     1       1.865   2.714  19.737  0.00  0.00    +0.000 C 
ATOM     16  C   UNL     1       1.368   3.069  21.142  0.00  0.00    +0.000 C 
ATOM     17  C   UNL     1       0.669   2.376  18.837  0.00  0.00    +0.000 C 
ENDBRANCH  12  15
BRANCH   9  19
ATOM     18  C   UNL     1       6.414   7.140  17.276  0.00  0.00    +0.000 C 
ATOM     19  O   UNL     1       5.067   6.953  17.525  0.00  0.00    +0.000 OA
ENDBRANCH   9  19
ENDBRANCH   8  14
ENDBRANCH   1   8
BRANCH   6  20
ATOM     20  C   UNL     1      -0.978  10.684  19.563  0.00  0.00    +0.000 C 
BRANCH  20  21
ATOM     21  C   UNL     1      -0.072  11.932  19.606  0.00  0.00    +0.000 A 
ATOM     22  C   UNL     1       0.125  12.766  18.479  0.00  0.00    +0.000 A 
ATOM     23  C   UNL     1       0.912  13.929  18.568  0.00  0.00    +0.000 A 
ATOM     24  C   UNL     1       1.521  14.272  19.772  0.00  0.00    +0.000 A 
ATOM     25  C   UNL     1       1.331  13.470  20.900  0.00  0.00    +0.000 A 
ATOM     26  C   UNL     1       0.542  12.317  20.822  0.00  0.00    +0.000 A 
ENDBRANCH  20  21
BRANCH  20  27
ATOM     27  C   UNL     1      -2.060  10.865  18.463  0.00  0.00    +0.000 A 
ATOM     28  C   UNL     1      -3.222  11.655  18.638  0.00  0.00    +0.000 A 
ATOM     29  C   UNL     1      -4.173  11.771  17.623  0.00  0.00    +0.000 A 
ATOM     30  C   UNL     1      -3.999  11.109  16.410  0.00  0.00    +0.000 A 
ATOM     31  C   UNL     1      -2.869  10.322  16.205  0.00  0.00    +0.000 A 
ATOM     32  C   UNL     1      -1.902  10.205  17.219  0.00  0.00    +0.000 A 
ENDBRANCH  20  27
ENDBRANCH   6  20
TORSDOF 7
ENDMDL
MODEL 4
REMARK VINA RESULT:      -7.8      1.734      8.691
REMARK  Name = 
REMARK  10 active torsions:
REMARK  status: ('A' for Active; 'I' for Inactive)
REMARK    1  A    between atoms: C_1  and  O_2
REMARK    2  A    between atoms: O_2  and  C_3
REMARK    3  A    between atoms: C_6  and  C_7
REMARK    4  A    between atoms: C_7  and  C_8
REMARK    5  A    between atoms: C_7  and  C_9
REMARK    6  A    between atoms: C_11  and  C_12
REMARK    7  A    between atoms: C_12  and  N_13
REMARK    8  A    between atoms: C_18  and  C_19
REMARK    9  A    between atoms: C_19  and  C_20
REMARK   10  A    between atoms: C_19  and  C_26
REMARK                            x       y       z     vdW  Elec       q    Type
REMARK                         _______ _______ _______ _____ _____    ______ ____
ROOT
ATOM      1  N   UNL     1       1.377   8.691  18.744  0.00  0.00    +0.000 NA
ATOM      2  C   UNL     1       1.526   8.525  20.212  0.00  0.00    +0.000 C 
ATOM      3  C   UNL     1       1.900   7.125  20.724  0.00  0.00    +0.000 C 
ATOM      4  C   UNL     1       2.854   6.353  19.857  0.00  0.00    +0.000 C 
ATOM      5  O   UNL     1       3.420   5.390  20.347  0.00  0.00    +0.000 OA
ATOM      6  C   UNL     1       3.079   6.707  18.405  0.00  0.00    +0.000 C 
ATOM      7  C   UNL     1       1.924   7.617  17.855  0.00  0.00    +0.000 C 
ENDROOT
BRANCH   1   8
ATOM      8  C   UNL     1       1.692  10.086  18.325  0.00  0.00    +0.000 C 
BRANCH   8  14
ATOM      9  C   UNL     1       0.697  12.399  18.837  0.00  0.00    +0.000 A 
ATOM     10  C   UNL     1      -0.419  13.254  18.981  0.00  0.00    +0.000 A 
ATOM     11  C   UNL     1      -1.736  12.752  18.752  0.00  0.00    +0.000 A 
ATOM     12  C   UNL     1      -1.946  11.398  18.380  0.00  0.00    +0.000 A 
ATOM     13  C   UNL     1      -0.804  10.563  18.296  0.00  0.00    +0.000 A 
ATOM     14  C   UNL     1       0.507  11.040  18.515  0.00  0.00    +0.000 A 
BRANCH  12  15
ATOM     15  C   UNL     1      -3.320  10.815  18.039  0.00  0.00    +0.000 C 
ATOM     16  C   UNL     1      -4.338  11.830  17.508  0.00  0.00    +0.000 C 
ATOM     17  C   UNL     1      -3.200   9.643  17.057  0.00  0.00    +0.000 C 
ENDBRANCH  12  15
BRANCH   9  19
ATOM     18  C   UNL     1       2.734  13.774  18.330  0.00  0.00    +0.000 C 
ATOM     19  O   UNL     1       1.996  12.806  18.984  0.00  0.00    +0.000 OA
ENDBRANCH   9  19
ENDBRANCH   8  14
ENDBRANCH   1   8
BRANCH   6  20
ATOM     20  C   UNL     1       3.315   5.439  17.446  0.00  0.00    +0.000 C 
BRANCH  20  21
ATOM     21  C   UNL     1       4.760   5.330  16.917  0.00  0.00    +0.000 A 
ATOM     22  C   UNL     1       5.063   4.785  15.647  0.00  0.00    +0.000 A 
ATOM     23  C   UNL     1       6.387   4.751  15.170  0.00  0.00    +0.000 A 
ATOM     24  C   UNL     1       7.426   5.248  15.954  0.00  0.00    +0.000 A 
ATOM     25  C   UNL     1       7.148   5.802  17.206  0.00  0.00    +0.000 A 
ATOM     26  C   UNL     1       5.833   5.846  17.682  0.00  0.00    +0.000 A 
ENDBRANCH  20  21
BRANCH  20  27
ATOM     27  C   UNL     1       2.825   4.039  17.909  0.00  0.00    +0.000 A 
ATOM     28  C   UNL     1       3.691   2.937  18.101  0.00  0.00    +0.000 A 
ATOM     29  C   UNL     1       3.197   1.694  18.500  0.00  0.00    +0.000 A 
ATOM     30  C   UNL     1       1.834   1.510  18.719  0.00  0.00    +0.000 A 
ATOM     31  C   UNL     1       0.952   2.573  18.536  0.00  0.00    +0.000 A 
ATOM     32  C   UNL     1       1.442   3.831  18.141  0.00  0.00    +0.000 A 
ENDBRANCH  20  27
ENDBRANCH   6  20
TORSDOF 7
ENDMDL
MODEL 5
REMARK VINA RESULT:      -7.8      1.750      8.649
REMARK  Name = 
REMARK  10 active torsions:
REMARK  status: ('A' for Active; 'I' for Inactive)
REMARK    1  A    between atoms: C_1  and  O_2
REMARK    2  A    between atoms: O_2  and  C_3
REMARK    3  A    between atoms: C_6  and  C_7
REMARK    4  A    between atoms: C_7  and  C_8
REMARK    5  A    between atoms: C_7  and  C_9
REMARK    6  A    between atoms: C_11  and  C_12
REMARK    7  A    between atoms: C_12  and  N_13
REMARK    8  A    between atoms: C_18  and  C_19
REMARK    9  A    between atoms: C_19  and  C_20
REMARK   10  A    between atoms: C_19  and  C_26
REMARK                            x       y       z     vdW  Elec       q    Type
REMARK                         _______ _______ _______ _____ _____    ______ ____
ROOT
ATOM      1  N   UNL     1       1.474   8.862  18.689  0.00  0.00    +0.000 NA
ATOM      2  C   UNL     1       1.482   8.679  20.162  0.00  0.00    +0.000 C 
ATOM      3  C   UNL     1       1.720   7.255  20.690  0.00  0.00    +0.000 C 
ATOM      4  C   UNL     1       2.695   6.428  19.902  0.00  0.00    +0.000 C 
ATOM      5  O   UNL     1       3.153   5.428  20.430  0.00  0.00    +0.000 OA
ATOM      6  C   UNL     1       3.070   6.774  18.479  0.00  0.00    +0.000 C 
ATOM      7  C   UNL     1       2.028   7.760  17.840  0.00  0.00    +0.000 C 
ENDROOT
BRANCH   1   8
ATOM      8  C   UNL     1       1.913  10.235  18.314  0.00  0.00    +0.000 C 
BRANCH   8  14
ATOM      9  C   UNL     1       1.099  12.604  18.886  0.00  0.00    +0.000 A 
ATOM     10  C   UNL     1       0.054  13.546  19.028  0.00  0.00    +0.000 A 
ATOM     11  C   UNL     1      -1.291  13.167  18.736  0.00  0.00    +0.000 A 
ATOM     12  C   UNL     1      -1.601  11.851  18.303  0.00  0.00    +0.000 A 
ATOM     13  C   UNL     1      -0.531  10.925  18.223  0.00  0.00    +0.000 A 
ATOM     14  C   UNL     1       0.806  11.280  18.504  0.00  0.00    +0.000 A 
BRANCH  12  15
ATOM     15  C   UNL     1      -3.006  11.401  17.894  0.00  0.00    +0.000 C 
ATOM     16  C   UNL     1      -3.165   9.892  17.682  0.00  0.00    +0.000 C 
ATOM     17  C   UNL     1      -4.061  11.896  18.893  0.00  0.00    +0.000 C 
ENDBRANCH  12  15
BRANCH   9  19
ATOM     18  C   UNL     1       3.233  13.890  18.584  0.00  0.00    +0.000 C 
ATOM     19  O   UNL     1       2.421  12.893  19.092  0.00  0.00    +0.000 OA
ENDBRANCH   9  19
ENDBRANCH   8  14
ENDBRANCH   1   8
BRANCH   6  20
ATOM     20  C   UNL     1       3.308   5.499  17.532  0.00  0.00    +0.000 C 
BRANCH  20  21
ATOM     21  C   UNL     1       4.774   5.335  17.080  0.00  0.00    +0.000 A 
ATOM     22  C   UNL     1       5.124   4.822  15.808  0.00  0.00    +0.000 A 
ATOM     23  C   UNL     1       6.470   4.738  15.406  0.00  0.00    +0.000 A 
ATOM     24  C   UNL     1       7.484   5.151  16.265  0.00  0.00    +0.000 A 
ATOM     25  C   UNL     1       7.162   5.672  17.521  0.00  0.00    +0.000 A 
ATOM     26  C   UNL     1       5.826   5.766  17.924  0.00  0.00    +0.000 A 
ENDBRANCH  20  21
BRANCH  20  27
ATOM     27  C   UNL     1       2.741   4.118  17.963  0.00  0.00    +0.000 A 
ATOM     28  C   UNL     1       1.358   3.862  18.125  0.00  0.00    +0.000 A 
ATOM     29  C   UNL     1       0.902   2.608  18.532  0.00  0.00    +0.000 A 
ATOM     30  C   UNL     1       1.801   1.576  18.790  0.00  0.00    +0.000 A 
ATOM     31  C   UNL     1       3.169   1.794  18.643  0.00  0.00    +0.000 A 
ATOM     32  C   UNL     1       3.637   3.053  18.227  0.00  0.00    +0.000 A 
ENDBRANCH  20  27
ENDBRANCH   6  20
TORSDOF 7
ENDMDL
MODEL 6
REMARK VINA RESULT:      -7.7      0.736      1.498
REMARK  Name = 
REMARK  10 active torsions:
REMARK  status: ('A' for Active; 'I' for Inactive)
REMARK    1  A    between atoms: C_1  and  O_2
REMARK    2  A    between atoms: O_2  and  C_3
REMARK    3  A    between atoms: C_6  and  C_7
REMARK    4  A    between atoms: C_7  and  C_8
REMARK    5  A    between atoms: C_7  and  C_9
REMARK    6  A    between atoms: C_11  and  C_12
REMARK    7  A    between atoms: C_12  and  N_13
REMARK    8  A    between atoms: C_18  and  C_19
REMARK    9  A    between atoms: C_19  and  C_20
REMARK   10  A    between atoms: C_19  and  C_26
REMARK                            x       y       z     vdW  Elec       q    Type
REMARK                         _______ _______ _______ _____ _____    ______ ____
ROOT
ATOM      1  N   UNL     1       2.031   8.120  19.213  0.00  0.00    +0.000 NA
ATOM      2  C   UNL     1       2.085   7.544  20.580  0.00  0.00    +0.000 C 
ATOM      3  C   UNL     1       1.384   8.331  21.699  0.00  0.00    +0.000 C 
ATOM      4  C   UNL     1       0.106   9.015  21.305  0.00  0.00    +0.000 C 
ATOM      5  O   UNL     1      -0.641   9.385  22.195  0.00  0.00    +0.000 OA
ATOM      6  C   UNL     1      -0.236   9.297  19.860  0.00  0.00    +0.000 C 
ATOM      7  C   UNL     1       1.037   9.206  18.945  0.00  0.00    +0.000 C 
ENDROOT
BRANCH   1   8
ATOM      8  C   UNL     1       2.102   7.053  18.176  0.00  0.00    +0.000 C 
BRANCH   8  14
ATOM      9  C   UNL     1       2.833   4.730  18.998  0.00  0.00    +0.000 A 
ATOM     10  C   UNL     1       3.845   3.776  19.249  0.00  0.00    +0.000 A 
ATOM     11  C   UNL     1       5.205   4.081  18.939  0.00  0.00    +0.000 A 
ATOM     12  C   UNL     1       5.562   5.335  18.378  0.00  0.00    +0.000 A 
ATOM     13  C   UNL     1       4.524   6.281  18.190  0.00  0.00    +0.000 A 
ATOM     14  C   UNL     1       3.172   5.998  18.486  0.00  0.00    +0.000 A 
BRANCH  12  15
ATOM     15  C   UNL     1       6.985   5.696  17.945  0.00  0.00    +0.000 C 
ATOM     16  C   UNL     1       7.954   5.990  19.095  0.00  0.00    +0.000 C 
ATOM     17  C   UNL     1       7.580   4.617  17.032  0.00  0.00    +0.000 C 
ENDBRANCH  12  15
BRANCH   9  19
ATOM     18  C   UNL     1       0.821   3.976  20.294  0.00  0.00    +0.000 C 
ATOM     19  O   UNL     1       1.500   4.505  19.213  0.00  0.00    +0.000 OA
ENDBRANCH   9  19
ENDBRANCH   8  14
ENDBRANCH   1   8
BRANCH   6  20
ATOM     20  C   UNL     1      -1.012  10.685  19.625  0.00  0.00    +0.000 C 
BRANCH  20  21
ATOM     21  C   UNL     1      -0.085  11.918  19.643  0.00  0.00    +0.000 A 
ATOM     22  C   UNL     1       0.551  12.371  20.823  0.00  0.00    +0.000 A 
ATOM     23  C   UNL     1       1.435  13.466  20.794  0.00  0.00    +0.000 A 
ATOM     24  C   UNL     1       1.690  14.129  19.595  0.00  0.00    +0.000 A 
ATOM     25  C   UNL     1       1.082  13.690  18.416  0.00  0.00    +0.000 A 
ATOM     26  C   UNL     1       0.209  12.597  18.437  0.00  0.00    +0.000 A 
ENDBRANCH  20  21
BRANCH  20  27
ATOM     27  C   UNL     1      -2.010  10.803  18.440  0.00  0.00    +0.000 A 
ATOM     28  C   UNL     1      -1.822  10.152  17.198  0.00  0.00    +0.000 A 
ATOM     29  C   UNL     1      -2.740  10.307  16.158  0.00  0.00    +0.000 A 
ATOM     30  C   UNL     1      -3.867  11.108  16.322  0.00  0.00    +0.000 A 
ATOM     31  C   UNL     1      -4.082  11.766  17.531  0.00  0.00    +0.000 A 
ATOM     32  C   UNL     1      -3.165  11.611  18.586  0.00  0.00    +0.000 A 
ENDBRANCH  20  27
ENDBRANCH   6  20
TORSDOF 7
ENDMDL
MODEL 7
REMARK VINA RESULT:      -7.6      1.136      3.082
REMARK  Name = 
REMARK  10 active torsions:
REMARK  status: ('A' for Active; 'I' for Inactive)
REMARK    1  A    between atoms: C_1  and  O_2
REMARK    2  A    between atoms: O_2  and  C_3
REMARK    3  A    between atoms: C_6  and  C_7
REMARK    4  A    between atoms: C_7  and  C_8
REMARK    5  A    between atoms: C_7  and  C_9
REMARK    6  A    between atoms: C_11  and  C_12
REMARK    7  A    between atoms: C_12  and  N_13
REMARK    8  A    between atoms: C_18  and  C_19
REMARK    9  A    between atoms: C_19  and  C_20
REMARK   10  A    between atoms: C_19  and  C_26
REMARK                            x       y       z     vdW  Elec       q    Type
REMARK                         _______ _______ _______ _____ _____    ______ ____
ROOT
ATOM      1  N   UNL     1       2.172   8.682  18.833  0.00  0.00    +0.000 NA
ATOM      2  C   UNL     1       2.232   7.866  20.072  0.00  0.00    +0.000 C 
ATOM      3  C   UNL     1       1.393   8.345  21.267  0.00  0.00    +0.000 C 
ATOM      4  C   UNL     1       0.062   8.949  20.922  0.00  0.00    +0.000 C 
ATOM      5  O   UNL     1      -0.763   9.061  21.813  0.00  0.00    +0.000 OA
ATOM      6  C   UNL     1      -0.246   9.462  19.533  0.00  0.00    +0.000 C 
ATOM      7  C   UNL     1       1.068   9.685  18.704  0.00  0.00    +0.000 C 
ENDROOT
BRANCH   1   8
ATOM      8  C   UNL     1       2.415   7.845  17.624  0.00  0.00    +0.000 C 
BRANCH   8  14
ATOM      9  C   UNL     1       4.162   5.968  17.805  0.00  0.00    +0.000 A 
ATOM     10  C   UNL     1       4.516   4.647  18.162  0.00  0.00    +0.000 A 
ATOM     11  C   UNL     1       3.541   3.778  18.737  0.00  0.00    +0.000 A 
ATOM     12  C   UNL     1       2.210   4.221  18.961  0.00  0.00    +0.000 A 
ATOM     13  C   UNL     1       1.884   5.535  18.543  0.00  0.00    +0.000 A 
ATOM     14  C   UNL     1       2.835   6.412  17.974  0.00  0.00    +0.000 A 
BRANCH  12  15
ATOM     15  C   UNL     1       1.138   3.372  19.648  0.00  0.00    +0.000 C 
ATOM     16  C   UNL     1       0.729   2.107  18.886  0.00  0.00    +0.000 C 
ATOM     17  C   UNL     1       1.554   3.001  21.078  0.00  0.00    +0.000 C 
ENDBRANCH  12  15
BRANCH   9  19
ATOM     18  C   UNL     1       6.423   6.942  17.318  0.00  0.00    +0.000 C 
ATOM     19  O   UNL     1       5.043   6.886  17.298  0.00  0.00    +0.000 OA
ENDBRANCH   9  19
ENDBRANCH   8  14
ENDBRANCH   1   8
BRANCH   6  20
ATOM     20  C   UNL     1      -1.170  10.776  19.507  0.00  0.00    +0.000 C 
BRANCH  20  21
ATOM     21  C   UNL     1      -0.372  12.091  19.624  0.00  0.00    +0.000 A 
ATOM     22  C   UNL     1      -0.229  12.991  18.541  0.00  0.00    +0.000 A 
ATOM     23  C   UNL     1       0.459  14.209  18.698  0.00  0.00    +0.000 A 
ATOM     24  C   UNL     1       1.021  14.542  19.928  0.00  0.00    +0.000 A 
ATOM     25  C   UNL     1       0.882  13.674  21.013  0.00  0.00    +0.000 A 
ATOM     26  C   UNL     1       0.192  12.466  20.867  0.00  0.00    +0.000 A 
ENDBRANCH  20  21
BRANCH  20  27
ATOM     27  C   UNL     1      -2.248  10.922  18.397  0.00  0.00    +0.000 A 
ATOM     28  C   UNL     1      -2.099  10.388  17.094  0.00  0.00    +0.000 A 
ATOM     29  C   UNL     1      -3.091  10.563  16.128  0.00  0.00    +0.000 A 
ATOM     30  C   UNL     1      -4.254  11.269  16.425  0.00  0.00    +0.000 A 
ATOM     31  C   UNL     1      -4.432  11.809  17.697  0.00  0.00    +0.000 A 
ATOM     32  C   UNL     1      -3.441  11.633  18.679  0.00  0.00    +0.000 A 
ENDBRANCH  20  27
ENDBRANCH   6  20
TORSDOF 7
ENDMDL
MODEL 8
REMARK VINA RESULT:      -7.6      0.670      1.199
REMARK  Name = 
REMARK  10 active torsions:
REMARK  status: ('A' for Active; 'I' for Inactive)
REMARK    1  A    between atoms: C_1  and  O_2
REMARK    2  A    between atoms: O_2  and  C_3
REMARK    3  A    between atoms: C_6  and  C_7
REMARK    4  A    between atoms: C_7  and  C_8
REMARK    5  A    between atoms: C_7  and  C_9
REMARK    6  A    between atoms: C_11  and  C_12
REMARK    7  A    between atoms: C_12  and  N_13
REMARK    8  A    between atoms: C_18  and  C_19
REMARK    9  A    between atoms: C_19  and  C_20
REMARK   10  A    between atoms: C_19  and  C_26
REMARK                            x       y       z     vdW  Elec       q    Type
REMARK                         _______ _______ _______ _____ _____    ______ ____
ROOT
ATOM      1  N   UNL     1       2.065   8.112  19.086  0.00  0.00    +0.000 NA
ATOM      2  C   UNL     1       2.131   7.490  20.432  0.00  0.00    +0.000 C 
ATOM      3  C   UNL     1       1.452   8.243  21.586  0.00  0.00    +0.000 C 
ATOM      4  C   UNL     1       0.175   8.951  21.233  0.00  0.00    +0.000 C 
ATOM      5  O   UNL     1      -0.557   9.297  22.145  0.00  0.00    +0.000 OA
ATOM      6  C   UNL     1      -0.184   9.286  19.803  0.00  0.00    +0.000 C 
ATOM      7  C   UNL     1       1.076   9.215  18.869  0.00  0.00    +0.000 C 
ENDROOT
BRANCH   1   8
ATOM      8  C   UNL     1       2.113   7.081  18.012  0.00  0.00    +0.000 C 
BRANCH   8  14
ATOM      9  C   UNL     1       2.900   4.766  18.804  0.00  0.00    +0.000 A 
ATOM     10  C   UNL     1       3.926   3.812  18.989  0.00  0.00    +0.000 A 
ATOM     11  C   UNL     1       5.259   4.111  18.575  0.00  0.00    +0.000 A 
ATOM     12  C   UNL     1       5.575   5.358  17.974  0.00  0.00    +0.000 A 
ATOM     13  C   UNL     1       4.527   6.304  17.853  0.00  0.00    +0.000 A 
ATOM     14  C   UNL     1       3.201   6.028  18.254  0.00  0.00    +0.000 A 
BRANCH  12  15
ATOM     15  C   UNL     1       6.962   5.711  17.431  0.00  0.00    +0.000 C 
ATOM     16  C   UNL     1       7.257   5.187  16.022  0.00  0.00    +0.000 C 
ATOM     17  C   UNL     1       7.211   7.224  17.482  0.00  0.00    +0.000 C 
ENDBRANCH  12  15
BRANCH   9  19
ATOM     18  C   UNL     1       0.991   4.000  20.242  0.00  0.00    +0.000 C 
ATOM     19  O   UNL     1       1.586   4.547  19.121  0.00  0.00    +0.000 OA
ENDBRANCH   9  19
ENDBRANCH   8  14
ENDBRANCH   1   8
BRANCH   6  20
ATOM     20  C   UNL     1      -0.951  10.687  19.627  0.00  0.00    +0.000 C 
BRANCH  20  21
ATOM     21  C   UNL     1      -0.008  11.908  19.641  0.00  0.00    +0.000 A 
ATOM     22  C   UNL     1       0.578  12.401  20.830  0.00  0.00    +0.000 A 
ATOM     23  C   UNL     1       1.478  13.483  20.801  0.00  0.00    +0.000 A 
ATOM     24  C   UNL     1       1.797  14.095  19.591  0.00  0.00    +0.000 A 
ATOM     25  C   UNL     1       1.239  13.617  18.402  0.00  0.00    +0.000 A 
ATOM     26  C   UNL     1       0.350  12.537  18.424  0.00  0.00    +0.000 A 
ENDBRANCH  20  21
BRANCH  20  27
ATOM     27  C   UNL     1      -1.987  10.844  18.480  0.00  0.00    +0.000 A 
ATOM     28  C   UNL     1      -3.150  11.643  18.588  0.00  0.00    +0.000 A 
ATOM     29  C   UNL     1      -4.059  11.736  17.533  0.00  0.00    +0.000 A 
ATOM     30  C   UNL     1      -3.841  11.041  16.346  0.00  0.00    +0.000 A 
ATOM     31  C   UNL     1      -2.708  10.243  16.207  0.00  0.00    +0.000 A 
ATOM     32  C   UNL     1      -1.783  10.149  17.262  0.00  0.00    +0.000 A 
ENDBRANCH  20  27
ENDBRANCH   6  20
TORSDOF 7
ENDMDL
MODEL 9
REMARK VINA RESULT:      -7.6      1.838      8.756
REMARK  Name = 
REMARK  10 active torsions:
REMARK  status: ('A' for Active; 'I' for Inactive)
REMARK    1  A    between atoms: C_1  and  O_2
REMARK    2  A    between atoms: O_2  and  C_3
REMARK    3  A    between atoms: C_6  and  C_7
REMARK    4  A    between atoms: C_7  and  C_8
REMARK    5  A    between atoms: C_7  and  C_9
REMARK    6  A    between atoms: C_11  and  C_12
REMARK    7  A    between atoms: C_12  and  N_13
REMARK    8  A    between atoms: C_18  and  C_19
REMARK    9  A    between atoms: C_19  and  C_20
REMARK   10  A    between atoms: C_19  and  C_26
REMARK                            x       y       z     vdW  Elec       q    Type
REMARK                         _______ _______ _______ _____ _____    ______ ____
ROOT
ATOM      1  N   UNL     1       1.499   9.027  18.577  0.00  0.00    +0.000 NA
ATOM      2  C   UNL     1       1.455   8.871  20.053  0.00  0.00    +0.000 C 
ATOM      3  C   UNL     1       1.626   7.449  20.612  0.00  0.00    +0.000 C 
ATOM      4  C   UNL     1       2.596   6.576  19.871  0.00  0.00    +0.000 C 
ATOM      5  O   UNL     1       3.002   5.570  20.430  0.00  0.00    +0.000 OA
ATOM      6  C   UNL     1       3.028   6.883  18.455  0.00  0.00    +0.000 C 
ATOM      7  C   UNL     1       2.041   7.891  17.766  0.00  0.00    +0.000 C 
ENDROOT
BRANCH   1   8
ATOM      8  C   UNL     1       1.997  10.377  18.193  0.00  0.00    +0.000 C 
BRANCH   8  14
ATOM      9  C   UNL     1       1.422  12.841  18.645  0.00  0.00    +0.000 A 
ATOM     10  C   UNL     1       0.481  13.847  18.963  0.00  0.00    +0.000 A 
ATOM     11  C   UNL     1      -0.892  13.504  19.152  0.00  0.00    +0.000 A 
ATOM     12  C   UNL     1      -1.333  12.161  19.024  0.00  0.00    +0.000 A 
ATOM     13  C   UNL     1      -0.349  11.177  18.754  0.00  0.00    +0.000 A 
ATOM     14  C   UNL     1       1.013  11.495  18.561  0.00  0.00    +0.000 A 
BRANCH  12  15
ATOM     15  C   UNL     1      -2.800  11.736  19.130  0.00  0.00    +0.000 C 
ATOM     16  C   UNL     1      -3.678  12.657  19.983  0.00  0.00    +0.000 C 
ATOM     17  C   UNL     1      -3.431  11.560  17.743  0.00  0.00    +0.000 C 
ENDBRANCH  12  15
BRANCH   9  19
ATOM     18  C   UNL     1       3.514  14.224  18.539  0.00  0.00    +0.000 C 
ATOM     19  O   UNL     1       2.746  13.084  18.394  0.00  0.00    +0.000 OA
ENDBRANCH   9  19
ENDBRANCH   8  14
ENDBRANCH   1   8
BRANCH   6  20
ATOM     20  C   UNL     1       3.251   5.583  17.537  0.00  0.00    +0.000 C 
BRANCH  20  21
ATOM     21  C   UNL     1       4.680   5.472  16.967  0.00  0.00    +0.000 A 
ATOM     22  C   UNL     1       5.777   6.170  17.526  0.00  0.00    +0.000 A 
ATOM     23  C   UNL     1       7.078   6.003  17.017  0.00  0.00    +0.000 A 
ATOM     24  C   UNL     1       7.304   5.149  15.940  0.00  0.00    +0.000 A 
ATOM     25  C   UNL     1       6.238   4.441  15.380  0.00  0.00    +0.000 A 
ATOM     26  C   UNL     1       4.943   4.595  15.886  0.00  0.00    +0.000 A 
ENDBRANCH  20  21
BRANCH  20  27
ATOM     27  C   UNL     1       2.795   4.195  18.067  0.00  0.00    +0.000 A 
ATOM     28  C   UNL     1       3.697   3.199  18.514  0.00  0.00    +0.000 A 
ATOM     29  C   UNL     1       3.235   1.961  18.964  0.00  0.00    +0.000 A 
ATOM     30  C   UNL     1       1.872   1.676  18.981  0.00  0.00    +0.000 A 
ATOM     31  C   UNL     1       0.958   2.632  18.546  0.00  0.00    +0.000 A 
ATOM     32  C   UNL     1       1.413   3.885  18.097  0.00  0.00    +0.000 A 
ENDBRANCH  20  27
ENDBRANCH   6  20
TORSDOF 7
ENDMDL
