MODEL 1
REMARK VINA RESULT:      -7.3      0.000      0.000
REMARK  Name = 
REMARK  7 active torsions:
REMARK  status: ('A' for Active; 'I' for Inactive)
REMARK    1  A    between atoms: C_1  and  N_2
REMARK    2  A    between atoms: N_2  and  C_3
REMARK    3  A    between atoms: N_2  and  C_4
REMARK    4  A    between atoms: C_4  and  C_5
REMARK    5  A    between atoms: C_5  and  N_6
REMARK    6  A    between atoms: N_12  and  C_13
REMARK    7  A    between atoms: C_13  and  C_14
REMARK                            x       y       z     vdW  Elec       q    Type
REMARK                         _______ _______ _______ _____ _____    ______ ____
ROOT
ATOM      1  N   UNL     1       2.684   2.444  17.915  0.00  0.00    +0.000 NA
ATOM      2  C   UNL     1       3.668   1.445  18.408  0.00  0.00    +0.000 C 
ATOM      3  C   UNL     1       4.557   1.949  19.559  0.00  0.00    +0.000 C 
ATOM      4  O   UNL     1       5.221   3.168  19.223  0.00  0.00    +0.000 OA
ATOM      5  C   UNL     1       4.288   4.190  18.825  0.00  0.00    +0.000 C 
ATOM      6  C   UNL     1       5.061   5.334  18.173  0.00  0.00    +0.000 C 
ATOM      7  N   UNL     1       5.187   5.014  16.725  0.00  0.00    +0.000 NA
ATOM      8  C   UNL     1       4.382   3.784  16.496  0.00  0.00    +0.000 C 
ATOM      9  C   UNL     1       3.388   3.730  17.676  0.00  0.00    +0.000 C 
ENDROOT
BRANCH   1  10
ATOM     10  C   UNL     1       1.590   2.593  18.917  0.00  0.00    +0.000 C 
BRANCH  10  11
ATOM     11  C   UNL     1       1.131   4.053  19.166  0.00  0.00    +0.000 C 
BRANCH  11  13
ATOM     12  C   UNL     1       1.840   3.452  21.379  0.00  0.00    +0.000 C 
ATOM     13  N   UNL     1       1.165   4.482  20.580  0.00  0.00    +0.000 NA
ATOM     14  C   UNL     1       1.846   5.765  20.756  0.00  0.00    +0.000 C 
ENDBRANCH  11  13
ENDBRANCH  10  11
ENDBRANCH   1  10
BRANCH   7  15
ATOM     15  C   UNL     1       6.596   4.768  16.350  0.00  0.00    +0.000 C 
BRANCH  15  16
ATOM     16  C   UNL     1       6.847   4.663  14.854  0.00  0.00    +0.000 A 
ATOM     17  C   UNL     1       6.132   3.760  14.068  0.00  0.00    +0.000 A 
ATOM     18  C   UNL     1       6.399   3.699  12.703  0.00  0.00    +0.000 A 
ATOM     19  C   UNL     1       7.364   4.537  12.157  0.00  0.00    +0.000 A 
ATOM     20  C   UNL     1       8.020   5.411  13.002  0.00  0.00    +0.000 A 
ATOM     21  N   UNL     1       7.792   5.488  14.330  0.00  0.00    +0.000 NA
ENDBRANCH  15  16
ENDBRANCH   7  15
TORSDOF 5
ENDMDL
MODEL 2
REMARK VINA RESULT:      -7.2      2.172      2.910
REMARK  Name = 
REMARK  7 active torsions:
REMARK  status: ('A' for Active; 'I' for Inactive)
REMARK    1  A    between atoms: C_1  and  N_2
REMARK    2  A    between atoms: N_2  and  C_3
REMARK    3  A    between atoms: N_2  and  C_4
REMARK    4  A    between atoms: C_4  and  C_5
REMARK    5  A    between atoms: C_5  and  N_6
REMARK    6  A    between atoms: N_12  and  C_13
REMARK    7  A    between atoms: C_13  and  C_14
REMARK                            x       y       z     vdW  Elec       q    Type
REMARK                         _______ _______ _______ _____ _____    ______ ____
ROOT
ATOM      1  N   UNL     1       2.777   6.401  18.051  0.00  0.00    +0.000 NA
ATOM      2  C   UNL     1       2.332   4.993  18.228  0.00  0.00    +0.000 C 
ATOM      3  C   UNL     1       3.138   4.202  19.274  0.00  0.00    +0.000 C 
ATOM      4  O   UNL     1       4.540   4.245  19.009  0.00  0.00    +0.000 OA
ATOM      5  C   UNL     1       5.025   5.598  18.921  0.00  0.00    +0.000 C 
ATOM      6  C   UNL     1       6.427   5.579  18.320  0.00  0.00    +0.000 C 
ATOM      7  N   UNL     1       6.275   5.635  16.840  0.00  0.00    +0.000 NA
ATOM      8  C   UNL     1       4.824   5.831  16.576  0.00  0.00    +0.000 C 
ATOM      9  C   UNL     1       4.253   6.418  17.884  0.00  0.00    +0.000 C 
ENDROOT
BRANCH   1  10
ATOM     10  C   UNL     1       2.349   7.203  19.232  0.00  0.00    +0.000 C 
BRANCH  10  11
ATOM     11  C   UNL     1       1.846   8.632  18.900  0.00  0.00    +0.000 C 
BRANCH  11  13
ATOM     12  C   UNL     1       1.197   8.707  21.210  0.00  0.00    +0.000 C 
ATOM     13  N   UNL     1       0.870   9.186  19.862  0.00  0.00    +0.000 NA
ATOM     14  C   UNL     1       0.846  10.649  19.851  0.00  0.00    +0.000 C 
ENDBRANCH  11  13
ENDBRANCH  10  11
ENDBRANCH   1  10
BRANCH   7  15
ATOM     15  C   UNL     1       6.736   4.382  16.205  0.00  0.00    +0.000 C 
BRANCH  15  16
ATOM     16  C   UNL     1       6.908   4.459  14.696  0.00  0.00    +0.000 A 
ATOM     17  C   UNL     1       6.162   3.643  13.847  0.00  0.00    +0.000 A 
ATOM     18  C   UNL     1       6.357   3.749  12.471  0.00  0.00    +0.000 A 
ATOM     19  C   UNL     1       7.282   4.661  11.980  0.00  0.00    +0.000 A 
ATOM     20  C   UNL     1       7.973   5.439  12.888  0.00  0.00    +0.000 A 
ATOM     21  N   UNL     1       7.815   5.356  14.226  0.00  0.00    +0.000 NA
ENDBRANCH  15  16
ENDBRANCH   7  15
TORSDOF 5
ENDMDL
MODEL 3
REMARK VINA RESULT:      -7.1      1.901      2.487
REMARK  Name = 
REMARK  7 active torsions:
REMARK  status: ('A' for Active; 'I' for Inactive)
REMARK    1  A    between atoms: C_1  and  N_2
REMARK    2  A    between atoms: N_2  and  C_3
REMARK    3  A    between atoms: N_2  and  C_4
REMARK    4  A    between atoms: C_4  and  C_5
REMARK    5  A    between atoms: C_5  and  N_6
REMARK    6  A    between atoms: N_12  and  C_13
REMARK    7  A    between atoms: C_13  and  C_14
REMARK                            x       y       z     vdW  Elec       q    Type
REMARK                         _______ _______ _______ _____ _____    ______ ____
ROOT
ATOM      1  N   UNL     1       2.800   5.234  18.380  0.00  0.00    +0.000 NA
ATOM      2  C   UNL     1       2.836   3.766  18.606  0.00  0.00    +0.000 C 
ATOM      3  C   UNL     1       3.905   3.308  19.615  0.00  0.00    +0.000 C 
ATOM      4  O   UNL     1       5.205   3.784  19.265  0.00  0.00    +0.000 OA
ATOM      5  C   UNL     1       5.227   5.217  19.127  0.00  0.00    +0.000 C 
ATOM      6  C   UNL     1       6.530   5.624  18.442  0.00  0.00    +0.000 C 
ATOM      7  N   UNL     1       6.291   5.576  16.974  0.00  0.00    +0.000 NA
ATOM      8  C   UNL     1       4.842   5.293  16.794  0.00  0.00    +0.000 C 
ATOM      9  C   UNL     1       4.182   5.713  18.124  0.00  0.00    +0.000 C 
ENDROOT
BRANCH   1  10
ATOM     10  C   UNL     1       2.199   5.900  19.571  0.00  0.00    +0.000 C 
BRANCH  10  11
ATOM     11  C   UNL     1       2.470   7.423  19.671  0.00  0.00    +0.000 C 
BRANCH  11  13
ATOM     12  C   UNL     1       1.048   9.355  19.777  0.00  0.00    +0.000 C 
ATOM     13  N   UNL     1       1.528   8.272  18.910  0.00  0.00    +0.000 NA
ATOM     14  C   UNL     1       2.138   8.839  17.707  0.00  0.00    +0.000 C 
ENDBRANCH  11  13
ENDBRANCH  10  11
ENDBRANCH   1  10
BRANCH   7  15
ATOM     15  C   UNL     1       7.094   4.513  16.333  0.00  0.00    +0.000 C 
BRANCH  15  16
ATOM     16  C   UNL     1       7.114   4.559  14.813  0.00  0.00    +0.000 A 
ATOM     17  C   UNL     1       6.285   3.730  14.060  0.00  0.00    +0.000 A 
ATOM     18  C   UNL     1       6.340   3.807  12.670  0.00  0.00    +0.000 A 
ATOM     19  C   UNL     1       7.213   4.706  12.069  0.00  0.00    +0.000 A 
ATOM     20  C   UNL     1       7.993   5.500  12.887  0.00  0.00    +0.000 A 
ATOM     21  N   UNL     1       7.970   5.444  14.236  0.00  0.00    +0.000 NA
ENDBRANCH  15  16
ENDBRANCH   7  15
TORSDOF 5
ENDMDL
MODEL 4
REMARK VINA RESULT:      -7.1      1.663      7.051
REMARK  Name = 
REMARK  7 active torsions:
REMARK  status: ('A' for Active; 'I' for Inactive)
REMARK    1  A    between atoms: C_1  and  N_2
REMARK    2  A    between atoms: N_2  and  C_3
REMARK    3  A    between atoms: N_2  and  C_4
REMARK    4  A    between atoms: C_4  and  C_5
REMARK    5  A    between atoms: C_5  and  N_6
REMARK    6  A    between atoms: N_12  and  C_13
REMARK    7  A    between atoms: C_13  and  C_14
REMARK                            x       y       z     vdW  Elec       q    Type
REMARK                         _______ _______ _______ _____ _____    ______ ____
ROOT
ATOM      1  N   UNL     1       6.431   5.877  15.752  0.00  0.00    +0.000 NA
ATOM      2  C   UNL     1       7.314   5.922  16.946  0.00  0.00    +0.000 C 
ATOM      3  C   UNL     1       7.301   4.634  17.791  0.00  0.00    +0.000 C 
ATOM      4  O   UNL     1       5.976   4.262  18.172  0.00  0.00    +0.000 OA
ATOM      5  C   UNL     1       5.113   4.120  17.028  0.00  0.00    +0.000 C 
ATOM      6  C   UNL     1       3.667   4.051  17.510  0.00  0.00    +0.000 C 
ATOM      7  N   UNL     1       3.164   5.448  17.602  0.00  0.00    +0.000 NA
ATOM      8  C   UNL     1       4.236   6.317  17.048  0.00  0.00    +0.000 C 
ATOM      9  C   UNL     1       5.092   5.384  16.165  0.00  0.00    +0.000 C 
ENDROOT
BRANCH   1  10
ATOM     10  C   UNL     1       7.046   4.995  14.719  0.00  0.00    +0.000 C 
BRANCH  10  11
ATOM     11  C   UNL     1       6.051   4.060  13.984  0.00  0.00    +0.000 C 
BRANCH  11  13
ATOM     12  C   UNL     1       5.374   3.122  11.881  0.00  0.00    +0.000 C 
ATOM     13  N   UNL     1       6.527   3.546  12.683  0.00  0.00    +0.000 NA
ATOM     14  C   UNL     1       7.302   4.542  11.942  0.00  0.00    +0.000 C 
ENDBRANCH  11  13
ENDBRANCH  10  11
ENDBRANCH   1  10
BRANCH   7  15
ATOM     15  C   UNL     1       2.885   5.828  19.004  0.00  0.00    +0.000 C 
BRANCH  15  16
ATOM     16  C   UNL     1       2.289   4.720  19.858  0.00  0.00    +0.000 A 
ATOM     17  C   UNL     1       1.128   4.056  19.463  0.00  0.00    +0.000 A 
ATOM     18  C   UNL     1       0.619   3.050  20.280  0.00  0.00    +0.000 A 
ATOM     19  C   UNL     1       1.277   2.729  21.460  0.00  0.00    +0.000 A 
ATOM     20  C   UNL     1       2.427   3.426  21.774  0.00  0.00    +0.000 A 
ATOM     21  N   UNL     1       2.942   4.413  21.010  0.00  0.00    +0.000 NA
ENDBRANCH  15  16
ENDBRANCH   7  15
TORSDOF 5
ENDMDL
MODEL 5
REMARK VINA RESULT:      -7.0      0.937      1.077
REMARK  Name = 
REMARK  7 active torsions:
REMARK  status: ('A' for Active; 'I' for Inactive)
REMARK    1  A    between atoms: C_1  and  N_2
REMARK    2  A    between atoms: N_2  and  C_3
REMARK    3  A    between atoms: N_2  and  C_4
REMARK    4  A    between atoms: C_4  and  C_5
REMARK    5  A    between atoms: C_5  and  N_6
REMARK    6  A    between atoms: N_12  and  C_13
REMARK    7  A    between atoms: C_13  and  C_14
REMARK                            x       y       z     vdW  Elec       q    Type
REMARK                         _______ _______ _______ _____ _____    ______ ____
ROOT
ATOM      1  N   UNL     1       2.569   4.289  17.549  0.00  0.00    +0.000 NA
ATOM      2  C   UNL     1       3.002   2.879  17.736  0.00  0.00    +0.000 C 
ATOM      3  C   UNL     1       4.000   2.673  18.890  0.00  0.00    +0.000 C 
ATOM      4  O   UNL     1       5.140   3.525  18.765  0.00  0.00    +0.000 OA
ATOM      5  C   UNL     1       4.760   4.911  18.672  0.00  0.00    +0.000 C 
ATOM      6  C   UNL     1       5.970   5.722  18.216  0.00  0.00    +0.000 C 
ATOM      7  N   UNL     1       5.970   5.716  16.728  0.00  0.00    +0.000 NA
ATOM      8  C   UNL     1       4.710   5.044  16.311  0.00  0.00    +0.000 C 
ATOM      9  C   UNL     1       3.772   5.160  17.530  0.00  0.00    +0.000 C 
ENDROOT
BRANCH   1  10
ATOM     10  C   UNL     1       1.634   4.666  18.647  0.00  0.00    +0.000 C 
BRANCH  10  11
ATOM     11  C   UNL     1       1.097   3.475  19.483  0.00  0.00    +0.000 C 
BRANCH  11  13
ATOM     12  C   UNL     1       1.550   2.390  21.576  0.00  0.00    +0.000 C 
ATOM     13  N   UNL     1       1.172   3.661  20.947  0.00  0.00    +0.000 NA
ATOM     14  C   UNL     1       2.126   4.702  21.328  0.00  0.00    +0.000 C 
ENDBRANCH  11  13
ENDBRANCH  10  11
ENDBRANCH   1  10
BRANCH   7  15
ATOM     15  C   UNL     1       7.134   4.977  16.193  0.00  0.00    +0.000 C 
BRANCH  15  16
ATOM     16  C   UNL     1       7.102   4.738  14.691  0.00  0.00    +0.000 A 
ATOM     17  C   UNL     1       6.291   3.748  14.140  0.00  0.00    +0.000 A 
ATOM     18  C   UNL     1       6.297   3.565  12.759  0.00  0.00    +0.000 A 
ATOM     19  C   UNL     1       7.103   4.373  11.966  0.00  0.00    +0.000 A 
ATOM     20  C   UNL     1       7.869   5.340  12.590  0.00  0.00    +0.000 A 
ATOM     21  N   UNL     1       7.893   5.536  13.926  0.00  0.00    +0.000 NA
ENDBRANCH  15  16
ENDBRANCH   7  15
TORSDOF 5
ENDMDL
MODEL 6
REMARK VINA RESULT:      -7.0      1.623      7.091
REMARK  Name = 
REMARK  7 active torsions:
REMARK  status: ('A' for Active; 'I' for Inactive)
REMARK    1  A    between atoms: C_1  and  N_2
REMARK    2  A    between atoms: N_2  and  C_3
REMARK    3  A    between atoms: N_2  and  C_4
REMARK    4  A    between atoms: C_4  and  C_5
REMARK    5  A    between atoms: C_5  and  N_6
REMARK    6  A    between atoms: N_12  and  C_13
REMARK    7  A    between atoms: C_13  and  C_14
REMARK                            x       y       z     vdW  Elec       q    Type
REMARK                         _______ _______ _______ _____ _____    ______ ____
ROOT
ATOM      1  N   UNL     1       6.463   5.830  15.631  0.00  0.00    +0.000 NA
ATOM      2  C   UNL     1       7.350   5.960  16.817  0.00  0.00    +0.000 C 
ATOM      3  C   UNL     1       7.396   4.708  17.712  0.00  0.00    +0.000 C 
ATOM      4  O   UNL     1       6.090   4.297  18.117  0.00  0.00    +0.000 OA
ATOM      5  C   UNL     1       5.227   4.073  16.986  0.00  0.00    +0.000 C 
ATOM      6  C   UNL     1       3.787   3.963  17.482  0.00  0.00    +0.000 C 
ATOM      7  N   UNL     1       3.227   5.341  17.521  0.00  0.00    +0.000 NA
ATOM      8  C   UNL     1       4.259   6.231  16.924  0.00  0.00    +0.000 C 
ATOM      9  C   UNL     1       5.148   5.300  16.074  0.00  0.00    +0.000 C 
ENDROOT
BRANCH   1  10
ATOM     10  C   UNL     1       7.109   4.934  14.630  0.00  0.00    +0.000 C 
BRANCH  10  11
ATOM     11  C   UNL     1       6.174   3.856  14.023  0.00  0.00    +0.000 C 
BRANCH  11  13
ATOM     12  C   UNL     1       5.213   3.261  11.905  0.00  0.00    +0.000 C 
ATOM     13  N   UNL     1       6.473   3.494  12.621  0.00  0.00    +0.000 NA
ATOM     14  C   UNL     1       7.245   4.529  11.932  0.00  0.00    +0.000 C 
ENDBRANCH  11  13
ENDBRANCH  10  11
ENDBRANCH   1  10
BRANCH   7  15
ATOM     15  C   UNL     1       2.941   5.766  18.909  0.00  0.00    +0.000 C 
BRANCH  15  16
ATOM     16  C   UNL     1       2.325   4.690  19.790  0.00  0.00    +0.000 A 
ATOM     17  C   UNL     1       2.870   4.386  21.036  0.00  0.00    +0.000 A 
ATOM     18  C   UNL     1       2.273   3.391  21.807  0.00  0.00    +0.000 A 
ATOM     19  C   UNL     1       1.151   2.731  21.320  0.00  0.00    +0.000 A 
ATOM     20  C   UNL     1       0.667   3.099  20.080  0.00  0.00    +0.000 A 
ATOM     21  N   UNL     1       1.228   4.052  19.304  0.00  0.00    +0.000 NA
ENDBRANCH  15  16
ENDBRANCH   7  15
TORSDOF 5
ENDMDL
MODEL 7
REMARK VINA RESULT:      -6.9      2.487      7.105
REMARK  Name = 
REMARK  7 active torsions:
REMARK  status: ('A' for Active; 'I' for Inactive)
REMARK    1  A    between atoms: C_1  and  N_2
REMARK    2  A    between atoms: N_2  and  C_3
REMARK    3  A    between atoms: N_2  and  C_4
REMARK    4  A    between atoms: C_4  and  C_5
REMARK    5  A    between atoms: C_5  and  N_6
REMARK    6  A    between atoms: N_12  and  C_13
REMARK    7  A    between atoms: C_13  and  C_14
REMARK                            x       y       z     vdW  Elec       q    Type
REMARK                         _______ _______ _______ _____ _____    ______ ____
ROOT
ATOM      1  N   UNL     1       6.396   5.770  15.849  0.00  0.00    +0.000 NA
ATOM      2  C   UNL     1       7.338   5.860  16.995  0.00  0.00    +0.000 C 
ATOM      3  C   UNL     1       7.241   4.687  17.987  0.00  0.00    +0.000 C 
ATOM      4  O   UNL     1       5.907   4.500  18.460  0.00  0.00    +0.000 OA
ATOM      5  C   UNL     1       4.978   4.318  17.375  0.00  0.00    +0.000 C 
ATOM      6  C   UNL     1       3.557   4.455  17.918  0.00  0.00    +0.000 C 
ATOM      7  N   UNL     1       3.200   5.898  17.861  0.00  0.00    +0.000 NA
ATOM      8  C   UNL     1       4.323   6.582  17.166  0.00  0.00    +0.000 C 
ATOM      9  C   UNL     1       5.038   5.470  16.369  0.00  0.00    +0.000 C 
ENDROOT
BRANCH   1  10
ATOM     10  C   UNL     1       6.869   4.716  14.906  0.00  0.00    +0.000 C 
BRANCH  10  11
ATOM     11  C   UNL     1       5.784   4.171  13.941  0.00  0.00    +0.000 C 
BRANCH  11  13
ATOM     12  C   UNL     1       5.187   3.066  11.895  0.00  0.00    +0.000 C 
ATOM     13  N   UNL     1       6.309   3.467  12.752  0.00  0.00    +0.000 NA
ATOM     14  C   UNL     1       7.244   4.290  11.985  0.00  0.00    +0.000 C 
ENDBRANCH  11  13
ENDBRANCH  10  11
ENDBRANCH   1  10
BRANCH   7  15
ATOM     15  C   UNL     1       3.031   6.464  19.217  0.00  0.00    +0.000 C 
BRANCH  15  16
ATOM     16  C   UNL     1       2.148   7.700  19.286  0.00  0.00    +0.000 A 
ATOM     17  C   UNL     1       1.581   8.110  20.492  0.00  0.00    +0.000 A 
ATOM     18  C   UNL     1       0.778   9.248  20.504  0.00  0.00    +0.000 A 
ATOM     19  C   UNL     1       0.565   9.947  19.323  0.00  0.00    +0.000 A 
ATOM     20  C   UNL     1       1.171   9.482  18.173  0.00  0.00    +0.000 A 
ATOM     21  N   UNL     1       1.947   8.377  18.124  0.00  0.00    +0.000 NA
ENDBRANCH  15  16
ENDBRANCH   7  15
TORSDOF 5
ENDMDL
MODEL 8
REMARK VINA RESULT:      -6.7      2.449      7.081
REMARK  Name = 
REMARK  7 active torsions:
REMARK  status: ('A' for Active; 'I' for Inactive)
REMARK    1  A    between atoms: C_1  and  N_2
REMARK    2  A    between atoms: N_2  and  C_3
REMARK    3  A    between atoms: N_2  and  C_4
REMARK    4  A    between atoms: C_4  and  C_5
REMARK    5  A    between atoms: C_5  and  N_6
REMARK    6  A    between atoms: N_12  and  C_13
REMARK    7  A    between atoms: C_13  and  C_14
REMARK                            x       y       z     vdW  Elec       q    Type
REMARK                         _______ _______ _______ _____ _____    ______ ____
ROOT
ATOM      1  N   UNL     1       6.536   5.790  16.076  0.00  0.00    +0.000 NA
ATOM      2  C   UNL     1       7.442   6.083  17.217  0.00  0.00    +0.000 C 
ATOM      3  C   UNL     1       7.459   4.995  18.307  0.00  0.00    +0.000 C 
ATOM      4  O   UNL     1       6.145   4.702  18.784  0.00  0.00    +0.000 OA
ATOM      5  C   UNL     1       5.261   4.325  17.712  0.00  0.00    +0.000 C 
ATOM      6  C   UNL     1       3.825   4.348  18.230  0.00  0.00    +0.000 C 
ATOM      7  N   UNL     1       3.311   5.732  18.045  0.00  0.00    +0.000 NA
ATOM      8  C   UNL     1       4.364   6.475  17.301  0.00  0.00    +0.000 C 
ATOM      9  C   UNL     1       5.211   5.385  16.610  0.00  0.00    +0.000 C 
ENDROOT
BRANCH   1  10
ATOM     10  C   UNL     1       7.139   4.719  15.233  0.00  0.00    +0.000 C 
BRANCH  10  11
ATOM     11  C   UNL     1       6.135   3.962  14.325  0.00  0.00    +0.000 C 
BRANCH  11  13
ATOM     12  C   UNL     1       7.616   4.819  12.641  0.00  0.00    +0.000 C 
ATOM     13  N   UNL     1       6.306   4.200  12.876  0.00  0.00    +0.000 NA
ATOM     14  C   UNL     1       6.196   2.969  12.094  0.00  0.00    +0.000 C 
ENDBRANCH  11  13
ENDBRANCH  10  11
ENDBRANCH   1  10
BRANCH   7  15
ATOM     15  C   UNL     1       3.057   6.390  19.345  0.00  0.00    +0.000 C 
BRANCH  15  16
ATOM     16  C   UNL     1       2.195   7.640  19.268  0.00  0.00    +0.000 A 
ATOM     17  C   UNL     1       1.979   8.289  18.053  0.00  0.00    +0.000 A 
ATOM     18  C   UNL     1       1.184   9.433  18.034  0.00  0.00    +0.000 A 
ATOM     19  C   UNL     1       0.624   9.896  19.218  0.00  0.00    +0.000 A 
ATOM     20  C   UNL     1       0.877   9.189  20.378  0.00  0.00    +0.000 A 
ATOM     21  N   UNL     1       1.650   8.083  20.432  0.00  0.00    +0.000 NA
ENDBRANCH  15  16
ENDBRANCH   7  15
TORSDOF 5
ENDMDL
MODEL 9
REMARK VINA RESULT:      -6.7      0.699      1.088
REMARK  Name = 
REMARK  7 active torsions:
REMARK  status: ('A' for Active; 'I' for Inactive)
REMARK    1  A    between atoms: C_1  and  N_2
REMARK    2  A    between atoms: N_2  and  C_3
REMARK    3  A    between atoms: N_2  and  C_4
REMARK    4  A    between atoms: C_4  and  C_5
REMARK    5  A    between atoms: C_5  and  N_6
REMARK    6  A    between atoms: N_12  and  C_13
REMARK    7  A    between atoms: C_13  and  C_14
REMARK                            x       y       z     vdW  Elec       q    Type
REMARK                         _______ _______ _______ _____ _____    ______ ____
ROOT
ATOM      1  N   UNL     1       2.718   2.116  18.118  0.00  0.00    +0.000 NA
ATOM      2  C   UNL     1       3.778   1.269  18.725  0.00  0.00    +0.000 C 
ATOM      3  C   UNL     1       4.640   1.992  19.775  0.00  0.00    +0.000 C 
ATOM      4  O   UNL     1       5.208   3.197  19.259  0.00  0.00    +0.000 OA
ATOM      5  C   UNL     1       4.197   4.083  18.743  0.00  0.00    +0.000 C 
ATOM      6  C   UNL     1       4.876   5.177  17.923  0.00  0.00    +0.000 C 
ATOM      7  N   UNL     1       5.010   4.667  16.531  0.00  0.00    +0.000 NA
ATOM      8  C   UNL     1       4.295   3.363  16.492  0.00  0.00    +0.000 C 
ATOM      9  C   UNL     1       3.321   3.403  17.688  0.00  0.00    +0.000 C 
ENDROOT
BRANCH   1  10
ATOM     10  C   UNL     1       1.627   2.325  19.113  0.00  0.00    +0.000 C 
BRANCH  10  11
ATOM     11  C   UNL     1       1.077   3.773  19.180  0.00  0.00    +0.000 C 
BRANCH  11  13
ATOM     12  C   UNL     1       1.713   3.450  21.472  0.00  0.00    +0.000 C 
ATOM     13  N   UNL     1       1.053   4.366  20.534  0.00  0.00    +0.000 NA
ATOM     14  C   UNL     1       1.706   5.674  20.581  0.00  0.00    +0.000 C 
ENDBRANCH  11  13
ENDBRANCH  10  11
ENDBRANCH   1  10
BRANCH   7  15
ATOM     15  C   UNL     1       6.429   4.474  16.164  0.00  0.00    +0.000 C 
BRANCH  15  16
ATOM     16  C   UNL     1       6.704   4.462  14.668  0.00  0.00    +0.000 A 
ATOM     17  C   UNL     1       7.625   5.342  14.102  0.00  0.00    +0.000 A 
ATOM     18  C   UNL     1       7.841   5.295  12.727  0.00  0.00    +0.000 A 
ATOM     19  C   UNL     1       7.142   4.375  11.955  0.00  0.00    +0.000 A 
ATOM     20  C   UNL     1       6.255   3.531  12.595  0.00  0.00    +0.000 A 
ATOM     21  N   UNL     1       6.014   3.557  13.924  0.00  0.00    +0.000 NA
ENDBRANCH  15  16
ENDBRANCH   7  15
TORSDOF 5
ENDMDL
