MODEL 1
REMARK VINA RESULT:      -8.1      0.000      0.000
REMARK  Name = 
REMARK  6 active torsions:
REMARK  status: ('A' for Active; 'I' for Inactive)
REMARK    1  A    between atoms: C_1  and  O_2
REMARK    2  A    between atoms: O_2  and  C_3
REMARK    3  A    between atoms: C_6  and  C_7
REMARK    4  A    between atoms: C_10  and  C_11
REMARK    5  A    between atoms: C_22  and  O_23
REMARK    6  A    between atoms: O_23  and  C_24
REMARK                            x       y       z     vdW  Elec       q    Type
REMARK                         _______ _______ _______ _____ _____    ______ ____
ROOT
ATOM      1  C   UNL     1       4.040   3.975  19.099  0.00  0.00    +0.000 C 
ATOM      2  C   UNL     1       3.067   4.833  19.445  0.00  0.00    +0.000 C 
ATOM      3  C   UNL     1       2.675   6.040  18.800  0.00  0.00    +0.000 C 
ATOM      4  C   UNL     1       2.027   6.739  19.723  0.00  0.00    +0.000 C 
ATOM      5  O   UNL     1       1.752   6.047  20.914  0.00  0.00    +0.000 OA
ATOM      6  C   UNL     1       2.332   4.793  20.737  0.00  0.00    +0.000 C 
ATOM      7  O   UNL     1       2.293   3.868  21.526  0.00  0.00    +0.000 OA
ENDROOT
BRANCH   4   8
ATOM      8  C   UNL     1       1.650   8.155  19.595  0.00  0.00    +0.000 A 
ATOM      9  C   UNL     1       1.093   8.865  20.664  0.00  0.00    +0.000 A 
ATOM     10  C   UNL     1       0.715  10.206  20.508  0.00  0.00    +0.000 A 
ATOM     11  C   UNL     1       0.908  10.850  19.286  0.00  0.00    +0.000 A 
ATOM     12 BR   UNL     1       0.355  12.643  19.062  0.00  0.00    +0.000 Br
ATOM     13  C   UNL     1       1.505  10.177  18.227  0.00  0.00    +0.000 A 
ATOM     14  C   UNL     1       1.882   8.844  18.386  0.00  0.00    +0.000 A 
ENDBRANCH   4   8
BRANCH   1  18
ATOM     15  C   UNL     1       6.791   4.903  15.919  0.00  0.00    +0.000 A 
ATOM     16  C   UNL     1       5.766   3.955  15.728  0.00  0.00    +0.000 A 
ATOM     17  C   UNL     1       4.859   3.640  16.752  0.00  0.00    +0.000 A 
ATOM     18  C   UNL     1       4.995   4.228  18.003  0.00  0.00    +0.000 A 
ATOM     19  C   UNL     1       6.125   5.030  18.224  0.00  0.00    +0.000 A 
ATOM     20  C   UNL     1       6.991   5.422  17.199  0.00  0.00    +0.000 A 
BRANCH  15  22
ATOM     21  C   UNL     1       7.239   4.873  13.593  0.00  0.00    +0.000 C 
ATOM     22  O   UNL     1       7.614   5.302  14.900  0.00  0.00    +0.000 OA
ENDBRANCH  15  22
BRANCH  20  23
ATOM     23  O   UNL     1       7.917   6.315  17.660  0.00  0.00    +0.000 OA
ATOM     24  C   UNL     1       7.660   7.705  17.585  0.00  0.00    +0.000 C 
ENDBRANCH  20  23
ENDBRANCH   1  18
TORSDOF 4
ENDMDL
MODEL 2
REMARK VINA RESULT:      -8.0      0.768      1.290
REMARK  Name = 
REMARK  6 active torsions:
REMARK  status: ('A' for Active; 'I' for Inactive)
REMARK    1  A    between atoms: C_1  and  O_2
REMARK    2  A    between atoms: O_2  and  C_3
REMARK    3  A    between atoms: C_6  and  C_7
REMARK    4  A    between atoms: C_10  and  C_11
REMARK    5  A    between atoms: C_22  and  O_23
REMARK    6  A    between atoms: O_23  and  C_24
REMARK                            x       y       z     vdW  Elec       q    Type
REMARK                         _______ _______ _______ _____ _____    ______ ____
ROOT
ATOM      1  C   UNL     1       4.507   3.838  18.254  0.00  0.00    +0.000 C 
ATOM      2  C   UNL     1       3.518   4.625  18.707  0.00  0.00    +0.000 C 
ATOM      3  C   UNL     1       3.029   5.844  18.158  0.00  0.00    +0.000 C 
ATOM      4  C   UNL     1       2.408   6.458  19.156  0.00  0.00    +0.000 C 
ATOM      5  O   UNL     1       2.244   5.690  20.321  0.00  0.00    +0.000 OA
ATOM      6  C   UNL     1       2.871   4.478  20.038  0.00  0.00    +0.000 C 
ATOM      7  O   UNL     1       2.927   3.512  20.774  0.00  0.00    +0.000 OA
ENDROOT
BRANCH   4   8
ATOM      8  C   UNL     1       1.957   7.857  19.133  0.00  0.00    +0.000 A 
ATOM      9  C   UNL     1       2.059   8.643  17.981  0.00  0.00    +0.000 A 
ATOM     10  C   UNL     1       1.649   9.984  17.993  0.00  0.00    +0.000 A 
ATOM     11  C   UNL     1       1.116  10.541  19.156  0.00  0.00    +0.000 A 
ATOM     12 BR   UNL     1       0.606  12.360  19.186  0.00  0.00    +0.000 Br
ATOM     13  C   UNL     1       0.959   9.764  20.296  0.00  0.00    +0.000 A 
ATOM     14  C   UNL     1       1.367   8.431  20.280  0.00  0.00    +0.000 A 
ENDBRANCH   4   8
BRANCH   1  18
ATOM     15  C   UNL     1       6.973   5.069  14.946  0.00  0.00    +0.000 A 
ATOM     16  C   UNL     1       6.141   3.937  14.839  0.00  0.00    +0.000 A 
ATOM     17  C   UNL     1       5.329   3.522  15.906  0.00  0.00    +0.000 A 
ATOM     18  C   UNL     1       5.376   4.199  17.117  0.00  0.00    +0.000 A 
ATOM     19  C   UNL     1       6.340   5.209  17.259  0.00  0.00    +0.000 A 
ATOM     20  C   UNL     1       7.096   5.693  16.188  0.00  0.00    +0.000 A 
BRANCH  15  22
ATOM     21  C   UNL     1       7.562   4.821  12.665  0.00  0.00    +0.000 C 
ATOM     22  O   UNL     1       7.687   5.553  13.882  0.00  0.00    +0.000 OA
ENDBRANCH  15  22
BRANCH  20  23
ATOM     23  O   UNL     1       7.847   6.770  16.571  0.00  0.00    +0.000 OA
ATOM     24  C   UNL     1       7.433   7.570  17.662  0.00  0.00    +0.000 C 
ENDBRANCH  20  23
ENDBRANCH   1  18
TORSDOF 4
ENDMDL
MODEL 3
REMARK VINA RESULT:      -7.1      3.276      7.422
REMARK  Name = 
REMARK  6 active torsions:
REMARK  status: ('A' for Active; 'I' for Inactive)
REMARK    1  A    between atoms: C_1  and  O_2
REMARK    2  A    between atoms: O_2  and  C_3
REMARK    3  A    between atoms: C_6  and  C_7
REMARK    4  A    between atoms: C_10  and  C_11
REMARK    5  A    between atoms: C_22  and  O_23
REMARK    6  A    between atoms: O_23  and  C_24
REMARK                            x       y       z     vdW  Elec       q    Type
REMARK                         _______ _______ _______ _____ _____    ______ ____
ROOT
ATOM      1  C   UNL     1       1.281   6.592  20.982  0.00  0.00    +0.000 C 
ATOM      2  C   UNL     1       2.146   5.782  20.350  0.00  0.00    +0.000 C 
ATOM      3  C   UNL     1       3.182   6.127  19.437  0.00  0.00    +0.000 C 
ATOM      4  C   UNL     1       3.438   5.017  18.758  0.00  0.00    +0.000 C 
ATOM      5  O   UNL     1       2.809   3.859  19.245  0.00  0.00    +0.000 OA
ATOM      6  C   UNL     1       2.039   4.299  20.318  0.00  0.00    +0.000 C 
ATOM      7  O   UNL     1       1.358   3.601  21.045  0.00  0.00    +0.000 OA
ENDROOT
BRANCH   4   8
ATOM      8  C   UNL     1       4.261   4.946  17.541  0.00  0.00    +0.000 A 
ATOM      9  C   UNL     1       4.726   3.726  17.039  0.00  0.00    +0.000 A 
ATOM     10  C   UNL     1       5.533   3.688  15.893  0.00  0.00    +0.000 A 
ATOM     11  C   UNL     1       5.865   4.871  15.231  0.00  0.00    +0.000 A 
ATOM     12 BR   UNL     1       6.990   4.823  13.715  0.00  0.00    +0.000 Br
ATOM     13  C   UNL     1       5.371   6.088  15.684  0.00  0.00    +0.000 A 
ATOM     14  C   UNL     1       4.567   6.122  16.823  0.00  0.00    +0.000 A 
ENDBRANCH   4   8
BRANCH   1  18
ATOM     15  C   UNL     1       0.808  10.812  20.270  0.00  0.00    +0.000 A 
ATOM     16  C   UNL     1       1.288   9.962  19.254  0.00  0.00    +0.000 A 
ATOM     17  C   UNL     1       1.447   8.583  19.467  0.00  0.00    +0.000 A 
ATOM     18  C   UNL     1       1.182   8.040  20.717  0.00  0.00    +0.000 A 
ATOM     19  C   UNL     1       0.878   8.929  21.760  0.00  0.00    +0.000 A 
ATOM     20  C   UNL     1       0.633  10.289  21.552  0.00  0.00    +0.000 A 
BRANCH  15  22
ATOM     21  C   UNL     1       1.675  12.962  19.783  0.00  0.00    +0.000 C 
ATOM     22  O   UNL     1       0.542  12.137  20.048  0.00  0.00    +0.000 OA
ENDBRANCH  15  22
BRANCH  20  23
ATOM     23  O   UNL     1       0.219  10.891  22.708  0.00  0.00    +0.000 OA
ATOM     24  C   UNL     1      -1.161  10.967  23.010  0.00  0.00    +0.000 C 
ENDBRANCH  20  23
ENDBRANCH   1  18
TORSDOF 4
ENDMDL
MODEL 4
REMARK VINA RESULT:      -7.1      3.272      7.447
REMARK  Name = 
REMARK  6 active torsions:
REMARK  status: ('A' for Active; 'I' for Inactive)
REMARK    1  A    between atoms: C_1  and  O_2
REMARK    2  A    between atoms: O_2  and  C_3
REMARK    3  A    between atoms: C_6  and  C_7
REMARK    4  A    between atoms: C_10  and  C_11
REMARK    5  A    between atoms: C_22  and  O_23
REMARK    6  A    between atoms: O_23  and  C_24
REMARK                            x       y       z     vdW  Elec       q    Type
REMARK                         _______ _______ _______ _____ _____    ______ ____
ROOT
ATOM      1  C   UNL     1       1.447   6.748  20.826  0.00  0.00    +0.000 C 
ATOM      2  C   UNL     1       2.314   5.923  20.216  0.00  0.00    +0.000 C 
ATOM      3  C   UNL     1       3.304   6.236  19.242  0.00  0.00    +0.000 C 
ATOM      4  C   UNL     1       3.571   5.091  18.629  0.00  0.00    +0.000 C 
ATOM      5  O   UNL     1       2.998   3.950  19.216  0.00  0.00    +0.000 OA
ATOM      6  C   UNL     1       2.253   4.439  20.287  0.00  0.00    +0.000 C 
ATOM      7  O   UNL     1       1.623   3.772  21.085  0.00  0.00    +0.000 OA
ENDROOT
BRANCH   4   8
ATOM      8  C   UNL     1       4.349   4.962  17.387  0.00  0.00    +0.000 A 
ATOM      9  C   UNL     1       4.737   6.081  16.645  0.00  0.00    +0.000 A 
ATOM     10  C   UNL     1       5.453   5.931  15.449  0.00  0.00    +0.000 A 
ATOM     11  C   UNL     1       5.802   4.657  14.998  0.00  0.00    +0.000 A 
ATOM     12 BR   UNL     1       6.726   4.451  13.364  0.00  0.00    +0.000 Br
ATOM     13  C   UNL     1       5.470   3.535  15.747  0.00  0.00    +0.000 A 
ATOM     14  C   UNL     1       4.759   3.689  16.937  0.00  0.00    +0.000 A 
ENDBRANCH   4   8
BRANCH   1  18
ATOM     15  C   UNL     1       0.810  10.892  19.847  0.00  0.00    +0.000 A 
ATOM     16  C   UNL     1       1.317   9.997  18.885  0.00  0.00    +0.000 A 
ATOM     17  C   UNL     1       1.530   8.642  19.185  0.00  0.00    +0.000 A 
ATOM     18  C   UNL     1       1.291   8.171  20.469  0.00  0.00    +0.000 A 
ATOM     19  C   UNL     1       0.959   9.113  21.455  0.00  0.00    +0.000 A 
ATOM     20  C   UNL     1       0.661  10.447  21.161  0.00  0.00    +0.000 A 
BRANCH  15  22
ATOM     21  C   UNL     1      -0.667  12.372  18.733  0.00  0.00    +0.000 C 
ATOM     22  O   UNL     1       0.493  12.189  19.542  0.00  0.00    +0.000 OA
ENDBRANCH  15  22
BRANCH  20  23
ATOM     23  O   UNL     1       0.229  11.106  22.278  0.00  0.00    +0.000 OA
ATOM     24  C   UNL     1      -0.898  10.630  22.989  0.00  0.00    +0.000 C 
ENDBRANCH  20  23
ENDBRANCH   1  18
TORSDOF 4
ENDMDL
MODEL 5
REMARK VINA RESULT:      -7.0      3.177      7.280
REMARK  Name = 
REMARK  6 active torsions:
REMARK  status: ('A' for Active; 'I' for Inactive)
REMARK    1  A    between atoms: C_1  and  O_2
REMARK    2  A    between atoms: O_2  and  C_3
REMARK    3  A    between atoms: C_6  and  C_7
REMARK    4  A    between atoms: C_10  and  C_11
REMARK    5  A    between atoms: C_22  and  O_23
REMARK    6  A    between atoms: O_23  and  C_24
REMARK                            x       y       z     vdW  Elec       q    Type
REMARK                         _______ _______ _______ _____ _____    ______ ____
ROOT
ATOM      1  C   UNL     1       2.141   5.899  20.435  0.00  0.00    +0.000 C 
ATOM      2  C   UNL     1       3.117   5.230  19.798  0.00  0.00    +0.000 C 
ATOM      3  C   UNL     1       4.083   5.729  18.879  0.00  0.00    +0.000 C 
ATOM      4  C   UNL     1       4.503   4.670  18.199  0.00  0.00    +0.000 C 
ATOM      5  O   UNL     1       4.061   3.430  18.690  0.00  0.00    +0.000 OA
ATOM      6  C   UNL     1       3.237   3.749  19.767  0.00  0.00    +0.000 C 
ATOM      7  O   UNL     1       2.676   2.955  20.498  0.00  0.00    +0.000 OA
ENDROOT
BRANCH   4   8
ATOM      8  C   UNL     1       5.320   4.725  16.978  0.00  0.00    +0.000 A 
ATOM      9  C   UNL     1       6.632   5.206  16.994  0.00  0.00    +0.000 A 
ATOM     10  C   UNL     1       7.381   5.276  15.810  0.00  0.00    +0.000 A 
ATOM     11  C   UNL     1       6.825   4.846  14.604  0.00  0.00    +0.000 A 
ATOM     12 BR   UNL     1       7.816   4.982  13.002  0.00  0.00    +0.000 Br
ATOM     13  C   UNL     1       5.540   4.318  14.576  0.00  0.00    +0.000 A 
ATOM     14  C   UNL     1       4.799   4.249  15.756  0.00  0.00    +0.000 A 
ENDBRANCH   4   8
BRANCH   1  18
ATOM     15  C   UNL     1       1.029  10.000  19.740  0.00  0.00    +0.000 A 
ATOM     16  C   UNL     1       1.514   9.200  18.687  0.00  0.00    +0.000 A 
ATOM     17  C   UNL     1       1.880   7.861  18.894  0.00  0.00    +0.000 A 
ATOM     18  C   UNL     1       1.819   7.314  20.169  0.00  0.00    +0.000 A 
ATOM     19  C   UNL     1       1.506   8.178  21.231  0.00  0.00    +0.000 A 
ATOM     20  C   UNL     1       1.058   9.487  21.038  0.00  0.00    +0.000 A 
BRANCH  15  22
ATOM     21  C   UNL     1       1.550  12.249  19.205  0.00  0.00    +0.000 C 
ATOM     22  O   UNL     1       0.565  11.272  19.536  0.00  0.00    +0.000 OA
ENDBRANCH  15  22
BRANCH  20  23
ATOM     23  O   UNL     1       0.685  10.054  22.225  0.00  0.00    +0.000 OA
ATOM     24  C   UNL     1      -0.482   9.605  22.888  0.00  0.00    +0.000 C 
ENDBRANCH  20  23
ENDBRANCH   1  18
TORSDOF 4
ENDMDL
MODEL 6
REMARK VINA RESULT:      -7.0      4.540      8.747
REMARK  Name = 
REMARK  6 active torsions:
REMARK  status: ('A' for Active; 'I' for Inactive)
REMARK    1  A    between atoms: C_1  and  O_2
REMARK    2  A    between atoms: O_2  and  C_3
REMARK    3  A    between atoms: C_6  and  C_7
REMARK    4  A    between atoms: C_10  and  C_11
REMARK    5  A    between atoms: C_22  and  O_23
REMARK    6  A    between atoms: O_23  and  C_24
REMARK                            x       y       z     vdW  Elec       q    Type
REMARK                         _______ _______ _______ _____ _____    ______ ____
ROOT
ATOM      1  C   UNL     1      -0.805  10.823  20.295  0.00  0.00    +0.000 C 
ATOM      2  C   UNL     1       0.239  10.002  20.495  0.00  0.00    +0.000 C 
ATOM      3  C   UNL     1       0.876   9.130  19.568  0.00  0.00    +0.000 C 
ATOM      4  C   UNL     1       1.512   8.231  20.308  0.00  0.00    +0.000 C 
ATOM      5  O   UNL     1       1.545   8.505  21.685  0.00  0.00    +0.000 OA
ATOM      6  C   UNL     1       0.810   9.679  21.830  0.00  0.00    +0.000 C 
ATOM      7  O   UNL     1       0.622  10.283  22.869  0.00  0.00    +0.000 OA
ENDROOT
BRANCH   4   8
ATOM      8  C   UNL     1       2.107   6.988  19.795  0.00  0.00    +0.000 A 
ATOM      9  C   UNL     1       2.862   6.966  18.619  0.00  0.00    +0.000 A 
ATOM     10  C   UNL     1       3.393   5.762  18.134  0.00  0.00    +0.000 A 
ATOM     11  C   UNL     1       3.187   4.574  18.837  0.00  0.00    +0.000 A 
ATOM     12 BR   UNL     1       3.863   2.945  18.161  0.00  0.00    +0.000 Br
ATOM     13  C   UNL     1       2.482   4.582  20.034  0.00  0.00    +0.000 A 
ATOM     14  C   UNL     1       1.956   5.782  20.512  0.00  0.00    +0.000 A 
ENDBRANCH   4   8
BRANCH   1  18
ATOM     15  C   UNL     1      -3.219  10.840  16.729  0.00  0.00    +0.000 A 
ATOM     16  C   UNL     1      -1.922  10.288  16.716  0.00  0.00    +0.000 A 
ATOM     17  C   UNL     1      -1.121  10.272  17.869  0.00  0.00    +0.000 A 
ATOM     18  C   UNL     1      -1.582  10.857  19.041  0.00  0.00    +0.000 A 
ATOM     19  C   UNL     1      -2.797  11.557  18.983  0.00  0.00    +0.000 A 
ATOM     20  C   UNL     1      -3.647  11.513  17.874  0.00  0.00    +0.000 A 
BRANCH  15  22
ATOM     21  C   UNL     1      -3.506  10.158  14.478  0.00  0.00    +0.000 C 
ATOM     22  O   UNL     1      -4.054  10.765  15.647  0.00  0.00    +0.000 OA
ENDBRANCH  15  22
BRANCH  20  23
ATOM     23  O   UNL     1      -4.823  12.158  18.137  0.00  0.00    +0.000 OA
ATOM     24  C   UNL     1      -5.936  11.431  18.621  0.00  0.00    +0.000 C 
ENDBRANCH  20  23
ENDBRANCH   1  18
TORSDOF 4
ENDMDL
MODEL 7
REMARK VINA RESULT:      -6.9      1.611      2.668
REMARK  Name = 
REMARK  6 active torsions:
REMARK  status: ('A' for Active; 'I' for Inactive)
REMARK    1  A    between atoms: C_1  and  O_2
REMARK    2  A    between atoms: O_2  and  C_3
REMARK    3  A    between atoms: C_6  and  C_7
REMARK    4  A    between atoms: C_10  and  C_11
REMARK    5  A    between atoms: C_22  and  O_23
REMARK    6  A    between atoms: O_23  and  C_24
REMARK                            x       y       z     vdW  Elec       q    Type
REMARK                         _______ _______ _______ _____ _____    ______ ____
ROOT
ATOM      1  C   UNL     1       4.870   3.644  17.649  0.00  0.00    +0.000 C 
ATOM      2  C   UNL     1       3.898   4.353  18.245  0.00  0.00    +0.000 C 
ATOM      3  C   UNL     1       3.275   5.555  17.803  0.00  0.00    +0.000 C 
ATOM      4  C   UNL     1       2.744   6.098  18.891  0.00  0.00    +0.000 C 
ATOM      5  O   UNL     1       2.766   5.285  20.037  0.00  0.00    +0.000 OA
ATOM      6  C   UNL     1       3.424   4.125  19.636  0.00  0.00    +0.000 C 
ATOM      7  O   UNL     1       3.625   3.142  20.323  0.00  0.00    +0.000 OA
ENDROOT
BRANCH   4   8
ATOM      8  C   UNL     1       2.211   7.466  18.974  0.00  0.00    +0.000 A 
ATOM      9  C   UNL     1       1.651   7.965  20.154  0.00  0.00    +0.000 A 
ATOM     10  C   UNL     1       1.123   9.263  20.200  0.00  0.00    +0.000 A 
ATOM     11  C   UNL     1       1.168  10.077  19.067  0.00  0.00    +0.000 A 
ATOM     12 BR   UNL     1       0.415  11.808  19.114  0.00  0.00    +0.000 Br
ATOM     13  C   UNL     1       1.764   9.618  17.899  0.00  0.00    +0.000 A 
ATOM     14  C   UNL     1       2.290   8.326  17.859  0.00  0.00    +0.000 A 
ENDBRANCH   4   8
BRANCH   1  18
ATOM     15  C   UNL     1       6.926   4.773  14.038  0.00  0.00    +0.000 A 
ATOM     16  C   UNL     1       7.437   5.139  15.299  0.00  0.00    +0.000 A 
ATOM     17  C   UNL     1       6.781   4.778  16.487  0.00  0.00    +0.000 A 
ATOM     18  C   UNL     1       5.575   4.094  16.432  0.00  0.00    +0.000 A 
ATOM     19  C   UNL     1       4.996   3.898  15.169  0.00  0.00    +0.000 A 
ATOM     20  C   UNL     1       5.668   4.172  13.975  0.00  0.00    +0.000 A 
BRANCH  15  22
ATOM     21  C   UNL     1       8.725   5.899  12.984  0.00  0.00    +0.000 C 
ATOM     22  O   UNL     1       7.607   5.020  12.875  0.00  0.00    +0.000 OA
ENDBRANCH  15  22
BRANCH  20  23
ATOM     23  O   UNL     1       4.936   3.755  12.898  0.00  0.00    +0.000 OA
ATOM     24  C   UNL     1       5.515   2.884  11.944  0.00  0.00    +0.000 C 
ENDBRANCH  20  23
ENDBRANCH   1  18
TORSDOF 4
ENDMDL
MODEL 8
REMARK VINA RESULT:      -6.9      2.691      6.516
REMARK  Name = 
REMARK  6 active torsions:
REMARK  status: ('A' for Active; 'I' for Inactive)
REMARK    1  A    between atoms: C_1  and  O_2
REMARK    2  A    between atoms: O_2  and  C_3
REMARK    3  A    between atoms: C_6  and  C_7
REMARK    4  A    between atoms: C_10  and  C_11
REMARK    5  A    between atoms: C_22  and  O_23
REMARK    6  A    between atoms: O_23  and  C_24
REMARK                            x       y       z     vdW  Elec       q    Type
REMARK                         _______ _______ _______ _____ _____    ______ ____
ROOT
ATOM      1  C   UNL     1       4.528   3.548  16.192  0.00  0.00    +0.000 C 
ATOM      2  C   UNL     1       5.660   4.268  16.255  0.00  0.00    +0.000 C 
ATOM      3  C   UNL     1       6.181   5.011  17.352  0.00  0.00    +0.000 C 
ATOM      4  C   UNL     1       7.024   5.885  16.818  0.00  0.00    +0.000 C 
ATOM      5  O   UNL     1       7.296   5.697  15.453  0.00  0.00    +0.000 OA
ATOM      6  C   UNL     1       6.501   4.615  15.079  0.00  0.00    +0.000 C 
ATOM      7  O   UNL     1       6.463   4.101  13.978  0.00  0.00    +0.000 OA
ENDROOT
BRANCH   4   8
ATOM      8  C   UNL     1       7.616   7.027  17.532  0.00  0.00    +0.000 A 
ATOM      9  C   UNL     1       8.265   6.868  18.760  0.00  0.00    +0.000 A 
ATOM     10  C   UNL     1       8.796   7.977  19.435  0.00  0.00    +0.000 A 
ATOM     11  C   UNL     1       8.696   9.250  18.874  0.00  0.00    +0.000 A 
ATOM     12 BR   UNL     1       9.369  10.750  19.804  0.00  0.00    +0.000 Br
ATOM     13  C   UNL     1       8.100   9.422  17.631  0.00  0.00    +0.000 A 
ATOM     14  C   UNL     1       7.574   8.317  16.962  0.00  0.00    +0.000 A 
ENDBRANCH   4   8
BRANCH   1  18
ATOM     15  C   UNL     1       1.732   3.528  19.466  0.00  0.00    +0.000 A 
ATOM     16  C   UNL     1       1.999   2.348  18.743  0.00  0.00    +0.000 A 
ATOM     17  C   UNL     1       2.909   2.335  17.674  0.00  0.00    +0.000 A 
ATOM     18  C   UNL     1       3.525   3.513  17.274  0.00  0.00    +0.000 A 
ATOM     19  C   UNL     1       3.110   4.704  17.890  0.00  0.00    +0.000 A 
ATOM     20  C   UNL     1       2.273   4.730  19.008  0.00  0.00    +0.000 A 
BRANCH  15  22
ATOM     21  C   UNL     1       1.420   2.802  21.700  0.00  0.00    +0.000 C 
ATOM     22  O   UNL     1       0.933   3.536  20.579  0.00  0.00    +0.000 OA
ENDBRANCH  15  22
BRANCH  20  23
ATOM     23  O   UNL     1       2.147   6.002  19.493  0.00  0.00    +0.000 OA
ATOM     24  C   UNL     1       2.544   7.104  18.699  0.00  0.00    +0.000 C 
ENDBRANCH  20  23
ENDBRANCH   1  18
TORSDOF 4
ENDMDL
MODEL 9
REMARK VINA RESULT:      -6.9      4.447      8.683
REMARK  Name = 
REMARK  6 active torsions:
REMARK  status: ('A' for Active; 'I' for Inactive)
REMARK    1  A    between atoms: C_1  and  O_2
REMARK    2  A    between atoms: O_2  and  C_3
REMARK    3  A    between atoms: C_6  and  C_7
REMARK    4  A    between atoms: C_10  and  C_11
REMARK    5  A    between atoms: C_22  and  O_23
REMARK    6  A    between atoms: O_23  and  C_24
REMARK                            x       y       z     vdW  Elec       q    Type
REMARK                         _______ _______ _______ _____ _____    ______ ____
ROOT
ATOM      1  C   UNL     1      -0.756  10.805  20.531  0.00  0.00    +0.000 C 
ATOM      2  C   UNL     1       0.258   9.945  20.718  0.00  0.00    +0.000 C 
ATOM      3  C   UNL     1       0.876   9.079  19.772  0.00  0.00    +0.000 C 
ATOM      4  C   UNL     1       1.474   8.139  20.491  0.00  0.00    +0.000 C 
ATOM      5  O   UNL     1       1.500   8.371  21.876  0.00  0.00    +0.000 OA
ATOM      6  C   UNL     1       0.803   9.565  22.049  0.00  0.00    +0.000 C 
ATOM      7  O   UNL     1       0.623  10.144  23.103  0.00  0.00    +0.000 OA
ENDROOT
BRANCH   4   8
ATOM      8  C   UNL     1       2.032   6.891  19.948  0.00  0.00    +0.000 A 
ATOM      9  C   UNL     1       1.895   5.672  20.619  0.00  0.00    +0.000 A 
ATOM     10  C   UNL     1       2.462   4.502  20.096  0.00  0.00    +0.000 A 
ATOM     11  C   UNL     1       3.156   4.542  18.886  0.00  0.00    +0.000 A 
ATOM     12 BR   UNL     1       3.960   2.975  18.203  0.00  0.00    +0.000 Br
ATOM     13  C   UNL     1       3.261   5.733  18.179  0.00  0.00    +0.000 A 
ATOM     14  C   UNL     1       2.694   6.894  18.702  0.00  0.00    +0.000 A 
ENDBRANCH   4   8
BRANCH   1  18
ATOM     15  C   UNL     1      -3.126  11.002  16.942  0.00  0.00    +0.000 A 
ATOM     16  C   UNL     1      -1.837  10.434  16.920  0.00  0.00    +0.000 A 
ATOM     17  C   UNL     1      -1.050  10.360  18.080  0.00  0.00    +0.000 A 
ATOM     18  C   UNL     1      -1.517  10.902  19.270  0.00  0.00    +0.000 A 
ATOM     19  C   UNL     1      -2.723  11.620  19.228  0.00  0.00    +0.000 A 
ATOM     20  C   UNL     1      -3.559  11.634  18.109  0.00  0.00    +0.000 A 
BRANCH  15  22
ATOM     21  C   UNL     1      -3.487  10.224  14.733  0.00  0.00    +0.000 C 
ATOM     22  O   UNL     1      -3.950  10.984  15.847  0.00  0.00    +0.000 OA
ENDBRANCH  15  22
BRANCH  20  23
ATOM     23  O   UNL     1      -4.730  12.283  18.385  0.00  0.00    +0.000 OA
ATOM     24  C   UNL     1      -5.058  12.614  19.721  0.00  0.00    +0.000 C 
ENDBRANCH  20  23
ENDBRANCH   1  18
TORSDOF 4
ENDMDL
