MODEL 1
REMARK VINA RESULT:      -7.3      0.000      0.000
REMARK  Name = 
REMARK  7 active torsions:
REMARK  status: ('A' for Active; 'I' for Inactive)
REMARK    1  A    between atoms: C_1  and  C_2
REMARK    2  A    between atoms: C_6  and  S_7
REMARK    3  A    between atoms: S_7  and  N_10
REMARK    4  A    between atoms: N_10  and  C_11
REMARK    5  A    between atoms: C_11  and  C_12
REMARK    6  A    between atoms: C_12  and  N_13
REMARK    7  A    between atoms: C_19  and  C_20
REMARK                            x       y       z     vdW  Elec       q    Type
REMARK                         _______ _______ _______ _____ _____    ______ ____
ROOT
ATOM      1  C   UNL     1       1.346   3.615  18.930  0.00  0.00    +0.000 C 
ENDROOT
BRANCH   1   2
ATOM      2  N   UNL     1       1.901   4.935  18.583  0.00  0.00    +0.000 NA
ATOM      3  H   UNL     1       2.516   4.969  17.767  0.00  0.00    +0.000 HD
BRANCH   2   4
ATOM      4  S   UNL     1       2.555   5.845  19.856  0.00  0.00    +0.000 S 
ATOM      5  O   UNL     1       3.996   5.765  19.771  0.00  0.00    +0.000 OA
ATOM      6  O   UNL     1       1.830   5.455  21.043  0.00  0.00    +0.000 OA
BRANCH   4  12
ATOM      7  C   UNL     1       0.195  10.417  20.987  0.00  0.00    +0.000 C 
ATOM      8  C   UNL     1       0.940   9.568  19.998  0.00  0.00    +0.000 A 
ATOM      9  C   UNL     1       1.223  10.047  18.713  0.00  0.00    +0.000 A 
ATOM     10  C   UNL     1       1.909   9.254  17.789  0.00  0.00    +0.000 A 
ATOM     11  C   UNL     1       2.325   7.974  18.145  0.00  0.00    +0.000 A 
ATOM     12  C   UNL     1       2.053   7.493  19.427  0.00  0.00    +0.000 A 
ATOM     13  C   UNL     1       1.351   8.275  20.350  0.00  0.00    +0.000 A 
ENDBRANCH   4  12
ENDBRANCH   2   4
ENDBRANCH   1   2
BRANCH   1  14
ATOM     14  C   UNL     1       2.467   2.591  19.089  0.00  0.00    +0.000 C 
BRANCH  14  15
ATOM     15  N   UNL     1       3.519   2.805  18.125  0.00  0.00    +0.000 N 
ATOM     16  C   UNL     1       4.759   3.297  18.360  0.00  0.00    +0.000 C 
ATOM     17  N   UNL     1       5.345   3.237  19.505  0.00  0.00    +0.000 NA
ATOM     18  N   UNL     1       5.349   3.863  17.253  0.00  0.00    +0.000 N 
ATOM     19  C   UNL     1       4.542   4.576  16.249  0.00  0.00    +0.000 C 
ATOM     20  C   UNL     1       5.231   4.504  14.891  0.00  0.00    +0.000 C 
ATOM     21  C   UNL     1       6.635   5.108  14.957  0.00  0.00    +0.000 C 
ATOM     22  C   UNL     1       7.346   4.948  13.617  0.00  0.00    +0.000 C 
ATOM     23  C   UNL     1       7.442   4.452  16.085  0.00  0.00    +0.000 C 
ATOM     24  C   UNL     1       6.689   4.459  17.416  0.00  0.00    +0.000 C 
ATOM     25  H   UNL     1       3.405   2.348  17.227  0.00  0.00    +0.000 HD
ATOM     26  H   UNL     1       4.757   2.749  20.174  0.00  0.00    +0.000 HD
ENDBRANCH  14  15
ENDBRANCH   1  14
TORSDOF 5
ENDMDL
MODEL 2
REMARK VINA RESULT:      -7.3      2.024      6.927
REMARK  Name = 
REMARK  7 active torsions:
REMARK  status: ('A' for Active; 'I' for Inactive)
REMARK    1  A    between atoms: C_1  and  C_2
REMARK    2  A    between atoms: C_6  and  S_7
REMARK    3  A    between atoms: S_7  and  N_10
REMARK    4  A    between atoms: N_10  and  C_11
REMARK    5  A    between atoms: C_11  and  C_12
REMARK    6  A    between atoms: C_12  and  N_13
REMARK    7  A    between atoms: C_19  and  C_20
REMARK                            x       y       z     vdW  Elec       q    Type
REMARK                         _______ _______ _______ _____ _____    ______ ____
ROOT
ATOM      1  C   UNL     1       2.399   3.566  20.403  0.00  0.00    +0.000 C 
ENDROOT
BRANCH   1   2
ATOM      2  N   UNL     1       3.607   3.382  19.580  0.00  0.00    +0.000 NA
ATOM      3  H   UNL     1       4.375   4.035  19.748  0.00  0.00    +0.000 HD
BRANCH   2   4
ATOM      4  S   UNL     1       3.369   3.161  17.915  0.00  0.00    +0.000 S 
ATOM      5  O   UNL     1       2.264   3.998  17.506  0.00  0.00    +0.000 OA
ATOM      6  O   UNL     1       3.379   1.734  17.693  0.00  0.00    +0.000 OA
BRANCH   4  12
ATOM      7  C   UNL     1       6.517   4.292  13.846  0.00  0.00    +0.000 C 
ATOM      8  C   UNL     1       6.280   4.311  15.328  0.00  0.00    +0.000 A 
ATOM      9  C   UNL     1       7.247   4.824  16.202  0.00  0.00    +0.000 A 
ATOM     10  C   UNL     1       7.031   4.833  17.582  0.00  0.00    +0.000 A 
ATOM     11  C   UNL     1       5.839   4.335  18.103  0.00  0.00    +0.000 A 
ATOM     12  C   UNL     1       4.867   3.829  17.236  0.00  0.00    +0.000 A 
ATOM     13  C   UNL     1       5.086   3.801  15.855  0.00  0.00    +0.000 A 
ENDBRANCH   4  12
ENDBRANCH   2   4
ENDBRANCH   1   2
BRANCH   1  14
ATOM     14  C   UNL     1       2.530   4.818  21.267  0.00  0.00    +0.000 C 
BRANCH  14  15
ATOM     15  N   UNL     1       1.782   5.922  20.715  0.00  0.00    +0.000 N 
ATOM     16  C   UNL     1       2.198   6.805  19.775  0.00  0.00    +0.000 C 
ATOM     17  N   UNL     1       3.126   6.552  18.919  0.00  0.00    +0.000 NA
ATOM     18  N   UNL     1       1.526   8.005  19.808  0.00  0.00    +0.000 N 
ATOM     19  C   UNL     1       1.064   8.577  21.084  0.00  0.00    +0.000 C 
ATOM     20  C   UNL     1      -0.156   9.457  20.840  0.00  0.00    +0.000 C 
ATOM     21  C   UNL     1       0.167  10.580  19.852  0.00  0.00    +0.000 C 
ATOM     22  C   UNL     1      -1.084  11.398  19.547  0.00  0.00    +0.000 C 
ATOM     23  C   UNL     1       0.765   9.997  18.565  0.00  0.00    +0.000 C 
ATOM     24  C   UNL     1       1.931   9.048  18.845  0.00  0.00    +0.000 C 
ATOM     25  H   UNL     1       0.782   5.914  20.879  0.00  0.00    +0.000 HD
ATOM     26  H   UNL     1       3.464   5.602  19.040  0.00  0.00    +0.000 HD
ENDBRANCH  14  15
ENDBRANCH   1  14
TORSDOF 5
ENDMDL
MODEL 3
REMARK VINA RESULT:      -7.3      2.384      7.446
REMARK  Name = 
REMARK  7 active torsions:
REMARK  status: ('A' for Active; 'I' for Inactive)
REMARK    1  A    between atoms: C_1  and  C_2
REMARK    2  A    between atoms: C_6  and  S_7
REMARK    3  A    between atoms: S_7  and  N_10
REMARK    4  A    between atoms: N_10  and  C_11
REMARK    5  A    between atoms: C_11  and  C_12
REMARK    6  A    between atoms: C_12  and  N_13
REMARK    7  A    between atoms: C_19  and  C_20
REMARK                            x       y       z     vdW  Elec       q    Type
REMARK                         _______ _______ _______ _____ _____    ______ ____
ROOT
ATOM      1  C   UNL     1       1.974   4.502  20.413  0.00  0.00    +0.000 C 
ENDROOT
BRANCH   1   2
ATOM      2  N   UNL     1       2.176   3.937  19.067  0.00  0.00    +0.000 NA
ATOM      3  H   UNL     1       1.358   3.509  18.627  0.00  0.00    +0.000 HD
BRANCH   2   4
ATOM      4  S   UNL     1       3.546   2.962  18.847  0.00  0.00    +0.000 S 
ATOM      5  O   UNL     1       3.210   1.926  17.897  0.00  0.00    +0.000 OA
ATOM      6  O   UNL     1       4.044   2.664  20.170  0.00  0.00    +0.000 OA
BRANCH   4  12
ATOM      7  C   UNL     1       7.850   5.997  18.946  0.00  0.00    +0.000 C 
ATOM      8  C   UNL     1       6.663   5.480  18.188  0.00  0.00    +0.000 A 
ATOM      9  C   UNL     1       6.412   5.900  16.875  0.00  0.00    +0.000 A 
ATOM     10  C   UNL     1       5.302   5.426  16.172  0.00  0.00    +0.000 A 
ATOM     11  C   UNL     1       4.433   4.519  16.773  0.00  0.00    +0.000 A 
ATOM     12  C   UNL     1       4.682   4.089  18.078  0.00  0.00    +0.000 A 
ATOM     13  C   UNL     1       5.781   4.574  18.794  0.00  0.00    +0.000 A 
ENDBRANCH   4  12
ENDBRANCH   2   4
ENDBRANCH   1   2
BRANCH   1  14
ATOM     14  C   UNL     1       2.607   5.889  20.507  0.00  0.00    +0.000 C 
BRANCH  14  15
ATOM     15  N   UNL     1       1.616   6.905  20.766  0.00  0.00    +0.000 N 
ATOM     16  C   UNL     1       1.494   8.107  20.152  0.00  0.00    +0.000 C 
ATOM     17  N   UNL     1       1.943   8.353  18.971  0.00  0.00    +0.000 NA
ATOM     18  N   UNL     1       0.831   9.048  20.905  0.00  0.00    +0.000 N 
ATOM     19  C   UNL     1       0.964   9.073  22.371  0.00  0.00    +0.000 C 
ATOM     20  C   UNL     1      -0.290   9.678  22.991  0.00  0.00    +0.000 C 
ATOM     21  C   UNL     1      -0.533  11.095  22.464  0.00  0.00    +0.000 C 
ATOM     22  C   UNL     1      -1.838  11.654  23.022  0.00  0.00    +0.000 C 
ATOM     23  C   UNL     1      -0.550  11.094  20.931  0.00  0.00    +0.000 C 
ATOM     24  C   UNL     1       0.677  10.402  20.337  0.00  0.00    +0.000 C 
ATOM     25  H   UNL     1       0.804   6.616  21.300  0.00  0.00    +0.000 HD
ATOM     26  H   UNL     1       2.364   7.519  18.575  0.00  0.00    +0.000 HD
ENDBRANCH  14  15
ENDBRANCH   1  14
TORSDOF 5
ENDMDL
MODEL 4
REMARK VINA RESULT:      -7.3      2.352      7.778
REMARK  Name = 
REMARK  7 active torsions:
REMARK  status: ('A' for Active; 'I' for Inactive)
REMARK    1  A    between atoms: C_1  and  C_2
REMARK    2  A    between atoms: C_6  and  S_7
REMARK    3  A    between atoms: S_7  and  N_10
REMARK    4  A    between atoms: N_10  and  C_11
REMARK    5  A    between atoms: C_11  and  C_12
REMARK    6  A    between atoms: C_12  and  N_13
REMARK    7  A    between atoms: C_19  and  C_20
REMARK                            x       y       z     vdW  Elec       q    Type
REMARK                         _______ _______ _______ _____ _____    ______ ____
ROOT
ATOM      1  C   UNL     1       1.843   4.671  19.997  0.00  0.00    +0.000 C 
ENDROOT
BRANCH   1   2
ATOM      2  N   UNL     1       2.138   4.652  18.553  0.00  0.00    +0.000 NA
ATOM      3  H   UNL     1       1.368   4.905  17.929  0.00  0.00    +0.000 HD
BRANCH   2   4
ATOM      4  S   UNL     1       2.960   3.293  17.961  0.00  0.00    +0.000 S 
ATOM      5  O   UNL     1       2.329   2.890  16.724  0.00  0.00    +0.000 OA
ATOM      6  O   UNL     1       3.106   2.392  19.080  0.00  0.00    +0.000 OA
BRANCH   4  12
ATOM      7  C   UNL     1       6.768   4.592  14.560  0.00  0.00    +0.000 C 
ATOM      8  C   UNL     1       6.283   4.525  15.979  0.00  0.00    +0.000 A 
ATOM      9  C   UNL     1       7.096   4.958  17.035  0.00  0.00    +0.000 A 
ATOM     10  C   UNL     1       6.649   4.888  18.356  0.00  0.00    +0.000 A 
ATOM     11  C   UNL     1       5.379   4.389  18.636  0.00  0.00    +0.000 A 
ATOM     12  C   UNL     1       4.561   3.963  17.588  0.00  0.00    +0.000 A 
ATOM     13  C   UNL     1       5.010   4.014  16.264  0.00  0.00    +0.000 A 
ENDBRANCH   4  12
ENDBRANCH   2   4
ENDBRANCH   1   2
BRANCH   1  14
ATOM     14  C   UNL     1       2.484   5.890  20.655  0.00  0.00    +0.000 C 
BRANCH  14  15
ATOM     15  N   UNL     1       1.519   6.938  20.880  0.00  0.00    +0.000 N 
ATOM     16  C   UNL     1       1.450   8.139  20.257  0.00  0.00    +0.000 C 
ATOM     17  N   UNL     1       1.938   8.363  19.086  0.00  0.00    +0.000 NA
ATOM     18  N   UNL     1       0.797   9.105  20.985  0.00  0.00    +0.000 N 
ATOM     19  C   UNL     1       0.892   9.136  22.454  0.00  0.00    +0.000 C 
ATOM     20  C   UNL     1      -0.359   9.784  23.037  0.00  0.00    +0.000 C 
ATOM     21  C   UNL     1      -0.543  11.203  22.495  0.00  0.00    +0.000 C 
ATOM     22  C   UNL     1      -1.845  11.806  23.015  0.00  0.00    +0.000 C 
ATOM     23  C   UNL     1      -0.521  11.192  20.962  0.00  0.00    +0.000 C 
ATOM     24  C   UNL     1       0.700  10.459  20.405  0.00  0.00    +0.000 C 
ATOM     25  H   UNL     1       0.684   6.677  21.394  0.00  0.00    +0.000 HD
ATOM     26  H   UNL     1       2.343   7.513  18.707  0.00  0.00    +0.000 HD
ENDBRANCH  14  15
ENDBRANCH   1  14
TORSDOF 5
ENDMDL
MODEL 5
REMARK VINA RESULT:      -7.2      2.143      2.981
REMARK  Name = 
REMARK  7 active torsions:
REMARK  status: ('A' for Active; 'I' for Inactive)
REMARK    1  A    between atoms: C_1  and  C_2
REMARK    2  A    between atoms: C_6  and  S_7
REMARK    3  A    between atoms: S_7  and  N_10
REMARK    4  A    between atoms: N_10  and  C_11
REMARK    5  A    between atoms: C_11  and  C_12
REMARK    6  A    between atoms: C_12  and  N_13
REMARK    7  A    between atoms: C_19  and  C_20
REMARK                            x       y       z     vdW  Elec       q    Type
REMARK                         _______ _______ _______ _____ _____    ______ ____
ROOT
ATOM      1  C   UNL     1       3.389   1.851  19.801  0.00  0.00    +0.000 C 
ENDROOT
BRANCH   1   2
ATOM      2  N   UNL     1       2.835   3.144  20.238  0.00  0.00    +0.000 NA
ATOM      3  H   UNL     1       2.722   3.273  21.246  0.00  0.00    +0.000 HD
BRANCH   2   4
ATOM      4  S   UNL     1       1.465   3.705  19.411  0.00  0.00    +0.000 S 
ATOM      5  O   UNL     1       0.307   3.454  20.240  0.00  0.00    +0.000 OA
ATOM      6  O   UNL     1       1.572   3.196  18.064  0.00  0.00    +0.000 OA
BRANCH   4  12
ATOM      7  C   UNL     1       1.351   8.495  21.600  0.00  0.00    +0.000 C 
ATOM      8  C   UNL     1       1.665   7.635  20.410  0.00  0.00    +0.000 A 
ATOM      9  C   UNL     1       2.160   8.201  19.228  0.00  0.00    +0.000 A 
ATOM     10  C   UNL     1       2.444   7.403  18.117  0.00  0.00    +0.000 A 
ATOM     11  C   UNL     1       2.242   6.026  18.179  0.00  0.00    +0.000 A 
ATOM     12  C   UNL     1       1.755   5.455  19.357  0.00  0.00    +0.000 A 
ATOM     13  C   UNL     1       1.452   6.251  20.467  0.00  0.00    +0.000 A 
ENDBRANCH   4  12
ENDBRANCH   2   4
ENDBRANCH   1   2
BRANCH   1  14
ATOM     14  C   UNL     1       4.883   1.982  19.515  0.00  0.00    +0.000 C 
BRANCH  14  15
ATOM     15  N   UNL     1       5.250   3.349  19.235  0.00  0.00    +0.000 N 
ATOM     16  C   UNL     1       5.145   4.001  18.052  0.00  0.00    +0.000 C 
ATOM     17  N   UNL     1       4.315   3.668  17.126  0.00  0.00    +0.000 NA
ATOM     18  N   UNL     1       6.004   5.068  17.930  0.00  0.00    +0.000 N 
ATOM     19  C   UNL     1       7.343   5.033  18.541  0.00  0.00    +0.000 C 
ATOM     20  C   UNL     1       7.800   6.452  18.859  0.00  0.00    +0.000 C 
ATOM     21  C   UNL     1       7.824   7.316  17.596  0.00  0.00    +0.000 C 
ATOM     22  C   UNL     1       8.195   8.755  17.943  0.00  0.00    +0.000 C 
ATOM     23  C   UNL     1       6.465   7.258  16.888  0.00  0.00    +0.000 C 
ATOM     24  C   UNL     1       5.990   5.822  16.661  0.00  0.00    +0.000 C 
ATOM     25  H   UNL     1       5.397   3.949  20.040  0.00  0.00    +0.000 HD
ATOM     26  H   UNL     1       3.749   2.881  17.428  0.00  0.00    +0.000 HD
ENDBRANCH  14  15
ENDBRANCH   1  14
TORSDOF 5
ENDMDL
MODEL 6
REMARK VINA RESULT:      -7.2      1.482      2.065
REMARK  Name = 
REMARK  7 active torsions:
REMARK  status: ('A' for Active; 'I' for Inactive)
REMARK    1  A    between atoms: C_1  and  C_2
REMARK    2  A    between atoms: C_6  and  S_7
REMARK    3  A    between atoms: S_7  and  N_10
REMARK    4  A    between atoms: N_10  and  C_11
REMARK    5  A    between atoms: C_11  and  C_12
REMARK    6  A    between atoms: C_12  and  N_13
REMARK    7  A    between atoms: C_19  and  C_20
REMARK                            x       y       z     vdW  Elec       q    Type
REMARK                         _______ _______ _______ _____ _____    ______ ____
ROOT
ATOM      1  C   UNL     1       3.164   4.291  20.091  0.00  0.00    +0.000 C 
ENDROOT
BRANCH   1   2
ATOM      2  N   UNL     1       3.587   5.687  19.883  0.00  0.00    +0.000 NA
ATOM      3  H   UNL     1       3.618   6.281  20.715  0.00  0.00    +0.000 HD
BRANCH   2   4
ATOM      4  S   UNL     1       2.871   6.516  18.588  0.00  0.00    +0.000 S 
ATOM      5  O   UNL     1       1.943   5.618  17.940  0.00  0.00    +0.000 OA
ATOM      6  O   UNL     1       3.951   7.155  17.874  0.00  0.00    +0.000 OA
BRANCH   4  12
ATOM      7  C   UNL     1       0.592  11.263  18.739  0.00  0.00    +0.000 C 
ATOM      8  C   UNL     1       0.930   9.979  19.440  0.00  0.00    +0.000 A 
ATOM      9  C   UNL     1       0.553   9.769  20.773  0.00  0.00    +0.000 A 
ATOM     10  C   UNL     1       0.874   8.579  21.429  0.00  0.00    +0.000 A 
ATOM     11  C   UNL     1       1.574   7.580  20.755  0.00  0.00    +0.000 A 
ATOM     12  C   UNL     1       1.947   7.780  19.424  0.00  0.00    +0.000 A 
ATOM     13  C   UNL     1       1.643   8.977  18.767  0.00  0.00    +0.000 A 
ENDBRANCH   4  12
ENDBRANCH   2   4
ENDBRANCH   1   2
BRANCH   1  14
ATOM     14  C   UNL     1       4.376   3.362  20.087  0.00  0.00    +0.000 C 
BRANCH  14  15
ATOM     15  N   UNL     1       5.067   3.401  18.821  0.00  0.00    +0.000 N 
ATOM     16  C   UNL     1       5.941   4.343  18.391  0.00  0.00    +0.000 C 
ATOM     17  N   UNL     1       6.625   5.094  19.183  0.00  0.00    +0.000 NA
ATOM     18  N   UNL     1       6.044   4.419  17.022  0.00  0.00    +0.000 N 
ATOM     19  C   UNL     1       4.875   4.171  16.162  0.00  0.00    +0.000 C 
ATOM     20  C   UNL     1       5.337   3.655  14.804  0.00  0.00    +0.000 C 
ATOM     21  C   UNL     1       6.279   4.655  14.129  0.00  0.00    +0.000 C 
ATOM     22  C   UNL     1       6.805   4.087  12.814  0.00  0.00    +0.000 C 
ATOM     23  C   UNL     1       7.436   5.011  15.071  0.00  0.00    +0.000 C 
ATOM     24  C   UNL     1       6.947   5.440  16.454  0.00  0.00    +0.000 C 
ATOM     25  H   UNL     1       5.072   2.540  18.286  0.00  0.00    +0.000 HD
ATOM     26  H   UNL     1       6.430   4.854  20.150  0.00  0.00    +0.000 HD
ENDBRANCH  14  15
ENDBRANCH   1  14
TORSDOF 5
ENDMDL
MODEL 7
REMARK VINA RESULT:      -7.2      2.505      8.195
REMARK  Name = 
REMARK  7 active torsions:
REMARK  status: ('A' for Active; 'I' for Inactive)
REMARK    1  A    between atoms: C_1  and  C_2
REMARK    2  A    between atoms: C_6  and  S_7
REMARK    3  A    between atoms: S_7  and  N_10
REMARK    4  A    between atoms: N_10  and  C_11
REMARK    5  A    between atoms: C_11  and  C_12
REMARK    6  A    between atoms: C_12  and  N_13
REMARK    7  A    between atoms: C_19  and  C_20
REMARK                            x       y       z     vdW  Elec       q    Type
REMARK                         _______ _______ _______ _____ _____    ______ ____
ROOT
ATOM      1  C   UNL     1       2.517   6.148  19.240  0.00  0.00    +0.000 C 
ENDROOT
BRANCH   1   2
ATOM      2  N   UNL     1       2.261   5.293  18.068  0.00  0.00    +0.000 NA
ATOM      3  H   UNL     1       1.290   5.228  17.756  0.00  0.00    +0.000 HD
BRANCH   2   4
ATOM      4  S   UNL     1       2.989   3.762  18.068  0.00  0.00    +0.000 S 
ATOM      5  O   UNL     1       2.300   2.938  17.100  0.00  0.00    +0.000 OA
ATOM      6  O   UNL     1       3.117   3.377  19.454  0.00  0.00    +0.000 OA
BRANCH   4  12
ATOM      7  C   UNL     1       6.442   4.285  14.124  0.00  0.00    +0.000 C 
ATOM      8  C   UNL     1       6.160   4.334  15.598  0.00  0.00    +0.000 A 
ATOM      9  C   UNL     1       7.178   4.634  16.512  0.00  0.00    +0.000 A 
ATOM     10  C   UNL     1       6.920   4.672  17.884  0.00  0.00    +0.000 A 
ATOM     11  C   UNL     1       5.635   4.416  18.357  0.00  0.00    +0.000 A 
ATOM     12  C   UNL     1       4.613   4.124  17.450  0.00  0.00    +0.000 A 
ATOM     13  C   UNL     1       4.870   4.067  16.076  0.00  0.00    +0.000 A 
ENDBRANCH   4  12
ENDBRANCH   2   4
ENDBRANCH   1   2
BRANCH   1  14
ATOM     14  C   UNL     1       2.541   7.619  18.831  0.00  0.00    +0.000 C 
BRANCH  14  15
ATOM     15  N   UNL     1       1.469   8.357  19.453  0.00  0.00    +0.000 N 
ATOM     16  C   UNL     1       1.026   9.594  19.122  0.00  0.00    +0.000 C 
ATOM     17  N   UNL     1       1.176  10.117  17.955  0.00  0.00    +0.000 NA
ATOM     18  N   UNL     1       0.384  10.246  20.150  0.00  0.00    +0.000 N 
ATOM     19  C   UNL     1       0.808  10.055  21.546  0.00  0.00    +0.000 C 
ATOM     20  C   UNL     1      -0.375  10.285  22.479  0.00  0.00    +0.000 C 
ATOM     21  C   UNL     1      -0.952  11.690  22.296  0.00  0.00    +0.000 C 
ATOM     22  C   UNL     1      -2.190  11.875  23.169  0.00  0.00    +0.000 C 
ATOM     23  C   UNL     1      -1.284  11.939  20.819  0.00  0.00    +0.000 C 
ATOM     24  C   UNL     1      -0.106  11.615  19.899  0.00  0.00    +0.000 C 
ATOM     25  H   UNL     1       0.844   7.827  20.049  0.00  0.00    +0.000 HD
ATOM     26  H   UNL     1       1.640   9.461  17.334  0.00  0.00    +0.000 HD
ENDBRANCH  14  15
ENDBRANCH   1  14
TORSDOF 5
ENDMDL
MODEL 8
REMARK VINA RESULT:      -7.2      1.470      1.755
REMARK  Name = 
REMARK  7 active torsions:
REMARK  status: ('A' for Active; 'I' for Inactive)
REMARK    1  A    between atoms: C_1  and  C_2
REMARK    2  A    between atoms: C_6  and  S_7
REMARK    3  A    between atoms: S_7  and  N_10
REMARK    4  A    between atoms: N_10  and  C_11
REMARK    5  A    between atoms: C_11  and  C_12
REMARK    6  A    between atoms: C_12  and  N_13
REMARK    7  A    between atoms: C_19  and  C_20
REMARK                            x       y       z     vdW  Elec       q    Type
REMARK                         _______ _______ _______ _____ _____    ______ ____
ROOT
ATOM      1  C   UNL     1       2.753   4.595  20.182  0.00  0.00    +0.000 C 
ENDROOT
BRANCH   1   2
ATOM      2  N   UNL     1       3.281   5.955  19.974  0.00  0.00    +0.000 NA
ATOM      3  H   UNL     1       3.248   6.583  20.780  0.00  0.00    +0.000 HD
BRANCH   2   4
ATOM      4  S   UNL     1       2.774   6.762  18.572  0.00  0.00    +0.000 S 
ATOM      5  O   UNL     1       1.851   5.901  17.867  0.00  0.00    +0.000 OA
ATOM      6  O   UNL     1       3.971   7.280  17.951  0.00  0.00    +0.000 OA
BRANCH   4  12
ATOM      7  C   UNL     1       0.376   9.235  22.557  0.00  0.00    +0.000 C 
ATOM      8  C   UNL     1       0.768   9.217  21.108  0.00  0.00    +0.000 A 
ATOM      9  C   UNL     1       0.400  10.264  20.253  0.00  0.00    +0.000 A 
ATOM     10  C   UNL     1       0.756  10.245  18.903  0.00  0.00    +0.000 A 
ATOM     11  C   UNL     1       1.493   9.178  18.393  0.00  0.00    +0.000 A 
ATOM     12  C   UNL     1       1.869   8.135  19.242  0.00  0.00    +0.000 A 
ATOM     13  C   UNL     1       1.500   8.140  20.591  0.00  0.00    +0.000 A 
ENDBRANCH   4  12
ENDBRANCH   2   4
ENDBRANCH   1   2
BRANCH   1  14
ATOM     14  C   UNL     1       3.898   3.587  20.261  0.00  0.00    +0.000 C 
BRANCH  14  15
ATOM     15  N   UNL     1       4.653   3.549  19.033  0.00  0.00    +0.000 N 
ATOM     16  C   UNL     1       5.656   4.380  18.660  0.00  0.00    +0.000 C 
ATOM     17  N   UNL     1       6.383   5.038  19.495  0.00  0.00    +0.000 NA
ATOM     18  N   UNL     1       5.840   4.452  17.299  0.00  0.00    +0.000 N 
ATOM     19  C   UNL     1       4.696   4.353  16.377  0.00  0.00    +0.000 C 
ATOM     20  C   UNL     1       5.162   3.793  15.039  0.00  0.00    +0.000 C 
ATOM     21  C   UNL     1       6.253   4.675  14.426  0.00  0.00    +0.000 C 
ATOM     22  C   UNL     1       6.774   4.055  13.132  0.00  0.00    +0.000 C 
ATOM     23  C   UNL     1       7.393   4.882  15.430  0.00  0.00    +0.000 C 
ATOM     24  C   UNL     1       6.888   5.359  16.791  0.00  0.00    +0.000 C 
ATOM     25  H   UNL     1       4.583   2.697  18.488  0.00  0.00    +0.000 HD
ATOM     26  H   UNL     1       6.111   4.817  20.448  0.00  0.00    +0.000 HD
ENDBRANCH  14  15
ENDBRANCH   1  14
TORSDOF 5
ENDMDL
MODEL 9
REMARK VINA RESULT:      -7.2      2.476      7.667
REMARK  Name = 
REMARK  7 active torsions:
REMARK  status: ('A' for Active; 'I' for Inactive)
REMARK    1  A    between atoms: C_1  and  C_2
REMARK    2  A    between atoms: C_6  and  S_7
REMARK    3  A    between atoms: S_7  and  N_10
REMARK    4  A    between atoms: N_10  and  C_11
REMARK    5  A    between atoms: C_11  and  C_12
REMARK    6  A    between atoms: C_12  and  N_13
REMARK    7  A    between atoms: C_19  and  C_20
REMARK                            x       y       z     vdW  Elec       q    Type
REMARK                         _______ _______ _______ _____ _____    ______ ____
ROOT
ATOM      1  C   UNL     1       2.417   5.451  19.089  0.00  0.00    +0.000 C 
ENDROOT
BRANCH   1   2
ATOM      2  N   UNL     1       3.354   4.612  19.856  0.00  0.00    +0.000 NA
ATOM      3  H   UNL     1       4.009   5.105  20.467  0.00  0.00    +0.000 HD
BRANCH   2   4
ATOM      4  S   UNL     1       4.150   3.382  19.003  0.00  0.00    +0.000 S 
ATOM      5  O   UNL     1       3.179   2.722  18.159  0.00  0.00    +0.000 OA
ATOM      6  O   UNL     1       4.941   2.664  19.975  0.00  0.00    +0.000 OA
BRANCH   4  12
ATOM      7  C   UNL     1       7.929   6.988  18.322  0.00  0.00    +0.000 C 
ATOM      8  C   UNL     1       6.988   5.986  17.718  0.00  0.00    +0.000 A 
ATOM      9  C   UNL     1       6.947   5.786  16.332  0.00  0.00    +0.000 A 
ATOM     10  C   UNL     1       6.066   4.860  15.769  0.00  0.00    +0.000 A 
ATOM     11  C   UNL     1       5.219   4.117  16.589  0.00  0.00    +0.000 A 
ATOM     12  C   UNL     1       5.261   4.306  17.972  0.00  0.00    +0.000 A 
ATOM     13  C   UNL     1       6.128   5.245  18.540  0.00  0.00    +0.000 A 
ENDBRANCH   4  12
ENDBRANCH   2   4
ENDBRANCH   1   2
BRANCH   1  14
ATOM     14  C   UNL     1       2.833   6.918  19.163  0.00  0.00    +0.000 C 
BRANCH  14  15
ATOM     15  N   UNL     1       1.778   7.740  19.707  0.00  0.00    +0.000 N 
ATOM     16  C   UNL     1       1.451   9.002  19.340  0.00  0.00    +0.000 C 
ATOM     17  N   UNL     1       1.718   9.500  18.183  0.00  0.00    +0.000 NA
ATOM     18  N   UNL     1       0.790   9.709  20.317  0.00  0.00    +0.000 N 
ATOM     19  C   UNL     1       1.105   9.502  21.741  0.00  0.00    +0.000 C 
ATOM     20  C   UNL     1      -0.119   9.828  22.590  0.00  0.00    +0.000 C 
ATOM     21  C   UNL     1      -0.578  11.269  22.360  0.00  0.00    +0.000 C 
ATOM     22  C   UNL     1      -1.855  11.553  23.145  0.00  0.00    +0.000 C 
ATOM     23  C   UNL     1      -0.789  11.526  20.863  0.00  0.00    +0.000 C 
ATOM     24  C   UNL     1       0.421  11.108  20.026  0.00  0.00    +0.000 C 
ATOM     25  H   UNL     1       1.077   7.262  20.261  0.00  0.00    +0.000 HD
ATOM     26  H   UNL     1       2.173   8.806  17.599  0.00  0.00    +0.000 HD
ENDBRANCH  14  15
ENDBRANCH   1  14
TORSDOF 5
ENDMDL
