MODEL 1
REMARK VINA RESULT:      -9.8      0.000      0.000
REMARK  Name = 
REMARK  11 active torsions:
REMARK  status: ('A' for Active; 'I' for Inactive)
REMARK    1  A    between atoms: C_1  and  O_2
REMARK    2  A    between atoms: O_2  and  C_3
REMARK    3  A    between atoms: C_6  and  C_7
REMARK    4  A    between atoms: C_7  and  C_8
REMARK    5  A    between atoms: C_8  and  C_9
REMARK    6  A    between atoms: C_9  and  N_10
REMARK    7  A    between atoms: C_13  and  N_14
REMARK    8  A    between atoms: N_14  and  C_15
REMARK    9  A    between atoms: C_15  and  C_16
REMARK   10  A    between atoms: C_16  and  C_17
REMARK   11  A    between atoms: C_24  and  C_26
REMARK                            x       y       z     vdW  Elec       q    Type
REMARK                         _______ _______ _______ _____ _____    ______ ____
ROOT
ATOM      1  N   UNL     1       4.335   4.778  17.778  0.00  0.00    +0.000 N 
ATOM      2  C   UNL     1       3.709   3.498  17.951  0.00  0.00    +0.000 C 
ATOM      3  O   UNL     1       3.742   2.596  17.126  0.00  0.00    +0.000 OA
ENDROOT
BRANCH   1   7
ATOM      4  N   UNL     1       7.361   6.680  17.156  0.00  0.00    +0.000 NA
ATOM      5  C   UNL     1       7.360   5.212  17.304  0.00  0.00    +0.000 C 
ATOM      6  C   UNL     1       6.441   4.548  16.266  0.00  0.00    +0.000 C 
ATOM      7  C   UNL     1       4.977   5.050  16.427  0.00  0.00    +0.000 C 
ATOM      8  C   UNL     1       5.137   6.523  16.047  0.00  0.00    +0.000 C 
ATOM      9  C   UNL     1       5.998   7.224  17.091  0.00  0.00    +0.000 C 
BRANCH   4  10
ATOM     10  C   UNL     1       8.119   7.319  18.253  0.00  0.00    +0.000 C 
BRANCH  10  11
ATOM     11  C   UNL     1       8.271   8.820  17.983  0.00  0.00    +0.000 C 
BRANCH  11  12
ATOM     12  C   UNL     1       8.957   9.584  19.103  0.00  0.00    +0.000 C 
BRANCH  12  16
ATOM     13  C   UNL     1      10.392  13.368  17.596  0.00  0.00    +0.000 A 
ATOM     14  C   UNL     1      11.256  12.518  18.288  0.00  0.00    +0.000 A 
ATOM     15  C   UNL     1      10.804  11.282  18.758  0.00  0.00    +0.000 A 
ATOM     16  C   UNL     1       9.477  10.888  18.546  0.00  0.00    +0.000 A 
ATOM     17  C   UNL     1       8.605  11.764  17.892  0.00  0.00    +0.000 A 
ATOM     18  C   UNL     1       9.061  12.994  17.417  0.00  0.00    +0.000 A 
BRANCH  13  20
ATOM     19  C   UNL     1      11.519  15.344  18.204  0.00  0.00    +0.000 C 
ATOM     20  O   UNL     1      10.936  14.550  17.176  0.00  0.00    +0.000 OA
ENDBRANCH  13  20
ENDBRANCH  12  16
ENDBRANCH  11  12
ENDBRANCH  10  11
ENDBRANCH   4  10
ENDBRANCH   1   7
BRANCH   2  21
ATOM     21  C   UNL     1       2.997   3.119  19.209  0.00  0.00    +0.000 A 
ATOM     22  C   UNL     1       3.660   2.825  20.398  0.00  0.00    +0.000 A 
ATOM     23  C   UNL     1       2.945   2.498  21.546  0.00  0.00    +0.000 A 
ATOM     24  C   UNL     1       1.557   2.570  21.547  0.00  0.00    +0.000 A 
ATOM     25  C   UNL     1       0.878   2.953  20.390  0.00  0.00    +0.000 A 
ATOM     26  C   UNL     1       1.592   3.211  19.217  0.00  0.00    +0.000 A 
ENDBRANCH   2  21
BRANCH   1  27
ATOM     27  C   UNL     1       4.029   5.866  18.760  0.00  0.00    +0.000 C 
BRANCH  27  28
ATOM     28  C   UNL     1       2.623   6.198  19.279  0.00  0.00    +0.000 C 
BRANCH  28  29
ATOM     29  C   UNL     1       2.206   7.648  19.176  0.00  0.00    +0.000 A 
ATOM     30  C   UNL     1       2.319   8.337  17.957  0.00  0.00    +0.000 A 
ATOM     31  C   UNL     1       1.764   9.610  17.807  0.00  0.00    +0.000 A 
ATOM     32  C   UNL     1       1.089  10.199  18.873  0.00  0.00    +0.000 A 
ATOM     33 CL   UNL     1       0.341  11.735  18.666  0.00  0.00    +0.000 Cl
ATOM     34  C   UNL     1       0.989   9.541  20.097  0.00  0.00    +0.000 A 
ATOM     35  C   UNL     1       1.544   8.270  20.248  0.00  0.00    +0.000 A 
ENDBRANCH  28  29
ENDBRANCH  27  28
ENDBRANCH   1  27
TORSDOF 10
ENDMDL
MODEL 2
REMARK VINA RESULT:      -9.7      0.370      1.195
REMARK  Name = 
REMARK  11 active torsions:
REMARK  status: ('A' for Active; 'I' for Inactive)
REMARK    1  A    between atoms: C_1  and  O_2
REMARK    2  A    between atoms: O_2  and  C_3
REMARK    3  A    between atoms: C_6  and  C_7
REMARK    4  A    between atoms: C_7  and  C_8
REMARK    5  A    between atoms: C_8  and  C_9
REMARK    6  A    between atoms: C_9  and  N_10
REMARK    7  A    between atoms: C_13  and  N_14
REMARK    8  A    between atoms: N_14  and  C_15
REMARK    9  A    between atoms: C_15  and  C_16
REMARK   10  A    between atoms: C_16  and  C_17
REMARK   11  A    between atoms: C_24  and  C_26
REMARK                            x       y       z     vdW  Elec       q    Type
REMARK                         _______ _______ _______ _____ _____    ______ ____
ROOT
ATOM      1  N   UNL     1       4.381   4.804  17.801  0.00  0.00    +0.000 N 
ATOM      2  C   UNL     1       3.668   3.574  17.993  0.00  0.00    +0.000 C 
ATOM      3  O   UNL     1       3.723   2.616  17.233  0.00  0.00    +0.000 OA
ENDROOT
BRANCH   1   7
ATOM      4  N   UNL     1       7.481   6.627  17.321  0.00  0.00    +0.000 NA
ATOM      5  C   UNL     1       7.444   5.178  17.599  0.00  0.00    +0.000 C 
ATOM      6  C   UNL     1       6.625   4.427  16.537  0.00  0.00    +0.000 C 
ATOM      7  C   UNL     1       5.160   4.948  16.503  0.00  0.00    +0.000 C 
ATOM      8  C   UNL     1       5.378   6.381  16.011  0.00  0.00    +0.000 C 
ATOM      9  C   UNL     1       6.139   7.169  17.069  0.00  0.00    +0.000 C 
BRANCH   4  10
ATOM     10  C   UNL     1       8.134   7.359  18.427  0.00  0.00    +0.000 C 
BRANCH  10  11
ATOM     11  C   UNL     1       8.330   8.829  18.042  0.00  0.00    +0.000 C 
BRANCH  11  12
ATOM     12  C   UNL     1       8.881   9.695  19.162  0.00  0.00    +0.000 C 
BRANCH  12  16
ATOM     13  C   UNL     1      10.798  13.095  17.316  0.00  0.00    +0.000 A 
ATOM     14  C   UNL     1       9.409  13.062  17.447  0.00  0.00    +0.000 A 
ATOM     15  C   UNL     1       8.784  11.975  18.064  0.00  0.00    +0.000 A 
ATOM     16  C   UNL     1       9.546  10.905  18.551  0.00  0.00    +0.000 A 
ATOM     17  C   UNL     1      10.933  10.923  18.375  0.00  0.00    +0.000 A 
ATOM     18  C   UNL     1      11.555  12.013  17.765  0.00  0.00    +0.000 A 
BRANCH  13  20
ATOM     19  C   UNL     1      10.705  15.436  17.083  0.00  0.00    +0.000 C 
ATOM     20  O   UNL     1      11.308  14.205  16.700  0.00  0.00    +0.000 OA
ENDBRANCH  13  20
ENDBRANCH  12  16
ENDBRANCH  11  12
ENDBRANCH  10  11
ENDBRANCH   4  10
ENDBRANCH   1   7
BRANCH   2  21
ATOM     21  C   UNL     1       2.822   3.319  19.198  0.00  0.00    +0.000 A 
ATOM     22  C   UNL     1       1.429   3.357  19.169  0.00  0.00    +0.000 A 
ATOM     23  C   UNL     1       0.689   3.091  20.318  0.00  0.00    +0.000 A 
ATOM     24  C   UNL     1       1.330   2.677  21.479  0.00  0.00    +0.000 A 
ATOM     25  C   UNL     1       2.718   2.544  21.501  0.00  0.00    +0.000 A 
ATOM     26  C   UNL     1       3.467   2.880  20.369  0.00  0.00    +0.000 A 
ENDBRANCH   2  21
BRANCH   1  27
ATOM     27  C   UNL     1       4.051   5.971  18.679  0.00  0.00    +0.000 C 
BRANCH  27  28
ATOM     28  C   UNL     1       2.652   6.271  19.234  0.00  0.00    +0.000 C 
BRANCH  28  29
ATOM     29  C   UNL     1       2.211   7.717  19.166  0.00  0.00    +0.000 A 
ATOM     30  C   UNL     1       2.337   8.445  17.971  0.00  0.00    +0.000 A 
ATOM     31  C   UNL     1       1.762   9.712  17.848  0.00  0.00    +0.000 A 
ATOM     32  C   UNL     1       1.055  10.256  18.917  0.00  0.00    +0.000 A 
ATOM     33 CL   UNL     1       0.283  11.784  18.741  0.00  0.00    +0.000 Cl
ATOM     34  C   UNL     1       0.941   9.559  20.117  0.00  0.00    +0.000 A 
ATOM     35  C   UNL     1       1.516   8.294  20.242  0.00  0.00    +0.000 A 
ENDBRANCH  28  29
ENDBRANCH  27  28
ENDBRANCH   1  27
TORSDOF 10
ENDMDL
MODEL 3
REMARK VINA RESULT:      -9.7      0.848      1.193
REMARK  Name = 
REMARK  11 active torsions:
REMARK  status: ('A' for Active; 'I' for Inactive)
REMARK    1  A    between atoms: C_1  and  O_2
REMARK    2  A    between atoms: O_2  and  C_3
REMARK    3  A    between atoms: C_6  and  C_7
REMARK    4  A    between atoms: C_7  and  C_8
REMARK    5  A    between atoms: C_8  and  C_9
REMARK    6  A    between atoms: C_9  and  N_10
REMARK    7  A    between atoms: C_13  and  N_14
REMARK    8  A    between atoms: N_14  and  C_15
REMARK    9  A    between atoms: C_15  and  C_16
REMARK   10  A    between atoms: C_16  and  C_17
REMARK   11  A    between atoms: C_24  and  C_26
REMARK                            x       y       z     vdW  Elec       q    Type
REMARK                         _______ _______ _______ _____ _____    ______ ____
ROOT
ATOM      1  N   UNL     1       3.972   4.720  17.361  0.00  0.00    +0.000 N 
ATOM      2  C   UNL     1       3.811   3.398  17.895  0.00  0.00    +0.000 C 
ATOM      3  O   UNL     1       4.399   2.408  17.481  0.00  0.00    +0.000 OA
ENDROOT
BRANCH   1   7
ATOM      4  N   UNL     1       7.191   6.381  17.160  0.00  0.00    +0.000 NA
ATOM      5  C   UNL     1       7.057   4.929  17.388  0.00  0.00    +0.000 C 
ATOM      6  C   UNL     1       6.278   4.255  16.248  0.00  0.00    +0.000 C 
ATOM      7  C   UNL     1       4.849   4.858  16.127  0.00  0.00    +0.000 C 
ATOM      8  C   UNL     1       5.178   6.289  15.697  0.00  0.00    +0.000 C 
ATOM      9  C   UNL     1       5.902   7.004  16.831  0.00  0.00    +0.000 C 
BRANCH   4  10
ATOM     10  C   UNL     1       7.800   7.045  18.332  0.00  0.00    +0.000 C 
BRANCH  10  11
ATOM     11  C   UNL     1       8.172   8.490  17.985  0.00  0.00    +0.000 C 
BRANCH  11  12
ATOM     12  C   UNL     1       9.079   9.159  19.005  0.00  0.00    +0.000 C 
BRANCH  12  16
ATOM     13  C   UNL     1       9.346  13.361  18.050  0.00  0.00    +0.000 A 
ATOM     14  C   UNL     1       8.353  12.574  17.467  0.00  0.00    +0.000 A 
ATOM     15  C   UNL     1       8.246  11.218  17.789  0.00  0.00    +0.000 A 
ATOM     16  C   UNL     1       9.141  10.635  18.696  0.00  0.00    +0.000 A 
ATOM     17  C   UNL     1      10.162  11.419  19.241  0.00  0.00    +0.000 A 
ATOM     18  C   UNL     1      10.261  12.774  18.924  0.00  0.00    +0.000 A 
BRANCH  13  20
ATOM     19  C   UNL     1       8.169  15.398  17.961  0.00  0.00    +0.000 C 
ATOM     20  O   UNL     1       9.360  14.675  17.669  0.00  0.00    +0.000 OA
ENDBRANCH  13  20
ENDBRANCH  12  16
ENDBRANCH  11  12
ENDBRANCH  10  11
ENDBRANCH   4  10
ENDBRANCH   1   7
BRANCH   2  21
ATOM     21  C   UNL     1       2.936   3.112  19.072  0.00  0.00    +0.000 A 
ATOM     22  C   UNL     1       3.432   2.948  20.364  0.00  0.00    +0.000 A 
ATOM     23  C   UNL     1       2.569   2.703  21.428  0.00  0.00    +0.000 A 
ATOM     24  C   UNL     1       1.193   2.731  21.231  0.00  0.00    +0.000 A 
ATOM     25  C   UNL     1       0.676   2.986  19.961  0.00  0.00    +0.000 A 
ATOM     26  C   UNL     1       1.543   3.160  18.878  0.00  0.00    +0.000 A 
ENDBRANCH   2  21
BRANCH   1  27
ATOM     27  C   UNL     1       3.030   5.795  17.805  0.00  0.00    +0.000 C 
BRANCH  27  28
ATOM     28  C   UNL     1       3.128   6.536  19.145  0.00  0.00    +0.000 C 
BRANCH  28  29
ATOM     29  C   UNL     1       2.294   7.793  19.268  0.00  0.00    +0.000 A 
ATOM     30  C   UNL     1       2.090   8.624  18.154  0.00  0.00    +0.000 A 
ATOM     31  C   UNL     1       1.173   9.676  18.212  0.00  0.00    +0.000 A 
ATOM     32  C   UNL     1       0.453   9.901  19.382  0.00  0.00    +0.000 A 
ATOM     33 CL   UNL     1      -0.730  11.150  19.430  0.00  0.00    +0.000 Cl
ATOM     34  C   UNL     1       0.660   9.102  20.504  0.00  0.00    +0.000 A 
ATOM     35  C   UNL     1       1.576   8.052  20.448  0.00  0.00    +0.000 A 
ENDBRANCH  28  29
ENDBRANCH  27  28
ENDBRANCH   1  27
TORSDOF 10
ENDMDL
MODEL 4
REMARK VINA RESULT:      -9.4      1.030      1.185
REMARK  Name = 
REMARK  11 active torsions:
REMARK  status: ('A' for Active; 'I' for Inactive)
REMARK    1  A    between atoms: C_1  and  O_2
REMARK    2  A    between atoms: O_2  and  C_3
REMARK    3  A    between atoms: C_6  and  C_7
REMARK    4  A    between atoms: C_7  and  C_8
REMARK    5  A    between atoms: C_8  and  C_9
REMARK    6  A    between atoms: C_9  and  N_10
REMARK    7  A    between atoms: C_13  and  N_14
REMARK    8  A    between atoms: N_14  and  C_15
REMARK    9  A    between atoms: C_15  and  C_16
REMARK   10  A    between atoms: C_16  and  C_17
REMARK   11  A    between atoms: C_24  and  C_26
REMARK                            x       y       z     vdW  Elec       q    Type
REMARK                         _______ _______ _______ _____ _____    ______ ____
ROOT
ATOM      1  N   UNL     1       4.284   5.074  17.613  0.00  0.00    +0.000 N 
ATOM      2  C   UNL     1       3.806   3.739  17.838  0.00  0.00    +0.000 C 
ATOM      3  O   UNL     1       4.074   2.780  17.128  0.00  0.00    +0.000 OA
ENDROOT
BRANCH   1   7
ATOM      4  N   UNL     1       7.483   6.760  17.331  0.00  0.00    +0.000 NA
ATOM      5  C   UNL     1       7.364   5.295  17.455  0.00  0.00    +0.000 C 
ATOM      6  C   UNL     1       6.512   4.707  16.319  0.00  0.00    +0.000 C 
ATOM      7  C   UNL     1       5.078   5.310  16.338  0.00  0.00    +0.000 C 
ATOM      8  C   UNL     1       5.379   6.772  16.000  0.00  0.00    +0.000 C 
ATOM      9  C   UNL     1       6.175   7.400  17.137  0.00  0.00    +0.000 C 
BRANCH   4  10
ATOM     10  C   UNL     1       8.168   7.334  18.510  0.00  0.00    +0.000 C 
BRANCH  10  11
ATOM     11  C   UNL     1       8.432   8.827  18.290  0.00  0.00    +0.000 C 
BRANCH  11  12
ATOM     12  C   UNL     1       9.010   9.539  19.502  0.00  0.00    +0.000 C 
BRANCH  12  16
ATOM     13  C   UNL     1      10.098  13.530  18.263  0.00  0.00    +0.000 A 
ATOM     14  C   UNL     1       9.701  13.290  19.579  0.00  0.00    +0.000 A 
ATOM     15  C   UNL     1       9.369  11.997  19.993  0.00  0.00    +0.000 A 
ATOM     16  C   UNL     1       9.426  10.930  19.087  0.00  0.00    +0.000 A 
ATOM     17  C   UNL     1       9.780  11.185  17.759  0.00  0.00    +0.000 A 
ATOM     18  C   UNL     1      10.118  12.476  17.351  0.00  0.00    +0.000 A 
BRANCH  13  20
ATOM     19  C   UNL     1       9.292  15.717  17.931  0.00  0.00    +0.000 C 
ATOM     20  O   UNL     1      10.404  14.829  17.964  0.00  0.00    +0.000 OA
ENDBRANCH  13  20
ENDBRANCH  12  16
ENDBRANCH  11  12
ENDBRANCH  10  11
ENDBRANCH   4  10
ENDBRANCH   1   7
BRANCH   2  21
ATOM     21  C   UNL     1       2.970   3.378  19.023  0.00  0.00    +0.000 A 
ATOM     22  C   UNL     1       3.507   3.127  20.283  0.00  0.00    +0.000 A 
ATOM     23  C   UNL     1       2.679   2.814  21.357  0.00  0.00    +0.000 A 
ATOM     24  C   UNL     1       1.298   2.859  21.208  0.00  0.00    +0.000 A 
ATOM     25  C   UNL     1       0.740   3.199  19.976  0.00  0.00    +0.000 A 
ATOM     26  C   UNL     1       1.571   3.442  18.879  0.00  0.00    +0.000 A 
ENDBRANCH   2  21
BRANCH   1  27
ATOM     27  C   UNL     1       3.701   6.191  18.421  0.00  0.00    +0.000 C 
BRANCH  27  28
ATOM     28  C   UNL     1       2.364   6.878  18.115  0.00  0.00    +0.000 C 
BRANCH  28  29
ATOM     29  C   UNL     1       1.914   7.924  19.113  0.00  0.00    +0.000 A 
ATOM     30  C   UNL     1       1.509   9.196  18.677  0.00  0.00    +0.000 A 
ATOM     31  C   UNL     1       0.918  10.096  19.567  0.00  0.00    +0.000 A 
ATOM     32  C   UNL     1       0.726   9.728  20.896  0.00  0.00    +0.000 A 
ATOM     33 CL   UNL     1      -0.069  10.807  21.975  0.00  0.00    +0.000 Cl
ATOM     34  C   UNL     1       1.145   8.480  21.351  0.00  0.00    +0.000 A 
ATOM     35  C   UNL     1       1.736   7.581  20.463  0.00  0.00    +0.000 A 
ENDBRANCH  28  29
ENDBRANCH  27  28
ENDBRANCH   1  27
TORSDOF 10
ENDMDL
MODEL 5
REMARK VINA RESULT:      -9.3      1.136      1.585
REMARK  Name = 
REMARK  11 active torsions:
REMARK  status: ('A' for Active; 'I' for Inactive)
REMARK    1  A    between atoms: C_1  and  O_2
REMARK    2  A    between atoms: O_2  and  C_3
REMARK    3  A    between atoms: C_6  and  C_7
REMARK    4  A    between atoms: C_7  and  C_8
REMARK    5  A    between atoms: C_8  and  C_9
REMARK    6  A    between atoms: C_9  and  N_10
REMARK    7  A    between atoms: C_13  and  N_14
REMARK    8  A    between atoms: N_14  and  C_15
REMARK    9  A    between atoms: C_15  and  C_16
REMARK   10  A    between atoms: C_16  and  C_17
REMARK   11  A    between atoms: C_24  and  C_26
REMARK                            x       y       z     vdW  Elec       q    Type
REMARK                         _______ _______ _______ _____ _____    ______ ____
ROOT
ATOM      1  N   UNL     1       4.040   4.820  17.387  0.00  0.00    +0.000 N 
ATOM      2  C   UNL     1       3.787   3.518  17.936  0.00  0.00    +0.000 C 
ATOM      3  O   UNL     1       4.335   2.491  17.560  0.00  0.00    +0.000 OA
ENDROOT
BRANCH   1   7
ATOM      4  N   UNL     1       7.284   6.436  17.237  0.00  0.00    +0.000 NA
ATOM      5  C   UNL     1       7.123   4.999  17.530  0.00  0.00    +0.000 C 
ATOM      6  C   UNL     1       6.383   4.278  16.393  0.00  0.00    +0.000 C 
ATOM      7  C   UNL     1       4.967   4.888  16.185  0.00  0.00    +0.000 C 
ATOM      8  C   UNL     1       5.331   6.293  15.699  0.00  0.00    +0.000 C 
ATOM      9  C   UNL     1       6.017   7.055  16.826  0.00  0.00    +0.000 C 
BRANCH   4  10
ATOM     10  C   UNL     1       7.854   7.150  18.400  0.00  0.00    +0.000 C 
BRANCH  10  11
ATOM     11  C   UNL     1       8.154   8.606  18.028  0.00  0.00    +0.000 C 
BRANCH  11  12
ATOM     12  C   UNL     1       9.261   9.241  18.853  0.00  0.00    +0.000 C 
BRANCH  12  16
ATOM     13  C   UNL     1       8.753  13.528  18.927  0.00  0.00    +0.000 A 
ATOM     14  C   UNL     1       8.579  12.824  17.736  0.00  0.00    +0.000 A 
ATOM     15  C   UNL     1       8.719  11.434  17.709  0.00  0.00    +0.000 A 
ATOM     16  C   UNL     1       9.043  10.735  18.879  0.00  0.00    +0.000 A 
ATOM     17  C   UNL     1       9.262  11.451  20.060  0.00  0.00    +0.000 A 
ATOM     18  C   UNL     1       9.113  12.838  20.085  0.00  0.00    +0.000 A 
BRANCH  13  20
ATOM     19  C   UNL     1       7.970  15.485  19.975  0.00  0.00    +0.000 C 
ATOM     20  O   UNL     1       8.589  14.884  18.844  0.00  0.00    +0.000 OA
ENDBRANCH  13  20
ENDBRANCH  12  16
ENDBRANCH  11  12
ENDBRANCH  10  11
ENDBRANCH   4  10
ENDBRANCH   1   7
BRANCH   2  21
ATOM     21  C   UNL     1       2.856   3.301  19.084  0.00  0.00    +0.000 A 
ATOM     22  C   UNL     1       1.471   3.244  18.938  0.00  0.00    +0.000 A 
ATOM     23  C   UNL     1       0.651   3.018  20.040  0.00  0.00    +0.000 A 
ATOM     24  C   UNL     1       1.212   2.736  21.280  0.00  0.00    +0.000 A 
ATOM     25  C   UNL     1       2.599   2.697  21.426  0.00  0.00    +0.000 A 
ATOM     26  C   UNL     1       3.422   2.996  20.336  0.00  0.00    +0.000 A 
ENDBRANCH   2  21
BRANCH   1  27
ATOM     27  C   UNL     1       3.142   5.952  17.779  0.00  0.00    +0.000 C 
BRANCH  27  28
ATOM     28  C   UNL     1       3.079   6.563  19.185  0.00  0.00    +0.000 C 
BRANCH  28  29
ATOM     29  C   UNL     1       2.228   7.807  19.328  0.00  0.00    +0.000 A 
ATOM     30  C   UNL     1       1.942   8.606  18.209  0.00  0.00    +0.000 A 
ATOM     31  C   UNL     1       1.010   9.642  18.297  0.00  0.00    +0.000 A 
ATOM     32  C   UNL     1       0.355   9.882  19.501  0.00  0.00    +0.000 A 
ATOM     33 CL   UNL     1      -0.848  11.109  19.591  0.00  0.00    +0.000 Cl
ATOM     34  C   UNL     1       0.645   9.115  20.628  0.00  0.00    +0.000 A 
ATOM     35  C   UNL     1       1.577   8.081  20.542  0.00  0.00    +0.000 A 
ENDBRANCH  28  29
ENDBRANCH  27  28
ENDBRANCH   1  27
TORSDOF 10
ENDMDL
MODEL 6
REMARK VINA RESULT:      -9.2      0.980      1.536
REMARK  Name = 
REMARK  11 active torsions:
REMARK  status: ('A' for Active; 'I' for Inactive)
REMARK    1  A    between atoms: C_1  and  O_2
REMARK    2  A    between atoms: O_2  and  C_3
REMARK    3  A    between atoms: C_6  and  C_7
REMARK    4  A    between atoms: C_7  and  C_8
REMARK    5  A    between atoms: C_8  and  C_9
REMARK    6  A    between atoms: C_9  and  N_10
REMARK    7  A    between atoms: C_13  and  N_14
REMARK    8  A    between atoms: N_14  and  C_15
REMARK    9  A    between atoms: C_15  and  C_16
REMARK   10  A    between atoms: C_16  and  C_17
REMARK   11  A    between atoms: C_24  and  C_26
REMARK                            x       y       z     vdW  Elec       q    Type
REMARK                         _______ _______ _______ _____ _____    ______ ____
ROOT
ATOM      1  N   UNL     1       4.395   4.887  17.753  0.00  0.00    +0.000 N 
ATOM      2  C   UNL     1       3.756   3.630  18.017  0.00  0.00    +0.000 C 
ATOM      3  O   UNL     1       3.945   2.608  17.371  0.00  0.00    +0.000 OA
ENDROOT
BRANCH   1   7
ATOM      4  N   UNL     1       7.547   6.655  17.432  0.00  0.00    +0.000 NA
ATOM      5  C   UNL     1       7.469   5.222  17.776  0.00  0.00    +0.000 C 
ATOM      6  C   UNL     1       6.726   4.428  16.689  0.00  0.00    +0.000 C 
ATOM      7  C   UNL     1       5.275   4.961  16.515  0.00  0.00    +0.000 C 
ATOM      8  C   UNL     1       5.550   6.365  15.973  0.00  0.00    +0.000 C 
ATOM      9  C   UNL     1       6.236   7.197  17.049  0.00  0.00    +0.000 C 
BRANCH   4  10
ATOM     10  C   UNL     1       8.121   7.434  18.550  0.00  0.00    +0.000 C 
BRANCH  10  11
ATOM     11  C   UNL     1       8.826   8.684  18.014  0.00  0.00    +0.000 C 
BRANCH  11  12
ATOM     12  C   UNL     1       7.954   9.928  17.998  0.00  0.00    +0.000 C 
BRANCH  12  16
ATOM     13  C   UNL     1      10.453  13.437  18.286  0.00  0.00    +0.000 A 
ATOM     14  C   UNL     1      10.914  12.210  18.763  0.00  0.00    +0.000 A 
ATOM     15  C   UNL     1      10.120  11.066  18.652  0.00  0.00    +0.000 A 
ATOM     16  C   UNL     1       8.849  11.142  18.067  0.00  0.00    +0.000 A 
ATOM     17  C   UNL     1       8.375  12.384  17.633  0.00  0.00    +0.000 A 
ATOM     18  C   UNL     1       9.174  13.523  17.738  0.00  0.00    +0.000 A 
BRANCH  13  20
ATOM     19  C   UNL     1      12.332  14.300  19.412  0.00  0.00    +0.000 C 
ATOM     20  O   UNL     1      11.310  14.492  18.440  0.00  0.00    +0.000 OA
ENDBRANCH  13  20
ENDBRANCH  12  16
ENDBRANCH  11  12
ENDBRANCH  10  11
ENDBRANCH   4  10
ENDBRANCH   1   7
BRANCH   2  21
ATOM     21  C   UNL     1       2.824   3.433  19.168  0.00  0.00    +0.000 A 
ATOM     22  C   UNL     1       1.438   3.506  19.045  0.00  0.00    +0.000 A 
ATOM     23  C   UNL     1       0.617   3.292  20.148  0.00  0.00    +0.000 A 
ATOM     24  C   UNL     1       1.167   2.895  21.361  0.00  0.00    +0.000 A 
ATOM     25  C   UNL     1       2.547   2.727  21.479  0.00  0.00    +0.000 A 
ATOM     26  C   UNL     1       3.378   3.011  20.392  0.00  0.00    +0.000 A 
ENDBRANCH   2  21
BRANCH   1  27
ATOM     27  C   UNL     1       3.907   6.107  18.470  0.00  0.00    +0.000 C 
BRANCH  27  28
ATOM     28  C   UNL     1       2.882   7.097  17.900  0.00  0.00    +0.000 C 
BRANCH  28  29
ATOM     29  C   UNL     1       2.025   7.820  18.917  0.00  0.00    +0.000 A 
ATOM     30  C   UNL     1       1.899   7.321  20.225  0.00  0.00    +0.000 A 
ATOM     31  C   UNL     1       1.268   8.078  21.214  0.00  0.00    +0.000 A 
ATOM     32  C   UNL     1       0.762   9.337  20.904  0.00  0.00    +0.000 A 
ATOM     33 CL   UNL     1       0.051  10.301  22.139  0.00  0.00    +0.000 Cl
ATOM     34  C   UNL     1       0.857   9.836  19.606  0.00  0.00    +0.000 A 
ATOM     35  C   UNL     1       1.486   9.081  18.617  0.00  0.00    +0.000 A 
ENDBRANCH  28  29
ENDBRANCH  27  28
ENDBRANCH   1  27
TORSDOF 10
ENDMDL
MODEL 7
REMARK VINA RESULT:      -9.1      0.891      1.224
REMARK  Name = 
REMARK  11 active torsions:
REMARK  status: ('A' for Active; 'I' for Inactive)
REMARK    1  A    between atoms: C_1  and  O_2
REMARK    2  A    between atoms: O_2  and  C_3
REMARK    3  A    between atoms: C_6  and  C_7
REMARK    4  A    between atoms: C_7  and  C_8
REMARK    5  A    between atoms: C_8  and  C_9
REMARK    6  A    between atoms: C_9  and  N_10
REMARK    7  A    between atoms: C_13  and  N_14
REMARK    8  A    between atoms: N_14  and  C_15
REMARK    9  A    between atoms: C_15  and  C_16
REMARK   10  A    between atoms: C_16  and  C_17
REMARK   11  A    between atoms: C_24  and  C_26
REMARK                            x       y       z     vdW  Elec       q    Type
REMARK                         _______ _______ _______ _____ _____    ______ ____
ROOT
ATOM      1  N   UNL     1       4.392   5.157  17.499  0.00  0.00    +0.000 N 
ATOM      2  C   UNL     1       3.876   3.841  17.741  0.00  0.00    +0.000 C 
ATOM      3  O   UNL     1       4.164   2.852  17.080  0.00  0.00    +0.000 OA
ENDROOT
BRANCH   1   7
ATOM      4  N   UNL     1       7.536   6.959  17.303  0.00  0.00    +0.000 NA
ATOM      5  C   UNL     1       7.465   5.502  17.530  0.00  0.00    +0.000 C 
ATOM      6  C   UNL     1       6.718   4.796  16.387  0.00  0.00    +0.000 C 
ATOM      7  C   UNL     1       5.264   5.335  16.266  0.00  0.00    +0.000 C 
ATOM      8  C   UNL     1       5.530   6.780  15.838  0.00  0.00    +0.000 C 
ATOM      9  C   UNL     1       6.220   7.524  16.974  0.00  0.00    +0.000 C 
BRANCH   4  10
ATOM     10  C   UNL     1       8.114   7.647  18.477  0.00  0.00    +0.000 C 
BRANCH  10  11
ATOM     11  C   UNL     1       8.572   9.056  18.089  0.00  0.00    +0.000 C 
BRANCH  11  12
ATOM     12  C   UNL     1       9.312   9.793  19.193  0.00  0.00    +0.000 C 
BRANCH  12  16
ATOM     13  C   UNL     1       9.788  13.925  18.033  0.00  0.00    +0.000 A 
ATOM     14  C   UNL     1      10.673  13.349  18.944  0.00  0.00    +0.000 A 
ATOM     15  C   UNL     1      10.539  12.006  19.306  0.00  0.00    +0.000 A 
ATOM     16  C   UNL     1       9.509  11.228  18.763  0.00  0.00    +0.000 A 
ATOM     17  C   UNL     1       8.598  11.823  17.886  0.00  0.00    +0.000 A 
ATOM     18  C   UNL     1       8.739  13.163  17.520  0.00  0.00    +0.000 A 
BRANCH  13  20
ATOM     19  C   UNL     1      11.147  15.496  16.924  0.00  0.00    +0.000 C 
ATOM     20  O   UNL     1      10.011  15.244  17.743  0.00  0.00    +0.000 OA
ENDBRANCH  13  20
ENDBRANCH  12  16
ENDBRANCH  11  12
ENDBRANCH  10  11
ENDBRANCH   4  10
ENDBRANCH   1   7
BRANCH   2  21
ATOM     21  C   UNL     1       2.965   3.536  18.886  0.00  0.00    +0.000 A 
ATOM     22  C   UNL     1       3.340   3.698  20.218  0.00  0.00    +0.000 A 
ATOM     23  C   UNL     1       2.444   3.419  21.245  0.00  0.00    +0.000 A 
ATOM     24  C   UNL     1       1.129   3.082  20.950  0.00  0.00    +0.000 A 
ATOM     25  C   UNL     1       0.709   3.004  19.622  0.00  0.00    +0.000 A 
ATOM     26  C   UNL     1       1.628   3.214  18.589  0.00  0.00    +0.000 A 
ENDBRANCH   2  21
BRANCH   1  27
ATOM     27  C   UNL     1       3.788   6.313  18.234  0.00  0.00    +0.000 C 
BRANCH  27  28
ATOM     28  C   UNL     1       2.874   7.367  17.594  0.00  0.00    +0.000 C 
BRANCH  28  29
ATOM     29  C   UNL     1       1.979   8.131  18.545  0.00  0.00    +0.000 A 
ATOM     30  C   UNL     1       1.938   7.796  19.909  0.00  0.00    +0.000 A 
ATOM     31  C   UNL     1       1.264   8.612  20.820  0.00  0.00    +0.000 A 
ATOM     32  C   UNL     1       0.630   9.769  20.374  0.00  0.00    +0.000 A 
ATOM     33 CL   UNL     1      -0.137  10.813  21.506  0.00  0.00    +0.000 Cl
ATOM     34  C   UNL     1       0.640  10.103  19.022  0.00  0.00    +0.000 A 
ATOM     35  C   UNL     1       1.312   9.289  18.111  0.00  0.00    +0.000 A 
ENDBRANCH  28  29
ENDBRANCH  27  28
ENDBRANCH   1  27
TORSDOF 10
ENDMDL
MODEL 8
REMARK VINA RESULT:      -9.0      1.247      1.433
REMARK  Name = 
REMARK  11 active torsions:
REMARK  status: ('A' for Active; 'I' for Inactive)
REMARK    1  A    between atoms: C_1  and  O_2
REMARK    2  A    between atoms: O_2  and  C_3
REMARK    3  A    between atoms: C_6  and  C_7
REMARK    4  A    between atoms: C_7  and  C_8
REMARK    5  A    between atoms: C_8  and  C_9
REMARK    6  A    between atoms: C_9  and  N_10
REMARK    7  A    between atoms: C_13  and  N_14
REMARK    8  A    between atoms: N_14  and  C_15
REMARK    9  A    between atoms: C_15  and  C_16
REMARK   10  A    between atoms: C_16  and  C_17
REMARK   11  A    between atoms: C_24  and  C_26
REMARK                            x       y       z     vdW  Elec       q    Type
REMARK                         _______ _______ _______ _____ _____    ______ ____
ROOT
ATOM      1  N   UNL     1       4.167   4.879  17.691  0.00  0.00    +0.000 N 
ATOM      2  C   UNL     1       3.686   3.554  17.960  0.00  0.00    +0.000 C 
ATOM      3  O   UNL     1       3.928   2.576  17.266  0.00  0.00    +0.000 OA
ENDROOT
BRANCH   1   7
ATOM      4  N   UNL     1       7.454   6.368  17.310  0.00  0.00    +0.000 NA
ATOM      5  C   UNL     1       7.248   4.911  17.426  0.00  0.00    +0.000 C 
ATOM      6  C   UNL     1       6.322   4.389  16.316  0.00  0.00    +0.000 C 
ATOM      7  C   UNL     1       4.930   5.079  16.391  0.00  0.00    +0.000 C 
ATOM      8  C   UNL     1       5.309   6.523  16.054  0.00  0.00    +0.000 C 
ATOM      9  C   UNL     1       6.182   7.089  17.167  0.00  0.00    +0.000 C 
BRANCH   4  10
ATOM     10  C   UNL     1       8.213   6.886  18.468  0.00  0.00    +0.000 C 
BRANCH  10  11
ATOM     11  C   UNL     1       7.942   8.383  18.648  0.00  0.00    +0.000 C 
BRANCH  11  12
ATOM     12  C   UNL     1       8.738   9.274  17.709  0.00  0.00    +0.000 C 
BRANCH  12  16
ATOM     13  C   UNL     1       9.484  13.003  19.755  0.00  0.00    +0.000 A 
ATOM     14  C   UNL     1       9.647  11.792  20.428  0.00  0.00    +0.000 A 
ATOM     15  C   UNL     1       9.430  10.581  19.765  0.00  0.00    +0.000 A 
ATOM     16  C   UNL     1       9.039  10.572  18.420  0.00  0.00    +0.000 A 
ATOM     17  C   UNL     1       8.832  11.790  17.765  0.00  0.00    +0.000 A 
ATOM     18  C   UNL     1       9.058  12.998  18.427  0.00  0.00    +0.000 A 
BRANCH  13  20
ATOM     19  C   UNL     1      11.099  14.481  20.621  0.00  0.00    +0.000 C 
ATOM     20  O   UNL     1       9.726  14.129  20.494  0.00  0.00    +0.000 OA
ENDBRANCH  13  20
ENDBRANCH  12  16
ENDBRANCH  11  12
ENDBRANCH  10  11
ENDBRANCH   4  10
ENDBRANCH   1   7
BRANCH   2  21
ATOM     21  C   UNL     1       2.878   3.228  19.174  0.00  0.00    +0.000 A 
ATOM     22  C   UNL     1       3.450   2.912  20.405  0.00  0.00    +0.000 A 
ATOM     23  C   UNL     1       2.649   2.637  21.509  0.00  0.00    +0.000 A 
ATOM     24  C   UNL     1       1.270   2.782  21.423  0.00  0.00    +0.000 A 
ATOM     25  C   UNL     1       0.684   3.187  20.223  0.00  0.00    +0.000 A 
ATOM     26  C   UNL     1       1.483   3.394  19.095  0.00  0.00    +0.000 A 
ENDBRANCH   2  21
BRANCH   1  27
ATOM     27  C   UNL     1       3.614   6.020  18.486  0.00  0.00    +0.000 C 
BRANCH  27  28
ATOM     28  C   UNL     1       2.654   7.081  17.932  0.00  0.00    +0.000 C 
BRANCH  28  29
ATOM     29  C   UNL     1       2.014   7.993  18.956  0.00  0.00    +0.000 A 
ATOM     30  C   UNL     1       1.335   9.154  18.550  0.00  0.00    +0.000 A 
ATOM     31  C   UNL     1       0.586   9.895  19.467  0.00  0.00    +0.000 A 
ATOM     32  C   UNL     1       0.508   9.478  20.793  0.00  0.00    +0.000 A 
ATOM     33 CL   UNL     1      -0.474  10.348  21.905  0.00  0.00    +0.000 Cl
ATOM     34  C   UNL     1       1.196   8.344  21.218  0.00  0.00    +0.000 A 
ATOM     35  C   UNL     1       1.945   7.603  20.304  0.00  0.00    +0.000 A 
ENDBRANCH  28  29
ENDBRANCH  27  28
ENDBRANCH   1  27
TORSDOF 10
ENDMDL
MODEL 9
REMARK VINA RESULT:      -8.9      0.586      1.298
REMARK  Name = 
REMARK  11 active torsions:
REMARK  status: ('A' for Active; 'I' for Inactive)
REMARK    1  A    between atoms: C_1  and  O_2
REMARK    2  A    between atoms: O_2  and  C_3
REMARK    3  A    between atoms: C_6  and  C_7
REMARK    4  A    between atoms: C_7  and  C_8
REMARK    5  A    between atoms: C_8  and  C_9
REMARK    6  A    between atoms: C_9  and  N_10
REMARK    7  A    between atoms: C_13  and  N_14
REMARK    8  A    between atoms: N_14  and  C_15
REMARK    9  A    between atoms: C_15  and  C_16
REMARK   10  A    between atoms: C_16  and  C_17
REMARK   11  A    between atoms: C_24  and  C_26
REMARK                            x       y       z     vdW  Elec       q    Type
REMARK                         _______ _______ _______ _____ _____    ______ ____
ROOT
ATOM      1  N   UNL     1       4.464   4.647  17.835  0.00  0.00    +0.000 N 
ATOM      2  C   UNL     1       3.409   3.676  17.889  0.00  0.00    +0.000 C 
ATOM      3  O   UNL     1       3.039   3.003  16.936  0.00  0.00    +0.000 OA
ENDROOT
BRANCH   1   7
ATOM      4  N   UNL     1       7.420   6.631  17.133  0.00  0.00    +0.000 NA
ATOM      5  C   UNL     1       7.465   5.165  17.295  0.00  0.00    +0.000 C 
ATOM      6  C   UNL     1       6.546   4.463  16.283  0.00  0.00    +0.000 C 
ATOM      7  C   UNL     1       5.071   4.923  16.468  0.00  0.00    +0.000 C 
ATOM      8  C   UNL     1       5.180   6.397  16.071  0.00  0.00    +0.000 C 
ATOM      9  C   UNL     1       6.040   7.133  17.090  0.00  0.00    +0.000 C 
BRANCH   4  10
ATOM     10  C   UNL     1       8.180   7.303  18.208  0.00  0.00    +0.000 C 
BRANCH  10  11
ATOM     11  C   UNL     1       8.110   8.824  18.030  0.00  0.00    +0.000 C 
BRANCH  11  12
ATOM     12  C   UNL     1       8.810   9.608  19.128  0.00  0.00    +0.000 C 
BRANCH  12  16
ATOM     13  C   UNL     1      10.338  13.310  17.513  0.00  0.00    +0.000 A 
ATOM     14  C   UNL     1      11.207  12.395  18.107  0.00  0.00    +0.000 A 
ATOM     15  C   UNL     1      10.723  11.185  18.611  0.00  0.00    +0.000 A 
ATOM     16  C   UNL     1       9.358  10.883  18.531  0.00  0.00    +0.000 A 
ATOM     17  C   UNL     1       8.485  11.824  17.976  0.00  0.00    +0.000 A 
ATOM     18  C   UNL     1       8.973  13.028  17.466  0.00  0.00    +0.000 A 
BRANCH  13  20
ATOM     19  C   UNL     1      12.279  14.336  16.663  0.00  0.00    +0.000 C 
ATOM     20  O   UNL     1      10.915  14.460  17.049  0.00  0.00    +0.000 OA
ENDBRANCH  13  20
ENDBRANCH  12  16
ENDBRANCH  11  12
ENDBRANCH  10  11
ENDBRANCH   4  10
ENDBRANCH   1   7
BRANCH   2  21
ATOM     21  C   UNL     1       2.690   3.346  19.156  0.00  0.00    +0.000 A 
ATOM     22  C   UNL     1       1.305   3.428  19.287  0.00  0.00    +0.000 A 
ATOM     23  C   UNL     1       0.685   3.088  20.485  0.00  0.00    +0.000 A 
ATOM     24  C   UNL     1       1.432   2.557  21.530  0.00  0.00    +0.000 A 
ATOM     25  C   UNL     1       2.808   2.380  21.385  0.00  0.00    +0.000 A 
ATOM     26  C   UNL     1       3.441   2.789  20.208  0.00  0.00    +0.000 A 
ENDBRANCH   2  21
BRANCH   1  27
ATOM     27  C   UNL     1       4.664   5.558  19.006  0.00  0.00    +0.000 C 
BRANCH  27  28
ATOM     28  C   UNL     1       3.554   5.974  19.981  0.00  0.00    +0.000 C 
BRANCH  28  29
ATOM     29  C   UNL     1       2.629   7.071  19.501  0.00  0.00    +0.000 A 
ATOM     30  C   UNL     1       1.828   7.777  20.414  0.00  0.00    +0.000 A 
ATOM     31  C   UNL     1       1.118   8.909  20.007  0.00  0.00    +0.000 A 
ATOM     32  C   UNL     1       1.208   9.344  18.688  0.00  0.00    +0.000 A 
ATOM     33 CL   UNL     1       0.395  10.781  18.205  0.00  0.00    +0.000 Cl
ATOM     34  C   UNL     1       1.979   8.642  17.764  0.00  0.00    +0.000 A 
ATOM     35  C   UNL     1       2.687   7.511  18.168  0.00  0.00    +0.000 A 
ENDBRANCH  28  29
ENDBRANCH  27  28
ENDBRANCH   1  27
TORSDOF 10
ENDMDL
