MODEL 1
REMARK VINA RESULT:      -6.4      0.000      0.000
REMARK  Name = 
REMARK  12 active torsions:
REMARK  status: ('A' for Active; 'I' for Inactive)
REMARK    1  A    between atoms: C_1  and  C_2
REMARK    2  A    between atoms: C_7  and  C_8
REMARK    3  A    between atoms: N_10  and  C_11
REMARK    4  A    between atoms: C_11  and  C_12
REMARK    5  A    between atoms: C_12  and  N_13
REMARK    6  A    between atoms: N_13  and  C_14
REMARK    7  A    between atoms: N_13  and  C_15
REMARK    8  A    between atoms: C_21  and  O_22
REMARK    9  A    between atoms: O_22  and  P_23
REMARK   10  A    between atoms: P_23  and  O_25
REMARK   11  A    between atoms: P_23  and  O_26
REMARK   12  A    between atoms: N_30  and  C_31
REMARK                            x       y       z     vdW  Elec       q    Type
REMARK                         _______ _______ _______ _____ _____    ______ ____
ROOT
ATOM      1  C   UNL     1      -6.945  12.388  17.594  0.00  0.00    +0.000 C 
ATOM      2  C   UNL     1      -5.632  12.280  18.330  0.00  0.00    +0.000 A 
ATOM      3  C   UNL     1      -4.461  11.700  17.712  0.00  0.00    +0.000 A 
ATOM      4  C   UNL     1      -4.462  11.190  16.393  0.00  0.00    +0.000 A 
ATOM      5  C   UNL     1      -3.320  10.637  15.832  0.00  0.00    +0.000 A 
ATOM      6  N   UNL     1      -2.149  10.541  16.474  0.00  0.00    +0.000 NA
ATOM      7  C   UNL     1      -2.121  11.023  17.752  0.00  0.00    +0.000 A 
ATOM      8  C   UNL     1      -3.235  11.612  18.417  0.00  0.00    +0.000 A 
ATOM      9  C   UNL     1      -3.197  12.115  19.739  0.00  0.00    +0.000 A 
ATOM     10  C   UNL     1      -4.314  12.682  20.372  0.00  0.00    +0.000 A 
ATOM     11  C   UNL     1      -4.494  13.241  21.676  0.00  0.00    +0.000 A 
ATOM     12  C   UNL     1      -3.641  13.447  22.789  0.00  0.00    +0.000 A 
ATOM     13  C   UNL     1      -4.153  14.050  23.945  0.00  0.00    +0.000 A 
ATOM     14  C   UNL     1      -5.494  14.396  24.019  0.00  0.00    +0.000 A 
ATOM     15  C   UNL     1      -6.348  14.199  22.935  0.00  0.00    +0.000 A 
ATOM     16  C   UNL     1      -5.825  13.632  21.765  0.00  0.00    +0.000 A 
ATOM     17  N   UNL     1      -6.418  13.347  20.549  0.00  0.00    +0.000 N 
ATOM     18  C   UNL     1      -7.802  13.655  20.260  0.00  0.00    +0.000 C 
ATOM     19  C   UNL     1      -5.515  12.755  19.672  0.00  0.00    +0.000 A 
ENDROOT
BRANCH   7  20
ATOM     20  C   UNL     1      -0.771  10.849  18.421  0.00  0.00    +0.000 C 
ATOM     21  O   UNL     1      -0.506   9.931  19.193  0.00  0.00    +0.000 OA
ATOM     22  N   UNL     1       0.194  11.793  18.120  0.00  0.00    +0.000 N 
ATOM     23  H   UNL     1      -0.066  12.596  17.548  0.00  0.00    +0.000 HD
BRANCH  22  24
ATOM     24  C   UNL     1       1.495  11.692  18.740  0.00  0.00    +0.000 C 
BRANCH  24  25
ATOM     25  C   UNL     1       2.439  12.865  18.455  0.00  0.00    +0.000 C 
BRANCH  25  26
ATOM     26  N   UNL     1       1.904  14.202  18.783  0.00  0.00    +0.000 NA
ATOM     27  C   UNL     1       1.737  14.384  20.228  0.00  0.00    +0.000 C 
ATOM     28  C   UNL     1       2.814  15.226  18.262  0.00  0.00    +0.000 C 
ENDBRANCH  25  26
ENDBRANCH  24  25
ENDBRANCH  22  24
ENDBRANCH   7  20
BRANCH  13  29
ATOM     29  O   UNL     1      -3.287  14.255  24.983  0.00  0.00    +0.000 OA
BRANCH  29  30
ATOM     30  P   UNL     1      -2.014  15.225  24.891  0.00  0.00    +0.000 P 
ATOM     31  O   UNL     1      -0.804  14.750  24.156  0.00  0.00    +0.000 OA
BRANCH  30  32
ATOM     32  O   UNL     1      -2.600  16.604  24.338  0.00  0.00    +0.000 OA
ATOM     33  H   UNL     1      -1.886  17.242  24.167  0.00  0.00    +0.000 HD
ENDBRANCH  30  32
BRANCH  30  34
ATOM     34  O   UNL     1      -1.664  15.636  26.398  0.00  0.00    +0.000 OA
ATOM     35  H   UNL     1      -1.051  14.981  26.784  0.00  0.00    +0.000 HD
ENDBRANCH  30  34
ENDBRANCH  29  30
ENDBRANCH  13  29
TORSDOF 8
ENDMDL
MODEL 2
REMARK VINA RESULT:      -6.4      2.927      6.520
REMARK  Name = 
REMARK  12 active torsions:
REMARK  status: ('A' for Active; 'I' for Inactive)
REMARK    1  A    between atoms: C_1  and  C_2
REMARK    2  A    between atoms: C_7  and  C_8
REMARK    3  A    between atoms: N_10  and  C_11
REMARK    4  A    between atoms: C_11  and  C_12
REMARK    5  A    between atoms: C_12  and  N_13
REMARK    6  A    between atoms: N_13  and  C_14
REMARK    7  A    between atoms: N_13  and  C_15
REMARK    8  A    between atoms: C_21  and  O_22
REMARK    9  A    between atoms: O_22  and  P_23
REMARK   10  A    between atoms: P_23  and  O_25
REMARK   11  A    between atoms: P_23  and  O_26
REMARK   12  A    between atoms: N_30  and  C_31
REMARK                            x       y       z     vdW  Elec       q    Type
REMARK                         _______ _______ _______ _____ _____    ______ ____
ROOT
ATOM      1  C   UNL     1      -6.615  12.645  17.243  0.00  0.00    +0.000 C 
ATOM      2  C   UNL     1      -5.755  12.764  18.478  0.00  0.00    +0.000 A 
ATOM      3  C   UNL     1      -6.197  13.497  19.643  0.00  0.00    +0.000 A 
ATOM      4  C   UNL     1      -7.448  14.156  19.707  0.00  0.00    +0.000 A 
ATOM      5  C   UNL     1      -7.839  14.852  20.841  0.00  0.00    +0.000 A 
ATOM      6  N   UNL     1      -7.087  14.960  21.943  0.00  0.00    +0.000 NA
ATOM      7  C   UNL     1      -5.872  14.337  21.907  0.00  0.00    +0.000 A 
ATOM      8  C   UNL     1      -5.379  13.593  20.796  0.00  0.00    +0.000 A 
ATOM      9  C   UNL     1      -4.122  12.944  20.768  0.00  0.00    +0.000 A 
ATOM     10  C   UNL     1      -3.658  12.227  19.654  0.00  0.00    +0.000 A 
ATOM     11  C   UNL     1      -2.445  11.509  19.416  0.00  0.00    +0.000 A 
ATOM     12  C   UNL     1      -1.288  11.239  20.188  0.00  0.00    +0.000 A 
ATOM     13  C   UNL     1      -0.256  10.470  19.636  0.00  0.00    +0.000 A 
ATOM     14  C   UNL     1      -0.342  10.019  18.327  0.00  0.00    +0.000 A 
ATOM     15  C   UNL     1      -1.471  10.277  17.552  0.00  0.00    +0.000 A 
ATOM     16  C   UNL     1      -2.520  11.012  18.119  0.00  0.00    +0.000 A 
ATOM     17  N   UNL     1      -3.746  11.392  17.605  0.00  0.00    +0.000 N 
ATOM     18  C   UNL     1      -4.191  11.018  16.281  0.00  0.00    +0.000 C 
ATOM     19  C   UNL     1      -4.468  12.147  18.525  0.00  0.00    +0.000 A 
ENDROOT
BRANCH   7  20
ATOM     20  C   UNL     1      -5.068  14.531  23.178  0.00  0.00    +0.000 C 
ATOM     21  O   UNL     1      -4.860  13.640  23.997  0.00  0.00    +0.000 OA
ATOM     22  N   UNL     1      -4.550  15.795  23.394  0.00  0.00    +0.000 N 
ATOM     23  H   UNL     1      -4.803  16.546  22.752  0.00  0.00    +0.000 HD
BRANCH  22  24
ATOM     24  C   UNL     1      -3.788  16.048  24.595  0.00  0.00    +0.000 C 
BRANCH  24  25
ATOM     25  C   UNL     1      -2.418  16.696  24.367  0.00  0.00    +0.000 C 
BRANCH  25  26
ATOM     26  N   UNL     1      -1.256  15.881  24.776  0.00  0.00    +0.000 NA
ATOM     27  C   UNL     1      -1.224  15.666  26.226  0.00  0.00    +0.000 C 
ATOM     28  C   UNL     1      -1.308  14.588  24.089  0.00  0.00    +0.000 C 
ENDBRANCH  25  26
ENDBRANCH  24  25
ENDBRANCH  22  24
ENDBRANCH   7  20
BRANCH  13  29
ATOM     29  O   UNL     1       0.828  10.211  20.429  0.00  0.00    +0.000 OA
BRANCH  29  30
ATOM     30  P   UNL     1       0.916   8.953  21.419  0.00  0.00    +0.000 P 
ATOM     31  O   UNL     1      -0.353   8.336  21.907  0.00  0.00    +0.000 OA
BRANCH  30  32
ATOM     32  O   UNL     1       1.884   7.924  20.673  0.00  0.00    +0.000 OA
ATOM     33  H   UNL     1       1.689   7.891  19.720  0.00  0.00    +0.000 HD
ENDBRANCH  30  32
BRANCH  30  34
ATOM     34  O   UNL     1       1.853   9.413  22.632  0.00  0.00    +0.000 OA
ATOM     35  H   UNL     1       2.494   8.705  22.839  0.00  0.00    +0.000 HD
ENDBRANCH  30  34
ENDBRANCH  29  30
ENDBRANCH  13  29
TORSDOF 8
ENDMDL
MODEL 3
REMARK VINA RESULT:      -6.3      1.756      2.687
REMARK  Name = 
REMARK  12 active torsions:
REMARK  status: ('A' for Active; 'I' for Inactive)
REMARK    1  A    between atoms: C_1  and  C_2
REMARK    2  A    between atoms: C_7  and  C_8
REMARK    3  A    between atoms: N_10  and  C_11
REMARK    4  A    between atoms: C_11  and  C_12
REMARK    5  A    between atoms: C_12  and  N_13
REMARK    6  A    between atoms: N_13  and  C_14
REMARK    7  A    between atoms: N_13  and  C_15
REMARK    8  A    between atoms: C_21  and  O_22
REMARK    9  A    between atoms: O_22  and  P_23
REMARK   10  A    between atoms: P_23  and  O_25
REMARK   11  A    between atoms: P_23  and  O_26
REMARK   12  A    between atoms: N_30  and  C_31
REMARK                            x       y       z     vdW  Elec       q    Type
REMARK                         _______ _______ _______ _____ _____    ______ ____
ROOT
ATOM      1  C   UNL     1      -6.934  12.293  17.683  0.00  0.00    +0.000 C 
ATOM      2  C   UNL     1      -5.587  12.239  18.362  0.00  0.00    +0.000 A 
ATOM      3  C   UNL     1      -4.419  11.715  17.691  0.00  0.00    +0.000 A 
ATOM      4  C   UNL     1      -4.453  11.214  16.368  0.00  0.00    +0.000 A 
ATOM      5  C   UNL     1      -3.313  10.716  15.756  0.00  0.00    +0.000 A 
ATOM      6  N   UNL     1      -2.113  10.668  16.347  0.00  0.00    +0.000 NA
ATOM      7  C   UNL     1      -2.052  11.142  17.626  0.00  0.00    +0.000 A 
ATOM      8  C   UNL     1      -3.161  11.677  18.343  0.00  0.00    +0.000 A 
ATOM      9  C   UNL     1      -3.090  12.173  19.666  0.00  0.00    +0.000 A 
ATOM     10  C   UNL     1      -4.203  12.685  20.351  0.00  0.00    +0.000 A 
ATOM     11  C   UNL     1      -4.352  13.227  21.665  0.00  0.00    +0.000 A 
ATOM     12  C   UNL     1      -3.463  13.464  22.744  0.00  0.00    +0.000 A 
ATOM     13  C   UNL     1      -3.951  14.035  23.924  0.00  0.00    +0.000 A 
ATOM     14  C   UNL     1      -5.302  14.321  24.058  0.00  0.00    +0.000 A 
ATOM     15  C   UNL     1      -6.191  14.094  23.009  0.00  0.00    +0.000 A 
ATOM     16  C   UNL     1      -5.694  13.558  21.814  0.00  0.00    +0.000 A 
ATOM     17  N   UNL     1      -6.325  13.256  20.621  0.00  0.00    +0.000 N 
ATOM     18  C   UNL     1      -7.732  13.504  20.393  0.00  0.00    +0.000 C 
ATOM     19  C   UNL     1      -5.434  12.710  19.702  0.00  0.00    +0.000 A 
ENDROOT
BRANCH   7  20
ATOM     20  C   UNL     1      -0.669  11.023  18.237  0.00  0.00    +0.000 C 
ATOM     21  O   UNL     1      -0.150  11.898  18.926  0.00  0.00    +0.000 OA
ATOM     22  N   UNL     1       0.017   9.848  17.989  0.00  0.00    +0.000 N 
ATOM     23  H   UNL     1      -0.388   9.169  17.346  0.00  0.00    +0.000 HD
BRANCH  22  24
ATOM     24  C   UNL     1       1.347   9.682  18.531  0.00  0.00    +0.000 C 
BRANCH  24  25
ATOM     25  C   UNL     1       2.259   8.750  17.726  0.00  0.00    +0.000 C 
BRANCH  25  26
ATOM     26  N   UNL     1       2.357   7.366  18.234  0.00  0.00    +0.000 NA
ATOM     27  C   UNL     1       3.627   6.735  17.861  0.00  0.00    +0.000 C 
ATOM     28  C   UNL     1       2.226   7.378  19.694  0.00  0.00    +0.000 C 
ENDBRANCH  25  26
ENDBRANCH  24  25
ENDBRANCH  22  24
ENDBRANCH   7  20
BRANCH  13  29
ATOM     29  O   UNL     1      -3.052  14.271  24.927  0.00  0.00    +0.000 OA
BRANCH  29  30
ATOM     30  P   UNL     1      -1.985  15.468  24.892  0.00  0.00    +0.000 P 
ATOM     31  O   UNL     1      -1.678  16.191  26.161  0.00  0.00    +0.000 OA
BRANCH  30  32
ATOM     32  O   UNL     1      -0.699  14.836  24.187  0.00  0.00    +0.000 OA
ATOM     33  H   UNL     1       0.063  15.439  24.247  0.00  0.00    +0.000 HD
ENDBRANCH  30  32
BRANCH  30  34
ATOM     34  O   UNL     1      -2.486  16.471  23.749  0.00  0.00    +0.000 OA
ATOM     35  H   UNL     1      -1.723  16.957  23.382  0.00  0.00    +0.000 HD
ENDBRANCH  30  34
ENDBRANCH  29  30
ENDBRANCH  13  29
TORSDOF 8
ENDMDL
MODEL 4
REMARK VINA RESULT:      -6.3      1.845      2.397
REMARK  Name = 
REMARK  12 active torsions:
REMARK  status: ('A' for Active; 'I' for Inactive)
REMARK    1  A    between atoms: C_1  and  C_2
REMARK    2  A    between atoms: C_7  and  C_8
REMARK    3  A    between atoms: N_10  and  C_11
REMARK    4  A    between atoms: C_11  and  C_12
REMARK    5  A    between atoms: C_12  and  N_13
REMARK    6  A    between atoms: N_13  and  C_14
REMARK    7  A    between atoms: N_13  and  C_15
REMARK    8  A    between atoms: C_21  and  O_22
REMARK    9  A    between atoms: O_22  and  P_23
REMARK   10  A    between atoms: P_23  and  O_25
REMARK   11  A    between atoms: P_23  and  O_26
REMARK   12  A    between atoms: N_30  and  C_31
REMARK                            x       y       z     vdW  Elec       q    Type
REMARK                         _______ _______ _______ _____ _____    ______ ____
ROOT
ATOM      1  C   UNL     1      -6.855  12.650  17.155  0.00  0.00    +0.000 C 
ATOM      2  C   UNL     1      -5.602  12.390  17.955  0.00  0.00    +0.000 A 
ATOM      3  C   UNL     1      -4.486  11.657  17.402  0.00  0.00    +0.000 A 
ATOM      4  C   UNL     1      -4.488  11.131  16.089  0.00  0.00    +0.000 A 
ATOM      5  C   UNL     1      -3.399  10.430  15.591  0.00  0.00    +0.000 A 
ATOM      6  N   UNL     1      -2.282  10.198  16.291  0.00  0.00    +0.000 NA
ATOM      7  C   UNL     1      -2.254  10.693  17.564  0.00  0.00    +0.000 A 
ATOM      8  C   UNL     1      -3.315  11.428  18.167  0.00  0.00    +0.000 A 
ATOM      9  C   UNL     1      -3.277  11.943  19.484  0.00  0.00    +0.000 A 
ATOM     10  C   UNL     1      -4.343  12.655  20.057  0.00  0.00    +0.000 A 
ATOM     11  C   UNL     1      -4.513  13.253  21.344  0.00  0.00    +0.000 A 
ATOM     12  C   UNL     1      -3.696  13.369  22.496  0.00  0.00    +0.000 A 
ATOM     13  C   UNL     1      -4.182  14.049  23.619  0.00  0.00    +0.000 A 
ATOM     14  C   UNL     1      -5.471  14.562  23.624  0.00  0.00    +0.000 A 
ATOM     15  C   UNL     1      -6.290  14.456  22.501  0.00  0.00    +0.000 A 
ATOM     16  C   UNL     1      -5.787  13.810  21.364  0.00  0.00    +0.000 A 
ATOM     17  N   UNL     1      -6.353  13.583  20.123  0.00  0.00    +0.000 N 
ATOM     18  C   UNL     1      -7.671  14.057  19.763  0.00  0.00    +0.000 C 
ATOM     19  C   UNL     1      -5.491  12.868  19.297  0.00  0.00    +0.000 A 
ENDROOT
BRANCH   7  20
ATOM     20  C   UNL     1      -0.971  10.362  18.301  0.00  0.00    +0.000 C 
ATOM     21  O   UNL     1       0.089  10.098  17.740  0.00  0.00    +0.000 OA
ATOM     22  N   UNL     1      -1.033  10.371  19.683  0.00  0.00    +0.000 N 
ATOM     23  H   UNL     1      -1.938  10.505  20.133  0.00  0.00    +0.000 HD
BRANCH  22  24
ATOM     24  C   UNL     1       0.153  10.047  20.442  0.00  0.00    +0.000 C 
BRANCH  24  25
ATOM     25  C   UNL     1       0.493  11.037  21.562  0.00  0.00    +0.000 C 
BRANCH  25  26
ATOM     26  N   UNL     1       0.021  10.656  22.909  0.00  0.00    +0.000 NA
ATOM     27  C   UNL     1      -1.345  11.124  23.163  0.00  0.00    +0.000 C 
ATOM     28  C   UNL     1       0.072   9.197  23.042  0.00  0.00    +0.000 C 
ENDBRANCH  25  26
ENDBRANCH  24  25
ENDBRANCH  22  24
ENDBRANCH   7  20
BRANCH  13  29
ATOM     29  O   UNL     1      -3.348  14.160  24.697  0.00  0.00    +0.000 OA
BRANCH  29  30
ATOM     30  P   UNL     1      -2.213  15.285  24.821  0.00  0.00    +0.000 P 
ATOM     31  O   UNL     1      -2.475  16.634  24.238  0.00  0.00    +0.000 OA
BRANCH  30  32
ATOM     32  O   UNL     1      -1.852  15.319  26.377  0.00  0.00    +0.000 OA
ATOM     33  H   UNL     1      -1.245  14.596  26.610  0.00  0.00    +0.000 HD
ENDBRANCH  30  32
BRANCH  30  34
ATOM     34  O   UNL     1      -0.878  14.633  24.223  0.00  0.00    +0.000 OA
ATOM     35  H   UNL     1      -0.424  14.119  24.918  0.00  0.00    +0.000 HD
ENDBRANCH  30  34
ENDBRANCH  29  30
ENDBRANCH  13  29
TORSDOF 8
ENDMDL
MODEL 5
REMARK VINA RESULT:      -6.1      2.611      5.430
REMARK  Name = 
REMARK  12 active torsions:
REMARK  status: ('A' for Active; 'I' for Inactive)
REMARK    1  A    between atoms: C_1  and  C_2
REMARK    2  A    between atoms: C_7  and  C_8
REMARK    3  A    between atoms: N_10  and  C_11
REMARK    4  A    between atoms: C_11  and  C_12
REMARK    5  A    between atoms: C_12  and  N_13
REMARK    6  A    between atoms: N_13  and  C_14
REMARK    7  A    between atoms: N_13  and  C_15
REMARK    8  A    between atoms: C_21  and  O_22
REMARK    9  A    between atoms: O_22  and  P_23
REMARK   10  A    between atoms: P_23  and  O_25
REMARK   11  A    between atoms: P_23  and  O_26
REMARK   12  A    between atoms: N_30  and  C_31
REMARK                            x       y       z     vdW  Elec       q    Type
REMARK                         _______ _______ _______ _____ _____    ______ ____
ROOT
ATOM      1  C   UNL     1       0.101  10.427  18.588  0.00  0.00    +0.000 C 
ATOM      2  C   UNL     1      -1.242  11.074  18.830  0.00  0.00    +0.000 A 
ATOM      3  C   UNL     1      -2.311  10.989  17.862  0.00  0.00    +0.000 A 
ATOM      4  C   UNL     1      -2.178  10.309  16.628  0.00  0.00    +0.000 A 
ATOM      5  C   UNL     1      -3.225  10.249  15.721  0.00  0.00    +0.000 A 
ATOM      6  N   UNL     1      -4.420  10.814  15.927  0.00  0.00    +0.000 NA
ATOM      7  C   UNL     1      -4.576  11.481  17.110  0.00  0.00    +0.000 A 
ATOM      8  C   UNL     1      -3.567  11.597  18.109  0.00  0.00    +0.000 A 
ATOM      9  C   UNL     1      -3.736  12.283  19.335  0.00  0.00    +0.000 A 
ATOM     10  C   UNL     1      -2.720  12.390  20.297  0.00  0.00    +0.000 A 
ATOM     11  C   UNL     1      -2.678  13.024  21.578  0.00  0.00    +0.000 A 
ATOM     12  C   UNL     1      -3.615  13.751  22.353  0.00  0.00    +0.000 A 
ATOM     13  C   UNL     1      -3.237  14.240  23.609  0.00  0.00    +0.000 A 
ATOM     14  C   UNL     1      -1.942  14.059  24.071  0.00  0.00    +0.000 A 
ATOM     15  C   UNL     1      -1.006  13.348  23.322  0.00  0.00    +0.000 A 
ATOM     16  C   UNL     1      -1.397  12.825  22.082  0.00  0.00    +0.000 A 
ATOM     17  N   UNL     1      -0.703  12.073  21.153  0.00  0.00    +0.000 N 
ATOM     18  C   UNL     1       0.662  11.638  21.357  0.00  0.00    +0.000 C 
ATOM     19  C   UNL     1      -1.489  11.794  20.039  0.00  0.00    +0.000 A 
ENDROOT
BRANCH   7  20
ATOM     20  C   UNL     1      -5.944  12.119  17.255  0.00  0.00    +0.000 C 
ATOM     21  O   UNL     1      -6.915  11.546  17.740  0.00  0.00    +0.000 OA
ATOM     22  N   UNL     1      -6.066  13.424  16.812  0.00  0.00    +0.000 N 
ATOM     23  H   UNL     1      -5.277  13.856  16.333  0.00  0.00    +0.000 HD
BRANCH  22  24
ATOM     24  C   UNL     1      -7.349  14.082  16.908  0.00  0.00    +0.000 C 
BRANCH  24  25
ATOM     25  C   UNL     1      -7.510  15.007  18.119  0.00  0.00    +0.000 C 
BRANCH  25  26
ATOM     26  N   UNL     1      -7.480  16.453  17.820  0.00  0.00    +0.000 NA
ATOM     27  C   UNL     1      -6.272  17.095  18.349  0.00  0.00    +0.000 C 
ATOM     28  C   UNL     1      -7.542  16.646  16.368  0.00  0.00    +0.000 C 
ENDBRANCH  25  26
ENDBRANCH  24  25
ENDBRANCH  22  24
ENDBRANCH   7  20
BRANCH  13  29
ATOM     29  O   UNL     1      -4.184  14.911  24.333  0.00  0.00    +0.000 OA
BRANCH  29  30
ATOM     30  P   UNL     1      -4.612  16.427  24.035  0.00  0.00    +0.000 P 
ATOM     31  O   UNL     1      -3.651  17.313  23.314  0.00  0.00    +0.000 OA
BRANCH  30  32
ATOM     32  O   UNL     1      -6.035  16.308  23.319  0.00  0.00    +0.000 OA
ATOM     33  H   UNL     1      -6.104  15.477  22.817  0.00  0.00    +0.000 HD
ENDBRANCH  30  32
BRANCH  30  34
ATOM     34  O   UNL     1      -5.043  17.048  25.446  0.00  0.00    +0.000 OA
ATOM     35  H   UNL     1      -5.674  17.779  25.304  0.00  0.00    +0.000 HD
ENDBRANCH  30  34
ENDBRANCH  29  30
ENDBRANCH  13  29
TORSDOF 8
ENDMDL
MODEL 6
REMARK VINA RESULT:      -6.1      3.376      6.267
REMARK  Name = 
REMARK  12 active torsions:
REMARK  status: ('A' for Active; 'I' for Inactive)
REMARK    1  A    between atoms: C_1  and  C_2
REMARK    2  A    between atoms: C_7  and  C_8
REMARK    3  A    between atoms: N_10  and  C_11
REMARK    4  A    between atoms: C_11  and  C_12
REMARK    5  A    between atoms: C_12  and  N_13
REMARK    6  A    between atoms: N_13  and  C_14
REMARK    7  A    between atoms: N_13  and  C_15
REMARK    8  A    between atoms: C_21  and  O_22
REMARK    9  A    between atoms: O_22  and  P_23
REMARK   10  A    between atoms: P_23  and  O_25
REMARK   11  A    between atoms: P_23  and  O_26
REMARK   12  A    between atoms: N_30  and  C_31
REMARK                            x       y       z     vdW  Elec       q    Type
REMARK                         _______ _______ _______ _____ _____    ______ ____
ROOT
ATOM      1  C   UNL     1      -5.987  13.310  24.369  0.00  0.00    +0.000 C 
ATOM      2  C   UNL     1      -4.902  13.338  23.321  0.00  0.00    +0.000 A 
ATOM      3  C   UNL     1      -3.574  13.828  23.615  0.00  0.00    +0.000 A 
ATOM      4  C   UNL     1      -3.201  14.319  24.888  0.00  0.00    +0.000 A 
ATOM      5  C   UNL     1      -1.919  14.784  25.135  0.00  0.00    +0.000 A 
ATOM      6  N   UNL     1      -0.948  14.809  24.215  0.00  0.00    +0.000 NA
ATOM      7  C   UNL     1      -1.281  14.344  22.974  0.00  0.00    +0.000 A 
ATOM      8  C   UNL     1      -2.566  13.842  22.619  0.00  0.00    +0.000 A 
ATOM      9  C   UNL     1      -2.903  13.355  21.334  0.00  0.00    +0.000 A 
ATOM     10  C   UNL     1      -4.182  12.876  21.010  0.00  0.00    +0.000 A 
ATOM     11  C   UNL     1      -4.728  12.348  19.799  0.00  0.00    +0.000 A 
ATOM     12  C   UNL     1      -4.206  12.099  18.505  0.00  0.00    +0.000 A 
ATOM     13  C   UNL     1      -5.037  11.549  17.522  0.00  0.00    +0.000 A 
ATOM     14  C   UNL     1      -6.374  11.296  17.796  0.00  0.00    +0.000 A 
ATOM     15  C   UNL     1      -6.905  11.536  19.061  0.00  0.00    +0.000 A 
ATOM     16  C   UNL     1      -6.062  12.050  20.055  0.00  0.00    +0.000 A 
ATOM     17  N   UNL     1      -6.303  12.358  21.382  0.00  0.00    +0.000 N 
ATOM     18  C   UNL     1      -7.584  12.141  22.017  0.00  0.00    +0.000 C 
ATOM     19  C   UNL     1      -5.166  12.874  21.996  0.00  0.00    +0.000 A 
ENDROOT
BRANCH   7  20
ATOM     20  C   UNL     1      -0.139  14.434  21.980  0.00  0.00    +0.000 C 
ATOM     21  O   UNL     1       0.695  13.548  21.817  0.00  0.00    +0.000 OA
ATOM     22  N   UNL     1      -0.066  15.593  21.227  0.00  0.00    +0.000 N 
ATOM     23  H   UNL     1      -0.711  16.355  21.434  0.00  0.00    +0.000 HD
BRANCH  22  24
ATOM     24  C   UNL     1       1.009  15.746  20.274  0.00  0.00    +0.000 C 
BRANCH  24  25
ATOM     25  C   UNL     1       2.132  16.692  20.714  0.00  0.00    +0.000 C 
BRANCH  25  26
ATOM     26  N   UNL     1       3.419  16.041  21.035  0.00  0.00    +0.000 NA
ATOM     27  C   UNL     1       3.498  15.654  22.447  0.00  0.00    +0.000 C 
ATOM     28  C   UNL     1       3.582  14.854  20.191  0.00  0.00    +0.000 C 
ENDBRANCH  25  26
ENDBRANCH  24  25
ENDBRANCH  22  24
ENDBRANCH   7  20
BRANCH  13  29
ATOM     29  O   UNL     1      -4.482  11.300  16.297  0.00  0.00    +0.000 OA
BRANCH  29  30
ATOM     30  P   UNL     1      -3.082  10.543  16.100  0.00  0.00    +0.000 P 
ATOM     31  O   UNL     1      -2.830   9.828  14.815  0.00  0.00    +0.000 OA
BRANCH  30  32
ATOM     32  O   UNL     1      -1.980  11.646  16.447  0.00  0.00    +0.000 OA
ATOM     33  H   UNL     1      -1.101  11.241  16.548  0.00  0.00    +0.000 HD
ENDBRANCH  30  32
BRANCH  30  34
ATOM     34  O   UNL     1      -2.928   9.566  17.359  0.00  0.00    +0.000 OA
ATOM     35  H   UNL     1      -2.935  10.090  18.184  0.00  0.00    +0.000 HD
ENDBRANCH  30  34
ENDBRANCH  29  30
ENDBRANCH  13  29
TORSDOF 8
ENDMDL
MODEL 7
REMARK VINA RESULT:      -6.1      2.154      3.081
REMARK  Name = 
REMARK  12 active torsions:
REMARK  status: ('A' for Active; 'I' for Inactive)
REMARK    1  A    between atoms: C_1  and  C_2
REMARK    2  A    between atoms: C_7  and  C_8
REMARK    3  A    between atoms: N_10  and  C_11
REMARK    4  A    between atoms: C_11  and  C_12
REMARK    5  A    between atoms: C_12  and  N_13
REMARK    6  A    between atoms: N_13  and  C_14
REMARK    7  A    between atoms: N_13  and  C_15
REMARK    8  A    between atoms: C_21  and  O_22
REMARK    9  A    between atoms: O_22  and  P_23
REMARK   10  A    between atoms: P_23  and  O_25
REMARK   11  A    between atoms: P_23  and  O_26
REMARK   12  A    between atoms: N_30  and  C_31
REMARK                            x       y       z     vdW  Elec       q    Type
REMARK                         _______ _______ _______ _____ _____    ______ ____
ROOT
ATOM      1  C   UNL     1      -6.339  12.260  18.769  0.00  0.00    +0.000 C 
ATOM      2  C   UNL     1      -4.891  12.220  19.193  0.00  0.00    +0.000 A 
ATOM      3  C   UNL     1      -3.879  11.582  18.381  0.00  0.00    +0.000 A 
ATOM      4  C   UNL     1      -4.170  10.950  17.149  0.00  0.00    +0.000 A 
ATOM      5  C   UNL     1      -3.174  10.346  16.396  0.00  0.00    +0.000 A 
ATOM      6  N   UNL     1      -1.887  10.309  16.760  0.00  0.00    +0.000 NA
ATOM      7  C   UNL     1      -1.579  10.908  17.948  0.00  0.00    +0.000 A 
ATOM      8  C   UNL     1      -2.524  11.559  18.792  0.00  0.00    +0.000 A 
ATOM      9  C   UNL     1      -2.197  12.184  20.019  0.00  0.00    +0.000 A 
ATOM     10  C   UNL     1      -3.152  12.809  20.836  0.00  0.00    +0.000 A 
ATOM     11  C   UNL     1      -3.043  13.489  22.089  0.00  0.00    +0.000 A 
ATOM     12  C   UNL     1      -1.964  13.798  22.955  0.00  0.00    +0.000 A 
ATOM     13  C   UNL     1      -2.212  14.507  24.136  0.00  0.00    +0.000 A 
ATOM     14  C   UNL     1      -3.508  14.861  24.482  0.00  0.00    +0.000 A 
ATOM     15  C   UNL     1      -4.581  14.564  23.644  0.00  0.00    +0.000 A 
ATOM     16  C   UNL     1      -4.326  13.889  22.443  0.00  0.00    +0.000 A 
ATOM     17  N   UNL     1      -5.174  13.492  21.426  0.00  0.00    +0.000 N 
ATOM     18  C   UNL     1      -6.593  13.773  21.432  0.00  0.00    +0.000 C 
ATOM     19  C   UNL     1      -4.482  12.819  20.423  0.00  0.00    +0.000 A 
ENDROOT
BRANCH   7  20
ATOM     20  C   UNL     1      -0.109  10.796  18.306  0.00  0.00    +0.000 C 
ATOM     21  O   UNL     1       0.500  11.639  18.958  0.00  0.00    +0.000 OA
ATOM     22  N   UNL     1       0.550   9.665  17.860  0.00  0.00    +0.000 N 
ATOM     23  H   UNL     1       0.056   9.018  17.246  0.00  0.00    +0.000 HD
BRANCH  22  24
ATOM     24  C   UNL     1       1.956   9.508  18.154  0.00  0.00    +0.000 C 
BRANCH  24  25
ATOM     25  C   UNL     1       2.597   8.237  17.587  0.00  0.00    +0.000 C 
BRANCH  25  26
ATOM     26  N   UNL     1       2.304   6.994  18.329  0.00  0.00    +0.000 NA
ATOM     27  C   UNL     1       3.299   5.950  18.063  0.00  0.00    +0.000 C 
ATOM     28  C   UNL     1       2.273   7.287  19.766  0.00  0.00    +0.000 C 
ENDBRANCH  25  26
ENDBRANCH  24  25
ENDBRANCH  22  24
ENDBRANCH   7  20
BRANCH  13  29
ATOM     29  O   UNL     1      -1.138  14.807  24.927  0.00  0.00    +0.000 OA
BRANCH  29  30
ATOM     30  P   UNL     1      -0.878  16.262  25.548  0.00  0.00    +0.000 P 
ATOM     31  O   UNL     1      -1.733  17.398  25.091  0.00  0.00    +0.000 OA
BRANCH  30  32
ATOM     32  O   UNL     1      -0.908  16.033  27.129  0.00  0.00    +0.000 OA
ATOM     33  H   UNL     1      -1.009  16.877  27.601  0.00  0.00    +0.000 HD
ENDBRANCH  30  32
BRANCH  30  34
ATOM     34  O   UNL     1       0.677  16.567  25.323  0.00  0.00    +0.000 OA
ATOM     35  H   UNL     1       1.172  16.367  26.140  0.00  0.00    +0.000 HD
ENDBRANCH  30  34
ENDBRANCH  29  30
ENDBRANCH  13  29
TORSDOF 8
ENDMDL
MODEL 8
REMARK VINA RESULT:      -6.0      5.654      8.819
REMARK  Name = 
REMARK  12 active torsions:
REMARK  status: ('A' for Active; 'I' for Inactive)
REMARK    1  A    between atoms: C_1  and  C_2
REMARK    2  A    between atoms: C_7  and  C_8
REMARK    3  A    between atoms: N_10  and  C_11
REMARK    4  A    between atoms: C_11  and  C_12
REMARK    5  A    between atoms: C_12  and  N_13
REMARK    6  A    between atoms: N_13  and  C_14
REMARK    7  A    between atoms: N_13  and  C_15
REMARK    8  A    between atoms: C_21  and  O_22
REMARK    9  A    between atoms: O_22  and  P_23
REMARK   10  A    between atoms: P_23  and  O_25
REMARK   11  A    between atoms: P_23  and  O_26
REMARK   12  A    between atoms: N_30  and  C_31
REMARK                            x       y       z     vdW  Elec       q    Type
REMARK                         _______ _______ _______ _____ _____    ______ ____
ROOT
ATOM      1  C   UNL     1      -0.672  15.345  20.296  0.00  0.00    +0.000 C 
ATOM      2  C   UNL     1       0.335  14.363  19.747  0.00  0.00    +0.000 A 
ATOM      3  C   UNL     1       0.003  12.971  19.540  0.00  0.00    +0.000 A 
ATOM      4  C   UNL     1      -1.270  12.433  19.841  0.00  0.00    +0.000 A 
ATOM      5  C   UNL     1      -1.553  11.091  19.632  0.00  0.00    +0.000 A 
ATOM      6  N   UNL     1      -0.670  10.214  19.141  0.00  0.00    +0.000 NA
ATOM      7  C   UNL     1       0.570  10.706  18.845  0.00  0.00    +0.000 A 
ATOM      8  C   UNL     1       0.960  12.066  19.019  0.00  0.00    +0.000 A 
ATOM      9  C   UNL     1       2.243  12.571  18.704  0.00  0.00    +0.000 A 
ATOM     10  C   UNL     1       2.603  13.915  18.896  0.00  0.00    +0.000 A 
ATOM     11  C   UNL     1       3.820  14.624  18.650  0.00  0.00    +0.000 A 
ATOM     12  C   UNL     1       5.085  14.264  18.124  0.00  0.00    +0.000 A 
ATOM     13  C   UNL     1       6.084  15.238  18.008  0.00  0.00    +0.000 A 
ATOM     14  C   UNL     1       5.855  16.533  18.450  0.00  0.00    +0.000 A 
ATOM     15  C   UNL     1       4.618  16.905  18.972  0.00  0.00    +0.000 A 
ATOM     16  C   UNL     1       3.606  15.938  19.051  0.00  0.00    +0.000 A 
ATOM     17  N   UNL     1       2.299  16.025  19.493  0.00  0.00    +0.000 N 
ATOM     18  C   UNL     1       1.707  17.261  19.956  0.00  0.00    +0.000 C 
ATOM     19  C   UNL     1       1.656  14.793  19.416  0.00  0.00    +0.000 A 
ENDROOT
BRANCH   7  20
ATOM     20  C   UNL     1       1.521   9.646  18.326  0.00  0.00    +0.000 C 
ATOM     21  O   UNL     1       2.132   9.739  17.265  0.00  0.00    +0.000 OA
ATOM     22  N   UNL     1       1.691   8.526  19.120  0.00  0.00    +0.000 N 
ATOM     23  H   UNL     1       1.113   8.422  19.953  0.00  0.00    +0.000 HD
BRANCH  22  24
ATOM     24  C   UNL     1       2.573   7.472  18.671  0.00  0.00    +0.000 C 
BRANCH  24  25
ATOM     25  C   UNL     1       2.593   6.225  19.561  0.00  0.00    +0.000 C 
BRANCH  25  26
ATOM     26  N   UNL     1       2.831   4.949  18.857  0.00  0.00    +0.000 NA
ATOM     27  C   UNL     1       4.045   4.279  19.334  0.00  0.00    +0.000 C 
ATOM     28  C   UNL     1       1.675   4.068  19.054  0.00  0.00    +0.000 C 
ENDBRANCH  25  26
ENDBRANCH  24  25
ENDBRANCH  22  24
ENDBRANCH   7  20
BRANCH  13  29
ATOM     29  O   UNL     1       7.279  14.851  17.468  0.00  0.00    +0.000 OA
BRANCH  29  30
ATOM     30  P   UNL     1       8.524  14.354  18.348  0.00  0.00    +0.000 P 
ATOM     31  O   UNL     1       8.268  13.842  19.726  0.00  0.00    +0.000 OA
BRANCH  30  32
ATOM     32  O   UNL     1       9.287  13.311  17.408  0.00  0.00    +0.000 OA
ATOM     33  H   UNL     1      10.112  13.006  17.824  0.00  0.00    +0.000 HD
ENDBRANCH  30  32
BRANCH  30  34
ATOM     34  O   UNL     1       9.571  15.565  18.354  0.00  0.00    +0.000 OA
ATOM     35  H   UNL     1      10.311  15.357  18.956  0.00  0.00    +0.000 HD
ENDBRANCH  30  34
ENDBRANCH  29  30
ENDBRANCH  13  29
TORSDOF 8
ENDMDL
MODEL 9
REMARK VINA RESULT:      -6.0      2.668      5.488
REMARK  Name = 
REMARK  12 active torsions:
REMARK  status: ('A' for Active; 'I' for Inactive)
REMARK    1  A    between atoms: C_1  and  C_2
REMARK    2  A    between atoms: C_7  and  C_8
REMARK    3  A    between atoms: N_10  and  C_11
REMARK    4  A    between atoms: C_11  and  C_12
REMARK    5  A    between atoms: C_12  and  N_13
REMARK    6  A    between atoms: N_13  and  C_14
REMARK    7  A    between atoms: N_13  and  C_15
REMARK    8  A    between atoms: C_21  and  O_22
REMARK    9  A    between atoms: O_22  and  P_23
REMARK   10  A    between atoms: P_23  and  O_25
REMARK   11  A    between atoms: P_23  and  O_26
REMARK   12  A    between atoms: N_30  and  C_31
REMARK                            x       y       z     vdW  Elec       q    Type
REMARK                         _______ _______ _______ _____ _____    ______ ____
ROOT
ATOM      1  C   UNL     1       1.245  17.303  20.529  0.00  0.00    +0.000 C 
ATOM      2  C   UNL     1       0.501  15.999  20.378  0.00  0.00    +0.000 A 
ATOM      3  C   UNL     1       1.097  14.855  19.726  0.00  0.00    +0.000 A 
ATOM      4  C   UNL     1       2.402  14.877  19.181  0.00  0.00    +0.000 A 
ATOM      5  C   UNL     1       2.942  13.761  18.559  0.00  0.00    +0.000 A 
ATOM      6  N   UNL     1       2.294  12.598  18.425  0.00  0.00    +0.000 NA
ATOM      7  C   UNL     1       1.029  12.550  18.939  0.00  0.00    +0.000 A 
ATOM      8  C   UNL     1       0.385  13.637  19.599  0.00  0.00    +0.000 A 
ATOM      9  C   UNL     1      -0.923  13.579  20.136  0.00  0.00    +0.000 A 
ATOM     10  C   UNL     1      -1.536  14.670  20.772  0.00  0.00    +0.000 A 
ATOM     11  C   UNL     1      -2.823  14.826  21.375  0.00  0.00    +0.000 A 
ATOM     12  C   UNL     1      -3.934  13.969  21.571  0.00  0.00    +0.000 A 
ATOM     13  C   UNL     1      -5.070  14.454  22.228  0.00  0.00    +0.000 A 
ATOM     14  C   UNL     1      -5.129  15.778  22.640  0.00  0.00    +0.000 A 
ATOM     15  C   UNL     1      -4.047  16.636  22.455  0.00  0.00    +0.000 A 
ATOM     16  C   UNL     1      -2.896  16.138  21.832  0.00  0.00    +0.000 A 
ATOM     17  N   UNL     1      -1.686  16.740  21.542  0.00  0.00    +0.000 N 
ATOM     18  C   UNL     1      -1.382  18.107  21.908  0.00  0.00    +0.000 C 
ATOM     19  C   UNL     1      -0.828  15.864  20.884  0.00  0.00    +0.000 A 
ENDROOT
BRANCH   7  20
ATOM     20  C   UNL     1       0.349  11.213  18.720  0.00  0.00    +0.000 C 
ATOM     21  O   UNL     1       0.646  10.189  19.329  0.00  0.00    +0.000 OA
ATOM     22  N   UNL     1      -0.662  11.182  17.776  0.00  0.00    +0.000 N 
ATOM     23  H   UNL     1      -0.838  12.016  17.217  0.00  0.00    +0.000 HD
BRANCH  22  24
ATOM     24  C   UNL     1      -1.337   9.932  17.510  0.00  0.00    +0.000 C 
BRANCH  24  25
ATOM     25  C   UNL     1      -2.867  10.019  17.479  0.00  0.00    +0.000 C 
BRANCH  25  26
ATOM     26  N   UNL     1      -3.424  11.065  16.597  0.00  0.00    +0.000 NA
ATOM     27  C   UNL     1      -3.401  10.661  15.188  0.00  0.00    +0.000 C 
ATOM     28  C   UNL     1      -4.804  11.352  17.003  0.00  0.00    +0.000 C 
ENDBRANCH  25  26
ENDBRANCH  24  25
ENDBRANCH  22  24
ENDBRANCH   7  20
BRANCH  13  29
ATOM     29  O   UNL     1      -6.106  13.583  22.420  0.00  0.00    +0.000 OA
BRANCH  29  30
ATOM     30  P   UNL     1      -6.503  12.986  23.854  0.00  0.00    +0.000 P 
ATOM     31  O   UNL     1      -7.191  11.663  23.913  0.00  0.00    +0.000 OA
BRANCH  30  32
ATOM     32  O   UNL     1      -5.149  13.042  24.700  0.00  0.00    +0.000 OA
ATOM     33  H   UNL     1      -4.538  13.707  24.336  0.00  0.00    +0.000 HD
ENDBRANCH  30  32
BRANCH  30  34
ATOM     34  O   UNL     1      -7.356  14.127  24.586  0.00  0.00    +0.000 OA
ATOM     35  H   UNL     1      -8.067  14.436  23.993  0.00  0.00    +0.000 HD
ENDBRANCH  30  34
ENDBRANCH  29  30
ENDBRANCH  13  29
TORSDOF 8
ENDMDL
