MODEL 1
REMARK VINA RESULT:      -8.2      0.000      0.000
REMARK  Name = 
REMARK  3 active torsions:
REMARK  status: ('A' for Active; 'I' for Inactive)
REMARK    1  A    between atoms: C_1  and  C_2
REMARK    2  A    between atoms: C_7  and  C_9
REMARK    3  A    between atoms: C_12  and  O_13
REMARK                            x       y       z     vdW  Elec       q    Type
REMARK                         _______ _______ _______ _____ _____    ______ ____
ROOT
ATOM      1  C   UNL     1       4.746   3.784  16.945  0.00  0.00    +0.000 A 
ATOM      2  C   UNL     1       4.895   3.582  15.580  0.00  0.00    +0.000 A 
ATOM      3  N   UNL     1       5.806   4.213  14.813  0.00  0.00    +0.000 NA
ATOM      4  C   UNL     1       6.670   5.002  15.484  0.00  0.00    +0.000 A 
ATOM      5  C   UNL     1       6.740   5.200  16.863  0.00  0.00    +0.000 A 
ATOM      6  N   UNL     1       7.730   5.937  17.430  0.00  0.00    +0.000 NA
ATOM      7  C   UNL     1       7.779   6.041  18.769  0.00  0.00    +0.000 A 
ATOM      8  C   UNL     1       6.843   5.478  19.605  0.00  0.00    +0.000 A 
ATOM      9  C   UNL     1       5.804   4.758  19.025  0.00  0.00    +0.000 A 
ATOM     10  C   UNL     1       5.728   4.567  17.623  0.00  0.00    +0.000 A 
ENDROOT
BRANCH   1  17
ATOM     11  C   UNL     1       2.613   3.121  21.292  0.00  0.00    +0.000 C 
ATOM     12  C   UNL     1       1.410   3.533  20.438  0.00  0.00    +0.000 C 
ATOM     13  C   UNL     1       1.184   5.051  20.477  0.00  0.00    +0.000 C 
ATOM     14  C   UNL     1       2.238   5.809  19.678  0.00  0.00    +0.000 C 
ATOM     15  C   UNL     1       2.373   5.256  18.267  0.00  0.00    +0.000 C 
ATOM     16  N   UNL     1       2.594   3.806  18.265  0.00  0.00    +0.000 N 
ATOM     17  C   UNL     1       3.639   3.090  17.659  0.00  0.00    +0.000 C 
ATOM     18  O   UNL     1       3.689   1.861  17.699  0.00  0.00    +0.000 OA
ATOM     19  C   UNL     1       1.567   3.044  18.987  0.00  0.00    +0.000 C 
ENDBRANCH   1  17
BRANCH   4  20
ATOM     20  O   UNL     1       7.543   5.623  14.638  0.00  0.00    +0.000 OA
ATOM     21  H   UNL     1       8.299   5.760  15.235  0.00  0.00    +0.000 HD
ENDBRANCH   4  20
TORSDOF 2
ENDMDL
MODEL 2
REMARK VINA RESULT:      -7.8      1.582      2.825
REMARK  Name = 
REMARK  3 active torsions:
REMARK  status: ('A' for Active; 'I' for Inactive)
REMARK    1  A    between atoms: C_1  and  C_2
REMARK    2  A    between atoms: C_7  and  C_9
REMARK    3  A    between atoms: C_12  and  O_13
REMARK                            x       y       z     vdW  Elec       q    Type
REMARK                         _______ _______ _______ _____ _____    ______ ____
ROOT
ATOM      1  C   UNL     1       5.575   4.423  18.223  0.00  0.00    +0.000 A 
ATOM      2  C   UNL     1       5.837   5.529  19.021  0.00  0.00    +0.000 A 
ATOM      3  N   UNL     1       6.620   6.563  18.654  0.00  0.00    +0.000 NA
ATOM      4  C   UNL     1       7.065   6.519  17.382  0.00  0.00    +0.000 A 
ATOM      5  C   UNL     1       6.777   5.554  16.418  0.00  0.00    +0.000 A 
ATOM      6  N   UNL     1       7.200   5.680  15.132  0.00  0.00    +0.000 NA
ATOM      7  C   UNL     1       6.840   4.747  14.234  0.00  0.00    +0.000 A 
ATOM      8  C   UNL     1       6.099   3.634  14.557  0.00  0.00    +0.000 A 
ATOM      9  C   UNL     1       5.701   3.481  15.881  0.00  0.00    +0.000 A 
ATOM     10  C   UNL     1       6.003   4.456  16.863  0.00  0.00    +0.000 A 
ENDROOT
BRANCH   1  17
ATOM     11  C   UNL     1       1.620   3.312  20.870  0.00  0.00    +0.000 C 
ATOM     12  C   UNL     1       1.376   2.469  19.615  0.00  0.00    +0.000 C 
ATOM     13  C   UNL     1       0.552   3.236  18.571  0.00  0.00    +0.000 C 
ATOM     14  C   UNL     1       1.363   4.334  17.894  0.00  0.00    +0.000 C 
ATOM     15  C   UNL     1       2.679   3.800  17.347  0.00  0.00    +0.000 C 
ATOM     16  N   UNL     1       3.444   3.078  18.370  0.00  0.00    +0.000 N 
ATOM     17  C   UNL     1       4.766   3.306  18.784  0.00  0.00    +0.000 C 
ATOM     18  O   UNL     1       5.309   2.599  19.632  0.00  0.00    +0.000 OA
ATOM     19  C   UNL     1       2.704   1.981  19.007  0.00  0.00    +0.000 C 
ENDBRANCH   1  17
BRANCH   4  20
ATOM     20  O   UNL     1       7.868   7.585  17.095  0.00  0.00    +0.000 OA
ATOM     21  H   UNL     1       7.198   8.260  16.895  0.00  0.00    +0.000 HD
ENDBRANCH   4  20
TORSDOF 2
ENDMDL
MODEL 3
REMARK VINA RESULT:      -7.8      1.287      2.573
REMARK  Name = 
REMARK  3 active torsions:
REMARK  status: ('A' for Active; 'I' for Inactive)
REMARK    1  A    between atoms: C_1  and  C_2
REMARK    2  A    between atoms: C_7  and  C_9
REMARK    3  A    between atoms: C_12  and  O_13
REMARK                            x       y       z     vdW  Elec       q    Type
REMARK                         _______ _______ _______ _____ _____    ______ ____
ROOT
ATOM      1  C   UNL     1       5.308   4.243  18.185  0.00  0.00    +0.000 A 
ATOM      2  C   UNL     1       5.729   5.107  19.187  0.00  0.00    +0.000 A 
ATOM      3  N   UNL     1       6.745   5.984  19.058  0.00  0.00    +0.000 NA
ATOM      4  C   UNL     1       7.281   6.058  17.822  0.00  0.00    +0.000 A 
ATOM      5  C   UNL     1       6.880   5.363  16.682  0.00  0.00    +0.000 A 
ATOM      6  N   UNL     1       7.432   5.606  15.465  0.00  0.00    +0.000 NA
ATOM      7  C   UNL     1       6.961   4.947  14.392  0.00  0.00    +0.000 A 
ATOM      8  C   UNL     1       5.973   3.993  14.466  0.00  0.00    +0.000 A 
ATOM      9  C   UNL     1       5.436   3.710  15.718  0.00  0.00    +0.000 A 
ATOM     10  C   UNL     1       5.852   4.409  16.878  0.00  0.00    +0.000 A 
ENDROOT
BRANCH   1  17
ATOM     11  C   UNL     1       2.219   2.658  21.625  0.00  0.00    +0.000 C 
ATOM     12  C   UNL     1       1.254   2.913  20.463  0.00  0.00    +0.000 C 
ATOM     13  C   UNL     1       0.685   4.338  20.505  0.00  0.00    +0.000 C 
ATOM     14  C   UNL     1       1.721   5.382  20.108  0.00  0.00    +0.000 C 
ATOM     15  C   UNL     1       2.383   5.037  18.782  0.00  0.00    +0.000 C 
ATOM     16  N   UNL     1       2.921   3.672  18.777  0.00  0.00    +0.000 N 
ATOM     17  C   UNL     1       4.232   3.260  18.489  0.00  0.00    +0.000 C 
ATOM     18  O   UNL     1       4.548   2.071  18.482  0.00  0.00    +0.000 OA
ATOM     19  C   UNL     1       1.932   2.638  19.109  0.00  0.00    +0.000 C 
ENDBRANCH   1  17
BRANCH   4  20
ATOM     20  O   UNL     1       8.316   6.947  17.778  0.00  0.00    +0.000 OA
ATOM     21  H   UNL     1       9.067   6.349  17.933  0.00  0.00    +0.000 HD
ENDBRANCH   4  20
TORSDOF 2
ENDMDL
MODEL 4
REMARK VINA RESULT:      -7.2      3.311      5.024
REMARK  Name = 
REMARK  3 active torsions:
REMARK  status: ('A' for Active; 'I' for Inactive)
REMARK    1  A    between atoms: C_1  and  C_2
REMARK    2  A    between atoms: C_7  and  C_9
REMARK    3  A    between atoms: C_12  and  O_13
REMARK                            x       y       z     vdW  Elec       q    Type
REMARK                         _______ _______ _______ _____ _____    ______ ____
ROOT
ATOM      1  C   UNL     1       3.085   6.780  18.723  0.00  0.00    +0.000 A 
ATOM      2  C   UNL     1       3.563   7.428  17.592  0.00  0.00    +0.000 A 
ATOM      3  N   UNL     1       3.084   8.599  17.127  0.00  0.00    +0.000 NA
ATOM      4  C   UNL     1       2.154   9.186  17.908  0.00  0.00    +0.000 A 
ATOM      5  C   UNL     1       1.673   8.734  19.136  0.00  0.00    +0.000 A 
ATOM      6  N   UNL     1       0.811   9.474  19.882  0.00  0.00    +0.000 NA
ATOM      7  C   UNL     1       0.430   9.014  21.086  0.00  0.00    +0.000 A 
ATOM      8  C   UNL     1       0.830   7.798  21.590  0.00  0.00    +0.000 A 
ATOM      9  C   UNL     1       1.678   7.018  20.810  0.00  0.00    +0.000 A 
ATOM     10  C   UNL     1       2.157   7.473  19.556  0.00  0.00    +0.000 A 
ENDROOT
BRANCH   1  17
ATOM     11  C   UNL     1       2.361   2.746  21.384  0.00  0.00    +0.000 C 
ATOM     12  C   UNL     1       2.579   2.141  19.994  0.00  0.00    +0.000 C 
ATOM     13  C   UNL     1       1.253   1.970  19.239  0.00  0.00    +0.000 C 
ATOM     14  C   UNL     1       0.685   3.303  18.768  0.00  0.00    +0.000 C 
ATOM     15  C   UNL     1       1.718   4.108  17.993  0.00  0.00    +0.000 C 
ATOM     16  N   UNL     1       2.970   4.259  18.744  0.00  0.00    +0.000 N 
ATOM     17  C   UNL     1       3.642   5.445  19.077  0.00  0.00    +0.000 C 
ATOM     18  O   UNL     1       4.713   5.433  19.683  0.00  0.00    +0.000 OA
ATOM     19  C   UNL     1       3.567   2.987  19.170  0.00  0.00    +0.000 C 
ENDBRANCH   1  17
BRANCH   4  20
ATOM     20  O   UNL     1       1.701  10.351  17.359  0.00  0.00    +0.000 OA
ATOM     21  H   UNL     1       0.742  10.230  17.457  0.00  0.00    +0.000 HD
ENDBRANCH   4  20
TORSDOF 2
ENDMDL
MODEL 5
REMARK VINA RESULT:      -6.8      1.772      5.530
REMARK  Name = 
REMARK  3 active torsions:
REMARK  status: ('A' for Active; 'I' for Inactive)
REMARK    1  A    between atoms: C_1  and  C_2
REMARK    2  A    between atoms: C_7  and  C_9
REMARK    3  A    between atoms: C_12  and  O_13
REMARK                            x       y       z     vdW  Elec       q    Type
REMARK                         _______ _______ _______ _____ _____    ______ ____
ROOT
ATOM      1  C   UNL     1       3.352   3.996  17.702  0.00  0.00    +0.000 A 
ATOM      2  C   UNL     1       2.740   2.799  17.356  0.00  0.00    +0.000 A 
ATOM      3  N   UNL     1       1.703   2.253  18.023  0.00  0.00    +0.000 NA
ATOM      4  C   UNL     1       1.202   3.014  19.018  0.00  0.00    +0.000 A 
ATOM      5  C   UNL     1       1.612   4.291  19.396  0.00  0.00    +0.000 A 
ATOM      6  N   UNL     1       0.952   5.001  20.348  0.00  0.00    +0.000 NA
ATOM      7  C   UNL     1       1.358   6.252  20.627  0.00  0.00    +0.000 A 
ATOM      8  C   UNL     1       2.448   6.843  20.030  0.00  0.00    +0.000 A 
ATOM      9  C   UNL     1       3.152   6.102  19.086  0.00  0.00    +0.000 A 
ATOM     10  C   UNL     1       2.741   4.799  18.710  0.00  0.00    +0.000 A 
ENDROOT
BRANCH   1  17
ATOM     11  C   UNL     1       6.681   7.541  17.227  0.00  0.00    +0.000 C 
ATOM     12  C   UNL     1       7.584   6.310  17.351  0.00  0.00    +0.000 C 
ATOM     13  C   UNL     1       7.973   6.040  18.812  0.00  0.00    +0.000 C 
ATOM     14  C   UNL     1       6.806   5.489  19.623  0.00  0.00    +0.000 C 
ATOM     15  C   UNL     1       6.167   4.289  18.939  0.00  0.00    +0.000 C 
ATOM     16  N   UNL     1       5.802   4.583  17.548  0.00  0.00    +0.000 N 
ATOM     17  C   UNL     1       4.547   4.441  16.935  0.00  0.00    +0.000 C 
ATOM     18  O   UNL     1       4.381   4.687  15.740  0.00  0.00    +0.000 OA
ATOM     19  C   UNL     1       6.918   5.070  16.728  0.00  0.00    +0.000 C 
ENDBRANCH   1  17
BRANCH   4  20
ATOM     20  O   UNL     1       0.174   2.385  19.660  0.00  0.00    +0.000 OA
ATOM     21  H   UNL     1      -0.122   1.776  18.962  0.00  0.00    +0.000 HD
ENDBRANCH   4  20
TORSDOF 2
ENDMDL
MODEL 6
REMARK VINA RESULT:      -6.7      1.764      3.176
REMARK  Name = 
REMARK  3 active torsions:
REMARK  status: ('A' for Active; 'I' for Inactive)
REMARK    1  A    between atoms: C_1  and  C_2
REMARK    2  A    between atoms: C_7  and  C_9
REMARK    3  A    between atoms: C_12  and  O_13
REMARK                            x       y       z     vdW  Elec       q    Type
REMARK                         _______ _______ _______ _____ _____    ______ ____
ROOT
ATOM      1  C   UNL     1       4.904   4.961  18.328  0.00  0.00    +0.000 A 
ATOM      2  C   UNL     1       5.783   5.140  19.388  0.00  0.00    +0.000 A 
ATOM      3  N   UNL     1       7.112   4.924  19.319  0.00  0.00    +0.000 NA
ATOM      4  C   UNL     1       7.577   4.619  18.090  0.00  0.00    +0.000 A 
ATOM      5  C   UNL     1       6.848   4.539  16.904  0.00  0.00    +0.000 A 
ATOM      6  N   UNL     1       7.453   4.330  15.706  0.00  0.00    +0.000 NA
ATOM      7  C   UNL     1       6.704   4.324  14.590  0.00  0.00    +0.000 A 
ATOM      8  C   UNL     1       5.336   4.471  14.598  0.00  0.00    +0.000 A 
ATOM      9  C   UNL     1       4.709   4.643  15.827  0.00  0.00    +0.000 A 
ATOM     10  C   UNL     1       5.449   4.712  17.034  0.00  0.00    +0.000 A 
ENDROOT
BRANCH   1  17
ATOM     11  C   UNL     1       0.623   2.651  18.794  0.00  0.00    +0.000 C 
ATOM     12  C   UNL     1       0.638   3.496  20.072  0.00  0.00    +0.000 C 
ATOM     13  C   UNL     1       1.262   2.730  21.247  0.00  0.00    +0.000 C 
ATOM     14  C   UNL     1       2.773   2.594  21.105  0.00  0.00    +0.000 C 
ATOM     15  C   UNL     1       3.433   3.940  20.845  0.00  0.00    +0.000 C 
ATOM     16  N   UNL     1       2.818   4.643  19.713  0.00  0.00    +0.000 N 
ATOM     17  C   UNL     1       3.446   5.147  18.563  0.00  0.00    +0.000 C 
ATOM     18  O   UNL     1       2.817   5.755  17.698  0.00  0.00    +0.000 OA
ATOM     19  C   UNL     1       1.368   4.832  19.845  0.00  0.00    +0.000 C 
ENDBRANCH   1  17
BRANCH   4  20
ATOM     20  O   UNL     1       8.923   4.392  18.106  0.00  0.00    +0.000 OA
ATOM     21  H   UNL     1       8.984   3.754  18.838  0.00  0.00    +0.000 HD
ENDBRANCH   4  20
TORSDOF 2
ENDMDL
MODEL 7
REMARK VINA RESULT:      -6.7      1.233      1.470
REMARK  Name = 
REMARK  3 active torsions:
REMARK  status: ('A' for Active; 'I' for Inactive)
REMARK    1  A    between atoms: C_1  and  C_2
REMARK    2  A    between atoms: C_7  and  C_9
REMARK    3  A    between atoms: C_12  and  O_13
REMARK                            x       y       z     vdW  Elec       q    Type
REMARK                         _______ _______ _______ _____ _____    ______ ____
ROOT
ATOM      1  C   UNL     1       5.309   3.947  17.591  0.00  0.00    +0.000 A 
ATOM      2  C   UNL     1       5.123   3.446  16.309  0.00  0.00    +0.000 A 
ATOM      3  N   UNL     1       5.589   4.033  15.188  0.00  0.00    +0.000 NA
ATOM      4  C   UNL     1       6.367   5.116  15.392  0.00  0.00    +0.000 A 
ATOM      5  C   UNL     1       6.760   5.658  16.615  0.00  0.00    +0.000 A 
ATOM      6  N   UNL     1       7.640   6.690  16.690  0.00  0.00    +0.000 NA
ATOM      7  C   UNL     1       8.028   7.130  17.899  0.00  0.00    +0.000 A 
ATOM      8  C   UNL     1       7.541   6.619  19.080  0.00  0.00    +0.000 A 
ATOM      9  C   UNL     1       6.607   5.590  19.006  0.00  0.00    +0.000 A 
ATOM     10  C   UNL     1       6.199   5.048  17.762  0.00  0.00    +0.000 A 
ENDROOT
BRANCH   1  17
ATOM     11  C   UNL     1       1.974   4.365  21.138  0.00  0.00    +0.000 C 
ATOM     12  C   UNL     1       1.527   3.060  20.472  0.00  0.00    +0.000 C 
ATOM     13  C   UNL     1       0.492   3.316  19.367  0.00  0.00    +0.000 C 
ATOM     14  C   UNL     1       1.118   3.945  18.129  0.00  0.00    +0.000 C 
ATOM     15  C   UNL     1       2.325   3.151  17.649  0.00  0.00    +0.000 C 
ATOM     16  N   UNL     1       3.297   2.930  18.726  0.00  0.00    +0.000 N 
ATOM     17  C   UNL     1       4.664   3.249  18.736  0.00  0.00    +0.000 C 
ATOM     18  O   UNL     1       5.384   2.973  19.695  0.00  0.00    +0.000 OA
ATOM     19  C   UNL     1       2.732   2.280  19.916  0.00  0.00    +0.000 C 
ENDBRANCH   1  17
BRANCH   4  20
ATOM     20  O   UNL     1       6.778   5.667  14.212  0.00  0.00    +0.000 OA
ATOM     21  H   UNL     1       7.723   5.796  14.399  0.00  0.00    +0.000 HD
ENDBRANCH   4  20
TORSDOF 2
ENDMDL
MODEL 8
REMARK VINA RESULT:      -6.7      1.993      5.681
REMARK  Name = 
REMARK  3 active torsions:
REMARK  status: ('A' for Active; 'I' for Inactive)
REMARK    1  A    between atoms: C_1  and  C_2
REMARK    2  A    between atoms: C_7  and  C_9
REMARK    3  A    between atoms: C_12  and  O_13
REMARK                            x       y       z     vdW  Elec       q    Type
REMARK                         _______ _______ _______ _____ _____    ______ ____
ROOT
ATOM      1  C   UNL     1       3.090   3.575  18.589  0.00  0.00    +0.000 A 
ATOM      2  C   UNL     1       2.743   2.336  19.112  0.00  0.00    +0.000 A 
ATOM      3  N   UNL     1       2.162   2.154  20.314  0.00  0.00    +0.000 NA
ATOM      4  C   UNL     1       1.821   3.288  20.961  0.00  0.00    +0.000 A 
ATOM      5  C   UNL     1       1.973   4.598  20.510  0.00  0.00    +0.000 A 
ATOM      6  N   UNL     1       1.489   5.656  21.211  0.00  0.00    +0.000 NA
ATOM      7  C   UNL     1       1.612   6.892  20.695  0.00  0.00    +0.000 A 
ATOM      8  C   UNL     1       2.253   7.153  19.506  0.00  0.00    +0.000 A 
ATOM      9  C   UNL     1       2.788   6.075  18.807  0.00  0.00    +0.000 A 
ATOM     10  C   UNL     1       2.643   4.745  19.272  0.00  0.00    +0.000 A 
ENDROOT
BRANCH   1  17
ATOM     11  C   UNL     1       5.246   6.540  15.357  0.00  0.00    +0.000 C 
ATOM     12  C   UNL     1       6.356   5.511  15.594  0.00  0.00    +0.000 C 
ATOM     13  C   UNL     1       7.295   5.945  16.729  0.00  0.00    +0.000 C 
ATOM     14  C   UNL     1       6.637   5.817  18.097  0.00  0.00    +0.000 C 
ATOM     15  C   UNL     1       6.044   4.431  18.304  0.00  0.00    +0.000 C 
ATOM     16  N   UNL     1       5.148   4.050  17.207  0.00  0.00    +0.000 N 
ATOM     17  C   UNL     1       3.810   3.630  17.287  0.00  0.00    +0.000 C 
ATOM     18  O   UNL     1       3.176   3.299  16.286  0.00  0.00    +0.000 OA
ATOM     19  C   UNL     1       5.769   4.117  15.878  0.00  0.00    +0.000 C 
ENDBRANCH   1  17
BRANCH   4  20
ATOM     20  O   UNL     1       1.262   3.022  22.178  0.00  0.00    +0.000 OA
ATOM     21  H   UNL     1       1.942   3.389  22.768  0.00  0.00    +0.000 HD
ENDBRANCH   4  20
TORSDOF 2
ENDMDL
MODEL 9
REMARK VINA RESULT:      -6.5      1.721      2.270
REMARK  Name = 
REMARK  3 active torsions:
REMARK  status: ('A' for Active; 'I' for Inactive)
REMARK    1  A    between atoms: C_1  and  C_2
REMARK    2  A    between atoms: C_7  and  C_9
REMARK    3  A    between atoms: C_12  and  O_13
REMARK                            x       y       z     vdW  Elec       q    Type
REMARK                         _______ _______ _______ _____ _____    ______ ____
ROOT
ATOM      1  C   UNL     1       4.191   5.011  17.247  0.00  0.00    +0.000 A 
ATOM      2  C   UNL     1       4.119   3.863  16.470  0.00  0.00    +0.000 A 
ATOM      3  N   UNL     1       4.992   3.551  15.491  0.00  0.00    +0.000 NA
ATOM      4  C   UNL     1       6.041   4.391  15.373  0.00  0.00    +0.000 A 
ATOM      5  C   UNL     1       6.328   5.503  16.164  0.00  0.00    +0.000 A 
ATOM      6  N   UNL     1       7.480   6.208  16.014  0.00  0.00    +0.000 NA
ATOM      7  C   UNL     1       7.729   7.233  16.846  0.00  0.00    +0.000 A 
ATOM      8  C   UNL     1       6.851   7.645  17.822  0.00  0.00    +0.000 A 
ATOM      9  C   UNL     1       5.652   6.951  17.950  0.00  0.00    +0.000 A 
ATOM     10  C   UNL     1       5.355   5.828  17.138  0.00  0.00    +0.000 A 
ENDROOT
BRANCH   1  17
ATOM     11  C   UNL     1       0.507   3.012  19.759  0.00  0.00    +0.000 C 
ATOM     12  C   UNL     1       1.301   3.677  20.888  0.00  0.00    +0.000 C 
ATOM     13  C   UNL     1       2.333   2.715  21.494  0.00  0.00    +0.000 C 
ATOM     14  C   UNL     1       3.513   2.478  20.560  0.00  0.00    +0.000 C 
ATOM     15  C   UNL     1       4.120   3.789  20.083  0.00  0.00    +0.000 C 
ATOM     16  N   UNL     1       3.110   4.682  19.504  0.00  0.00    +0.000 N 
ATOM     17  C   UNL     1       3.110   5.281  18.234  0.00  0.00    +0.000 C 
ATOM     18  O   UNL     1       2.213   6.047  17.882  0.00  0.00    +0.000 OA
ATOM     19  C   UNL     1       1.982   4.968  20.400  0.00  0.00    +0.000 C 
ENDBRANCH   1  17
BRANCH   4  20
ATOM     20  O   UNL     1       6.864   4.023  14.348  0.00  0.00    +0.000 OA
ATOM     21  H   UNL     1       7.631   4.594  14.525  0.00  0.00    +0.000 HD
ENDBRANCH   4  20
TORSDOF 2
ENDMDL
