MODEL 1
REMARK VINA RESULT:      -7.9      0.000      0.000
REMARK  Name = 
REMARK  14 active torsions:
REMARK  status: ('A' for Active; 'I' for Inactive)
REMARK    1  A    between atoms: C_1  and  C_2
REMARK    2  A    between atoms: C_6  and  C_7
REMARK    3  A    between atoms: C_8  and  N_9
REMARK    4  A    between atoms: N_9  and  C_10
REMARK    5  A    between atoms: C_15  and  C_16
REMARK    6  A    between atoms: N_18  and  C_19
REMARK    7  A    between atoms: N_18  and  C_20
REMARK    8  A    between atoms: C_20  and  C_21
REMARK    9  A    between atoms: C_21  and  C_22
REMARK   10  A    between atoms: C_22  and  C_23
REMARK   11  A    between atoms: C_23  and  C_24
REMARK   12  A    between atoms: C_24  and  C_25
REMARK   13  A    between atoms: C_25  and  C_26
REMARK   14  A    between atoms: N_28  and  O_29
REMARK                            x       y       z     vdW  Elec       q    Type
REMARK                         _______ _______ _______ _____ _____    ______ ____
ROOT
ATOM      1  C   UNL     1       2.719   4.971  19.911  0.00  0.00    +0.000 A 
ATOM      2  C   UNL     1       1.418   4.446  20.046  0.00  0.00    +0.000 A 
ATOM      3  C   UNL     1       1.099   3.153  19.630  0.00  0.00    +0.000 A 
ATOM      4  C   UNL     1       2.106   2.300  19.209  0.00  0.00    +0.000 A 
ATOM      5  C   UNL     1       3.426   2.744  19.213  0.00  0.00    +0.000 A 
ATOM      6  C   UNL     1       3.738   4.097  19.443  0.00  0.00    +0.000 A 
ENDROOT
BRANCH   6   7
ATOM      7  C   UNL     1       5.138   4.568  19.173  0.00  0.00    +0.000 C 
ATOM      8  O   UNL     1       5.683   5.215  20.071  0.00  0.00    +0.000 OA
ATOM      9  N   UNL     1       5.798   4.282  17.950  0.00  0.00    +0.000 N 
ATOM     10  C   UNL     1       7.214   4.620  17.842  0.00  0.00    +0.000 C 
BRANCH   9  11
ATOM     11  C   UNL     1       5.249   3.637  16.746  0.00  0.00    +0.000 C 
BRANCH  11  12
ATOM     12  C   UNL     1       5.324   4.443  15.455  0.00  0.00    +0.000 C 
BRANCH  12  13
ATOM     13  C   UNL     1       6.196   3.784  14.399  0.00  0.00    +0.000 C 
BRANCH  13  14
ATOM     14  C   UNL     1       5.990   4.507  13.069  0.00  0.00    +0.000 C 
BRANCH  14  15
ATOM     15  C   UNL     1       6.381   3.660  11.867  0.00  0.00    +0.000 C 
BRANCH  15  16
ATOM     16  C   UNL     1       5.526   2.405  11.751  0.00  0.00    +0.000 C 
BRANCH  16  17
ATOM     17  C   UNL     1       6.332   1.213  11.299  0.00  0.00    +0.000 C 
ATOM     18  O   UNL     1       7.422   1.271  10.758  0.00  0.00    +0.000 OA
ATOM     19  N   UNL     1       5.713   0.015  11.566  0.00  0.00    +0.000 N 
ATOM     20  H   UNL     1       4.708  -0.081  11.690  0.00  0.00    +0.000 HD
BRANCH  19  21
ATOM     21  O   UNL     1       6.385  -1.130  11.065  0.00  0.00    +0.000 OA
ATOM     22  H   UNL     1       7.085  -1.266  11.742  0.00  0.00    +0.000 HD
ENDBRANCH  19  21
ENDBRANCH  16  17
ENDBRANCH  15  16
ENDBRANCH  14  15
ENDBRANCH  13  14
ENDBRANCH  12  13
ENDBRANCH  11  12
ENDBRANCH   9  11
ENDBRANCH   6   7
BRANCH   1  23
ATOM     23  N   UNL     1       2.924   6.355  20.148  0.00  0.00    +0.000 N 
ATOM     24  H   UNL     1       3.671   6.535  20.822  0.00  0.00    +0.000 HD
BRANCH  23  32
ATOM     25  C   UNL     1       0.939   8.053  21.745  0.00  0.00    +0.000 C 
ATOM     26  C   UNL     1       1.415   8.342  20.349  0.00  0.00    +0.000 A 
ATOM     27  C   UNL     1       0.771   9.432  19.722  0.00  0.00    +0.000 A 
ATOM     28  C   UNL     1       1.018   9.756  18.399  0.00  0.00    +0.000 A 
ATOM     29  C   UNL     1       1.937   9.006  17.682  0.00  0.00    +0.000 A 
ATOM     30  C   UNL     1       2.593   7.904  18.269  0.00  0.00    +0.000 A 
ATOM     31  C   UNL     1       3.586   7.165  17.408  0.00  0.00    +0.000 C 
ATOM     32  C   UNL     1       2.310   7.522  19.611  0.00  0.00    +0.000 A 
ENDBRANCH  23  32
ENDBRANCH   1  23
TORSDOF 11
ENDMDL
MODEL 2
REMARK VINA RESULT:      -7.7      1.064      1.969
REMARK  Name = 
REMARK  14 active torsions:
REMARK  status: ('A' for Active; 'I' for Inactive)
REMARK    1  A    between atoms: C_1  and  C_2
REMARK    2  A    between atoms: C_6  and  C_7
REMARK    3  A    between atoms: C_8  and  N_9
REMARK    4  A    between atoms: N_9  and  C_10
REMARK    5  A    between atoms: C_15  and  C_16
REMARK    6  A    between atoms: N_18  and  C_19
REMARK    7  A    between atoms: N_18  and  C_20
REMARK    8  A    between atoms: C_20  and  C_21
REMARK    9  A    between atoms: C_21  and  C_22
REMARK   10  A    between atoms: C_22  and  C_23
REMARK   11  A    between atoms: C_23  and  C_24
REMARK   12  A    between atoms: C_24  and  C_25
REMARK   13  A    between atoms: C_25  and  C_26
REMARK   14  A    between atoms: N_28  and  O_29
REMARK                            x       y       z     vdW  Elec       q    Type
REMARK                         _______ _______ _______ _____ _____    ______ ____
ROOT
ATOM      1  C   UNL     1       2.988   5.218  18.956  0.00  0.00    +0.000 A 
ATOM      2  C   UNL     1       1.824   4.565  18.505  0.00  0.00    +0.000 A 
ATOM      3  C   UNL     1       1.882   3.475  17.636  0.00  0.00    +0.000 A 
ATOM      4  C   UNL     1       3.108   2.916  17.317  0.00  0.00    +0.000 A 
ATOM      5  C   UNL     1       4.268   3.447  17.874  0.00  0.00    +0.000 A 
ATOM      6  C   UNL     1       4.243   4.657  18.592  0.00  0.00    +0.000 A 
ENDROOT
BRANCH   6   7
ATOM      7  C   UNL     1       5.548   5.316  18.936  0.00  0.00    +0.000 C 
ATOM      8  O   UNL     1       5.804   5.433  20.137  0.00  0.00    +0.000 OA
ATOM      9  N   UNL     1       6.438   5.779  17.933  0.00  0.00    +0.000 N 
ATOM     10  C   UNL     1       7.759   6.241  18.350  0.00  0.00    +0.000 C 
BRANCH   9  11
ATOM     11  C   UNL     1       6.226   5.826  16.477  0.00  0.00    +0.000 C 
BRANCH  11  12
ATOM     12  C   UNL     1       6.825   4.680  15.671  0.00  0.00    +0.000 C 
BRANCH  12  13
ATOM     13  C   UNL     1       6.714   4.893  14.171  0.00  0.00    +0.000 C 
BRANCH  13  14
ATOM     14  C   UNL     1       5.880   3.762  13.572  0.00  0.00    +0.000 C 
BRANCH  14  15
ATOM     15  C   UNL     1       6.341   3.357  12.180  0.00  0.00    +0.000 C 
BRANCH  15  16
ATOM     16  C   UNL     1       5.443   2.290  11.569  0.00  0.00    +0.000 C 
BRANCH  16  17
ATOM     17  C   UNL     1       6.227   1.078  11.129  0.00  0.00    +0.000 C 
ATOM     18  O   UNL     1       7.185   1.101  10.378  0.00  0.00    +0.000 OA
ATOM     19  N   UNL     1       5.754  -0.093  11.674  0.00  0.00    +0.000 N 
ATOM     20  H   UNL     1       4.801  -0.210  12.008  0.00  0.00    +0.000 HD
BRANCH  19  21
ATOM     21  O   UNL     1       6.393  -1.270  11.207  0.00  0.00    +0.000 OA
ATOM     22  H   UNL     1       6.043  -1.340  10.291  0.00  0.00    +0.000 HD
ENDBRANCH  19  21
ENDBRANCH  16  17
ENDBRANCH  15  16
ENDBRANCH  14  15
ENDBRANCH  13  14
ENDBRANCH  12  13
ENDBRANCH  11  12
ENDBRANCH   9  11
ENDBRANCH   6   7
BRANCH   1  23
ATOM     23  N   UNL     1       2.855   6.445  19.656  0.00  0.00    +0.000 N 
ATOM     24  H   UNL     1       3.300   6.427  20.576  0.00  0.00    +0.000 HD
BRANCH  23  32
ATOM     25  C   UNL     1       3.458   7.901  17.030  0.00  0.00    +0.000 C 
ATOM     26  C   UNL     1       2.487   8.357  18.081  0.00  0.00    +0.000 A 
ATOM     27  C   UNL     1       1.920   9.630  17.847  0.00  0.00    +0.000 A 
ATOM     28  C   UNL     1       1.094  10.237  18.776  0.00  0.00    +0.000 A 
ATOM     29  C   UNL     1       0.797   9.569  19.953  0.00  0.00    +0.000 A 
ATOM     30  C   UNL     1       1.351   8.302  20.230  0.00  0.00    +0.000 A 
ATOM     31  C   UNL     1       0.951   7.653  21.530  0.00  0.00    +0.000 C 
ATOM     32  C   UNL     1       2.247   7.685  19.311  0.00  0.00    +0.000 A 
ENDBRANCH  23  32
ENDBRANCH   1  23
TORSDOF 11
ENDMDL
MODEL 3
REMARK VINA RESULT:      -7.5      1.314      2.065
REMARK  Name = 
REMARK  14 active torsions:
REMARK  status: ('A' for Active; 'I' for Inactive)
REMARK    1  A    between atoms: C_1  and  C_2
REMARK    2  A    between atoms: C_6  and  C_7
REMARK    3  A    between atoms: C_8  and  N_9
REMARK    4  A    between atoms: N_9  and  C_10
REMARK    5  A    between atoms: C_15  and  C_16
REMARK    6  A    between atoms: N_18  and  C_19
REMARK    7  A    between atoms: N_18  and  C_20
REMARK    8  A    between atoms: C_20  and  C_21
REMARK    9  A    between atoms: C_21  and  C_22
REMARK   10  A    between atoms: C_22  and  C_23
REMARK   11  A    between atoms: C_23  and  C_24
REMARK   12  A    between atoms: C_24  and  C_25
REMARK   13  A    between atoms: C_25  and  C_26
REMARK   14  A    between atoms: N_28  and  O_29
REMARK                            x       y       z     vdW  Elec       q    Type
REMARK                         _______ _______ _______ _____ _____    ______ ____
ROOT
ATOM      1  C   UNL     1       2.964   5.433  18.395  0.00  0.00    +0.000 A 
ATOM      2  C   UNL     1       1.772   4.792  18.001  0.00  0.00    +0.000 A 
ATOM      3  C   UNL     1       1.760   3.471  17.553  0.00  0.00    +0.000 A 
ATOM      4  C   UNL     1       2.914   2.709  17.631  0.00  0.00    +0.000 A 
ATOM      5  C   UNL     1       4.072   3.272  18.162  0.00  0.00    +0.000 A 
ATOM      6  C   UNL     1       4.151   4.651  18.436  0.00  0.00    +0.000 A 
ENDROOT
BRANCH   6   7
ATOM      7  C   UNL     1       5.495   5.245  18.751  0.00  0.00    +0.000 C 
ATOM      8  O   UNL     1       5.977   4.959  19.849  0.00  0.00    +0.000 OA
ATOM      9  N   UNL     1       6.170   6.090  17.833  0.00  0.00    +0.000 N 
ATOM     10  C   UNL     1       7.544   6.476  18.142  0.00  0.00    +0.000 C 
BRANCH   9  11
ATOM     11  C   UNL     1       5.680   6.620  16.550  0.00  0.00    +0.000 C 
BRANCH  11  12
ATOM     12  C   UNL     1       5.353   5.591  15.475  0.00  0.00    +0.000 C 
BRANCH  12  13
ATOM     13  C   UNL     1       6.338   4.435  15.447  0.00  0.00    +0.000 C 
BRANCH  13  14
ATOM     14  C   UNL     1       6.890   4.291  14.030  0.00  0.00    +0.000 C 
BRANCH  14  15
ATOM     15  C   UNL     1       5.911   3.619  13.078  0.00  0.00    +0.000 C 
BRANCH  15  16
ATOM     16  C   UNL     1       6.469   3.515  11.665  0.00  0.00    +0.000 C 
BRANCH  16  17
ATOM     17  C   UNL     1       6.891   2.106  11.327  0.00  0.00    +0.000 C 
ATOM     18  O   UNL     1       7.979   1.792  10.878  0.00  0.00    +0.000 OA
ATOM     19  N   UNL     1       5.911   1.177  11.584  0.00  0.00    +0.000 N 
ATOM     20  H   UNL     1       4.921   1.405  11.626  0.00  0.00    +0.000 HD
BRANCH  19  21
ATOM     21  O   UNL     1       6.223  -0.147  11.184  0.00  0.00    +0.000 OA
ATOM     22  H   UNL     1       5.891  -0.163  10.259  0.00  0.00    +0.000 HD
ENDBRANCH  19  21
ENDBRANCH  16  17
ENDBRANCH  15  16
ENDBRANCH  14  15
ENDBRANCH  13  14
ENDBRANCH  12  13
ENDBRANCH  11  12
ENDBRANCH   9  11
ENDBRANCH   6   7
BRANCH   1  23
ATOM     23  N   UNL     1       2.943   6.832  18.629  0.00  0.00    +0.000 N 
ATOM     24  H   UNL     1       3.692   7.327  18.140  0.00  0.00    +0.000 HD
BRANCH  23  32
ATOM     25  C   UNL     1       2.098   9.621  17.688  0.00  0.00    +0.000 C 
ATOM     26  C   UNL     1       1.640   8.946  18.950  0.00  0.00    +0.000 A 
ATOM     27  C   UNL     1       0.850   9.756  19.797  0.00  0.00    +0.000 A 
ATOM     28  C   UNL     1       0.444   9.317  21.045  0.00  0.00    +0.000 A 
ATOM     29  C   UNL     1       0.801   8.045  21.462  0.00  0.00    +0.000 A 
ATOM     30  C   UNL     1       1.598   7.210  20.651  0.00  0.00    +0.000 A 
ATOM     31  C   UNL     1       1.917   5.839  21.190  0.00  0.00    +0.000 C 
ATOM     32  C   UNL     1       2.072   7.665  19.387  0.00  0.00    +0.000 A 
ENDBRANCH  23  32
ENDBRANCH   1  23
TORSDOF 11
ENDMDL
MODEL 4
REMARK VINA RESULT:      -7.5      1.494      2.350
REMARK  Name = 
REMARK  14 active torsions:
REMARK  status: ('A' for Active; 'I' for Inactive)
REMARK    1  A    between atoms: C_1  and  C_2
REMARK    2  A    between atoms: C_6  and  C_7
REMARK    3  A    between atoms: C_8  and  N_9
REMARK    4  A    between atoms: N_9  and  C_10
REMARK    5  A    between atoms: C_15  and  C_16
REMARK    6  A    between atoms: N_18  and  C_19
REMARK    7  A    between atoms: N_18  and  C_20
REMARK    8  A    between atoms: C_20  and  C_21
REMARK    9  A    between atoms: C_21  and  C_22
REMARK   10  A    between atoms: C_22  and  C_23
REMARK   11  A    between atoms: C_23  and  C_24
REMARK   12  A    between atoms: C_24  and  C_25
REMARK   13  A    between atoms: C_25  and  C_26
REMARK   14  A    between atoms: N_28  and  O_29
REMARK                            x       y       z     vdW  Elec       q    Type
REMARK                         _______ _______ _______ _____ _____    ______ ____
ROOT
ATOM      1  C   UNL     1       2.591   5.163  20.105  0.00  0.00    +0.000 A 
ATOM      2  C   UNL     1       1.316   4.629  20.376  0.00  0.00    +0.000 A 
ATOM      3  C   UNL     1       0.993   3.305  20.076  0.00  0.00    +0.000 A 
ATOM      4  C   UNL     1       1.982   2.440  19.639  0.00  0.00    +0.000 A 
ATOM      5  C   UNL     1       3.289   2.903  19.509  0.00  0.00    +0.000 A 
ATOM      6  C   UNL     1       3.590   4.274  19.620  0.00  0.00    +0.000 A 
ENDROOT
BRANCH   6   7
ATOM      7  C   UNL     1       4.955   4.746  19.209  0.00  0.00    +0.000 C 
ATOM      8  O   UNL     1       5.529   5.509  19.990  0.00  0.00    +0.000 OA
ATOM      9  N   UNL     1       5.551   4.334  17.990  0.00  0.00    +0.000 N 
ATOM     10  C   UNL     1       6.947   4.694  17.755  0.00  0.00    +0.000 C 
BRANCH   9  11
ATOM     11  C   UNL     1       4.955   3.535  16.907  0.00  0.00    +0.000 C 
BRANCH  11  12
ATOM     12  C   UNL     1       4.454   4.311  15.694  0.00  0.00    +0.000 C 
BRANCH  12  13
ATOM     13  C   UNL     1       5.578   4.958  14.903  0.00  0.00    +0.000 C 
BRANCH  13  14
ATOM     14  C   UNL     1       6.463   3.860  14.315  0.00  0.00    +0.000 C 
BRANCH  14  15
ATOM     15  C   UNL     1       6.243   3.658  12.823  0.00  0.00    +0.000 C 
BRANCH  15  16
ATOM     16  C   UNL     1       4.857   4.112  12.384  0.00  0.00    +0.000 C 
BRANCH  16  17
ATOM     17  C   UNL     1       4.311   3.257  11.267  0.00  0.00    +0.000 C 
ATOM     18  O   UNL     1       4.616   2.096  11.064  0.00  0.00    +0.000 OA
ATOM     19  N   UNL     1       3.404   3.923  10.477  0.00  0.00    +0.000 N 
ATOM     20  H   UNL     1       3.374   4.935  10.390  0.00  0.00    +0.000 HD
BRANCH  19  21
ATOM     21  O   UNL     1       2.942   3.193   9.352  0.00  0.00    +0.000 OA
ATOM     22  H   UNL     1       3.478   2.371   9.410  0.00  0.00    +0.000 HD
ENDBRANCH  19  21
ENDBRANCH  16  17
ENDBRANCH  15  16
ENDBRANCH  14  15
ENDBRANCH  13  14
ENDBRANCH  12  13
ENDBRANCH  11  12
ENDBRANCH   9  11
ENDBRANCH   6   7
BRANCH   1  23
ATOM     23  N   UNL     1       2.786   6.563  20.228  0.00  0.00    +0.000 N 
ATOM     24  H   UNL     1       3.500   6.804  20.919  0.00  0.00    +0.000 HD
BRANCH  23  32
ATOM     25  C   UNL     1       3.506   7.329  17.352  0.00  0.00    +0.000 C 
ATOM     26  C   UNL     1       2.493   8.024  18.217  0.00  0.00    +0.000 A 
ATOM     27  C   UNL     1       1.942   9.197  17.652  0.00  0.00    +0.000 A 
ATOM     28  C   UNL     1       1.080  10.010  18.367  0.00  0.00    +0.000 A 
ATOM     29  C   UNL     1       0.731   9.651  19.659  0.00  0.00    +0.000 A 
ATOM     30  C   UNL     1       1.267   8.494  20.262  0.00  0.00    +0.000 A 
ATOM     31  C   UNL     1       0.810   8.184  21.665  0.00  0.00    +0.000 C 
ATOM     32  C   UNL     1       2.199   7.676  19.563  0.00  0.00    +0.000 A 
ENDBRANCH  23  32
ENDBRANCH   1  23
TORSDOF 11
ENDMDL
MODEL 5
REMARK VINA RESULT:      -7.3      3.807      9.036
REMARK  Name = 
REMARK  14 active torsions:
REMARK  status: ('A' for Active; 'I' for Inactive)
REMARK    1  A    between atoms: C_1  and  C_2
REMARK    2  A    between atoms: C_6  and  C_7
REMARK    3  A    between atoms: C_8  and  N_9
REMARK    4  A    between atoms: N_9  and  C_10
REMARK    5  A    between atoms: C_15  and  C_16
REMARK    6  A    between atoms: N_18  and  C_19
REMARK    7  A    between atoms: N_18  and  C_20
REMARK    8  A    between atoms: C_20  and  C_21
REMARK    9  A    between atoms: C_21  and  C_22
REMARK   10  A    between atoms: C_22  and  C_23
REMARK   11  A    between atoms: C_23  and  C_24
REMARK   12  A    between atoms: C_24  and  C_25
REMARK   13  A    between atoms: C_25  and  C_26
REMARK   14  A    between atoms: N_28  and  O_29
REMARK                            x       y       z     vdW  Elec       q    Type
REMARK                         _______ _______ _______ _____ _____    ______ ____
ROOT
ATOM      1  C   UNL     1       3.578   4.435  19.794  0.00  0.00    +0.000 A 
ATOM      2  C   UNL     1       3.499   3.226  20.513  0.00  0.00    +0.000 A 
ATOM      3  C   UNL     1       2.347   2.855  21.207  0.00  0.00    +0.000 A 
ATOM      4  C   UNL     1       1.194   3.610  21.075  0.00  0.00    +0.000 A 
ATOM      5  C   UNL     1       1.199   4.728  20.244  0.00  0.00    +0.000 A 
ATOM      6  C   UNL     1       2.398   5.222  19.695  0.00  0.00    +0.000 A 
ENDROOT
BRANCH   6   7
ATOM      7  C   UNL     1       2.384   6.571  19.034  0.00  0.00    +0.000 C 
ATOM      8  O   UNL     1       2.829   6.623  17.885  0.00  0.00    +0.000 OA
ATOM      9  N   UNL     1       1.885   7.721  19.697  0.00  0.00    +0.000 N 
ATOM     10  C   UNL     1       1.743   8.950  18.922  0.00  0.00    +0.000 C 
BRANCH   9  11
ATOM     11  C   UNL     1       1.440   7.848  21.095  0.00  0.00    +0.000 C 
BRANCH  11  12
ATOM     12  C   UNL     1       0.096   8.532  21.315  0.00  0.00    +0.000 C 
BRANCH  12  13
ATOM     13  C   UNL     1       0.187   9.718  22.261  0.00  0.00    +0.000 C 
BRANCH  13  14
ATOM     14  C   UNL     1       0.644  10.944  21.472  0.00  0.00    +0.000 C 
BRANCH  14  15
ATOM     15  C   UNL     1      -0.309  12.123  21.605  0.00  0.00    +0.000 C 
BRANCH  15  16
ATOM     16  C   UNL     1      -1.651  11.849  20.939  0.00  0.00    +0.000 C 
BRANCH  16  17
ATOM     17  C   UNL     1      -1.519  11.705  19.443  0.00  0.00    +0.000 C 
ATOM     18  O   UNL     1      -1.560  10.650  18.837  0.00  0.00    +0.000 OA
ATOM     19  N   UNL     1      -1.350  12.909  18.802  0.00  0.00    +0.000 N 
ATOM     20  H   UNL     1      -0.979  13.739  19.257  0.00  0.00    +0.000 HD
BRANCH  19  21
ATOM     21  O   UNL     1      -1.116  12.815  17.406  0.00  0.00    +0.000 OA
ATOM     22  H   UNL     1      -0.625  11.966  17.339  0.00  0.00    +0.000 HD
ENDBRANCH  19  21
ENDBRANCH  16  17
ENDBRANCH  15  16
ENDBRANCH  14  15
ENDBRANCH  13  14
ENDBRANCH  12  13
ENDBRANCH  11  12
ENDBRANCH   9  11
ENDBRANCH   6   7
BRANCH   1  23
ATOM     23  N   UNL     1       4.839   4.854  19.297  0.00  0.00    +0.000 N 
ATOM     24  H   UNL     1       5.382   5.379  19.986  0.00  0.00    +0.000 HD
BRANCH  23  32
ATOM     25  C   UNL     1       3.488   3.440  16.940  0.00  0.00    +0.000 C 
ATOM     26  C   UNL     1       4.865   4.041  16.929  0.00  0.00    +0.000 A 
ATOM     27  C   UNL     1       5.602   3.801  15.747  0.00  0.00    +0.000 A 
ATOM     28  C   UNL     1       6.924   4.193  15.626  0.00  0.00    +0.000 A 
ATOM     29  C   UNL     1       7.529   4.858  16.680  0.00  0.00    +0.000 A 
ATOM     30  C   UNL     1       6.831   5.107  17.880  0.00  0.00    +0.000 A 
ATOM     31  C   UNL     1       7.576   5.852  18.959  0.00  0.00    +0.000 C 
ATOM     32  C   UNL     1       5.489   4.662  18.045  0.00  0.00    +0.000 A 
ENDBRANCH  23  32
ENDBRANCH   1  23
TORSDOF 11
ENDMDL
MODEL 6
REMARK VINA RESULT:      -7.2      4.299     10.009
REMARK  Name = 
REMARK  14 active torsions:
REMARK  status: ('A' for Active; 'I' for Inactive)
REMARK    1  A    between atoms: C_1  and  C_2
REMARK    2  A    between atoms: C_6  and  C_7
REMARK    3  A    between atoms: C_8  and  N_9
REMARK    4  A    between atoms: N_9  and  C_10
REMARK    5  A    between atoms: C_15  and  C_16
REMARK    6  A    between atoms: N_18  and  C_19
REMARK    7  A    between atoms: N_18  and  C_20
REMARK    8  A    between atoms: C_20  and  C_21
REMARK    9  A    between atoms: C_21  and  C_22
REMARK   10  A    between atoms: C_22  and  C_23
REMARK   11  A    between atoms: C_23  and  C_24
REMARK   12  A    between atoms: C_24  and  C_25
REMARK   13  A    between atoms: C_25  and  C_26
REMARK   14  A    between atoms: N_28  and  O_29
REMARK                            x       y       z     vdW  Elec       q    Type
REMARK                         _______ _______ _______ _____ _____    ______ ____
ROOT
ATOM      1  C   UNL     1       3.535   4.479  19.817  0.00  0.00    +0.000 A 
ATOM      2  C   UNL     1       3.464   3.238  20.480  0.00  0.00    +0.000 A 
ATOM      3  C   UNL     1       2.321   2.837  21.174  0.00  0.00    +0.000 A 
ATOM      4  C   UNL     1       1.168   3.600  21.094  0.00  0.00    +0.000 A 
ATOM      5  C   UNL     1       1.164   4.756  20.317  0.00  0.00    +0.000 A 
ATOM      6  C   UNL     1       2.356   5.272  19.773  0.00  0.00    +0.000 A 
ENDROOT
BRANCH   6   7
ATOM      7  C   UNL     1       2.336   6.650  19.176  0.00  0.00    +0.000 C 
ATOM      8  O   UNL     1       2.814   6.765  18.045  0.00  0.00    +0.000 OA
ATOM      9  N   UNL     1       1.796   7.759  19.877  0.00  0.00    +0.000 N 
ATOM     10  C   UNL     1       1.653   9.021  19.156  0.00  0.00    +0.000 C 
BRANCH   9  11
ATOM     11  C   UNL     1       1.307   7.811  21.265  0.00  0.00    +0.000 C 
BRANCH  11  12
ATOM     12  C   UNL     1      -0.130   8.279  21.457  0.00  0.00    +0.000 C 
BRANCH  12  13
ATOM     13  C   UNL     1      -0.289   9.229  22.632  0.00  0.00    +0.000 C 
BRANCH  13  14
ATOM     14  C   UNL     1      -0.427  10.654  22.100  0.00  0.00    +0.000 C 
BRANCH  14  15
ATOM     15  C   UNL     1      -1.333  11.523  22.961  0.00  0.00    +0.000 C 
BRANCH  15  16
ATOM     16  C   UNL     1      -1.655  12.851  22.288  0.00  0.00    +0.000 C 
BRANCH  16  17
ATOM     17  C   UNL     1      -3.030  12.850  21.668  0.00  0.00    +0.000 C 
ATOM     18  O   UNL     1      -4.015  12.326  22.155  0.00  0.00    +0.000 OA
ATOM     19  N   UNL     1      -3.077  13.519  20.467  0.00  0.00    +0.000 N 
ATOM     20  H   UNL     1      -2.263  13.665  19.876  0.00  0.00    +0.000 HD
BRANCH  19  21
ATOM     21  O   UNL     1      -4.324  13.454  19.796  0.00  0.00    +0.000 OA
ATOM     22  H   UNL     1      -4.220  12.640  19.253  0.00  0.00    +0.000 HD
ENDBRANCH  19  21
ENDBRANCH  16  17
ENDBRANCH  15  16
ENDBRANCH  14  15
ENDBRANCH  13  14
ENDBRANCH  12  13
ENDBRANCH  11  12
ENDBRANCH   9  11
ENDBRANCH   6   7
BRANCH   1  23
ATOM     23  N   UNL     1       4.790   4.918  19.322  0.00  0.00    +0.000 N 
ATOM     24  H   UNL     1       5.304   5.490  19.996  0.00  0.00    +0.000 HD
BRANCH  23  32
ATOM     25  C   UNL     1       3.435   3.589  16.918  0.00  0.00    +0.000 C 
ATOM     26  C   UNL     1       4.843   4.113  16.952  0.00  0.00    +0.000 A 
ATOM     27  C   UNL     1       5.601   3.837  15.792  0.00  0.00    +0.000 A 
ATOM     28  C   UNL     1       6.946   4.155  15.713  0.00  0.00    +0.000 A 
ATOM     29  C   UNL     1       7.555   4.782  16.788  0.00  0.00    +0.000 A 
ATOM     30  C   UNL     1       6.835   5.065  17.967  0.00  0.00    +0.000 A 
ATOM     31  C   UNL     1       7.586   5.764  19.072  0.00  0.00    +0.000 C 
ATOM     32  C   UNL     1       5.466   4.695  18.089  0.00  0.00    +0.000 A 
ENDBRANCH  23  32
ENDBRANCH   1  23
TORSDOF 11
ENDMDL
MODEL 7
REMARK VINA RESULT:      -7.2      3.416      6.083
REMARK  Name = 
REMARK  14 active torsions:
REMARK  status: ('A' for Active; 'I' for Inactive)
REMARK    1  A    between atoms: C_1  and  C_2
REMARK    2  A    between atoms: C_6  and  C_7
REMARK    3  A    between atoms: C_8  and  N_9
REMARK    4  A    between atoms: N_9  and  C_10
REMARK    5  A    between atoms: C_15  and  C_16
REMARK    6  A    between atoms: N_18  and  C_19
REMARK    7  A    between atoms: N_18  and  C_20
REMARK    8  A    between atoms: C_20  and  C_21
REMARK    9  A    between atoms: C_21  and  C_22
REMARK   10  A    between atoms: C_22  and  C_23
REMARK   11  A    between atoms: C_23  and  C_24
REMARK   12  A    between atoms: C_24  and  C_25
REMARK   13  A    between atoms: C_25  and  C_26
REMARK   14  A    between atoms: N_28  and  O_29
REMARK                            x       y       z     vdW  Elec       q    Type
REMARK                         _______ _______ _______ _____ _____    ______ ____
ROOT
ATOM      1  C   UNL     1       2.816   5.072  19.921  0.00  0.00    +0.000 A 
ATOM      2  C   UNL     1       2.058   4.780  21.073  0.00  0.00    +0.000 A 
ATOM      3  C   UNL     1       1.498   3.520  21.286  0.00  0.00    +0.000 A 
ATOM      4  C   UNL     1       1.808   2.478  20.429  0.00  0.00    +0.000 A 
ATOM      5  C   UNL     1       2.681   2.701  19.367  0.00  0.00    +0.000 A 
ATOM      6  C   UNL     1       3.097   4.002  19.028  0.00  0.00    +0.000 A 
ENDROOT
BRANCH   6   7
ATOM      7  C   UNL     1       3.815   4.210  17.725  0.00  0.00    +0.000 C 
ATOM      8  O   UNL     1       3.188   3.928  16.702  0.00  0.00    +0.000 OA
ATOM      9  N   UNL     1       5.144   4.706  17.676  0.00  0.00    +0.000 N 
ATOM     10  C   UNL     1       5.699   5.047  16.369  0.00  0.00    +0.000 C 
BRANCH   9  11
ATOM     11  C   UNL     1       6.061   4.970  18.797  0.00  0.00    +0.000 C 
BRANCH  11  12
ATOM     12  C   UNL     1       7.516   5.231  18.430  0.00  0.00    +0.000 C 
BRANCH  12  13
ATOM     13  C   UNL     1       7.976   6.631  18.800  0.00  0.00    +0.000 C 
BRANCH  13  14
ATOM     14  C   UNL     1       7.893   7.522  17.562  0.00  0.00    +0.000 C 
BRANCH  14  15
ATOM     15  C   UNL     1       7.921   9.006  17.896  0.00  0.00    +0.000 C 
BRANCH  15  16
ATOM     16  C   UNL     1       9.009   9.342  18.907  0.00  0.00    +0.000 C 
BRANCH  16  17
ATOM     17  C   UNL     1       9.395  10.800  18.857  0.00  0.00    +0.000 C 
ATOM     18  O   UNL     1       9.217  11.601  19.757  0.00  0.00    +0.000 OA
ATOM     19  N   UNL     1       9.990  11.156  17.670  0.00  0.00    +0.000 N 
ATOM     20  H   UNL     1       9.856  10.645  16.801  0.00  0.00    +0.000 HD
BRANCH  19  21
ATOM     21  O   UNL     1      10.274  12.539  17.535  0.00  0.00    +0.000 OA
ATOM     22  H   UNL     1       9.512  12.851  16.999  0.00  0.00    +0.000 HD
ENDBRANCH  19  21
ENDBRANCH  16  17
ENDBRANCH  15  16
ENDBRANCH  14  15
ENDBRANCH  13  14
ENDBRANCH  12  13
ENDBRANCH  11  12
ENDBRANCH   9  11
ENDBRANCH   6   7
BRANCH   1  23
ATOM     23  N   UNL     1       3.169   6.421  19.659  0.00  0.00    +0.000 N 
ATOM     24  H   UNL     1       4.177   6.586  19.720  0.00  0.00    +0.000 HD
BRANCH  23  32
ATOM     25  C   UNL     1       1.234   7.761  21.617  0.00  0.00    +0.000 C 
ATOM     26  C   UNL     1       1.521   8.222  20.216  0.00  0.00    +0.000 A 
ATOM     27  C   UNL     1       0.716   9.294  19.772  0.00  0.00    +0.000 A 
ATOM     28  C   UNL     1       0.782   9.759  18.470  0.00  0.00    +0.000 A 
ATOM     29  C   UNL     1       1.677   9.173  17.589  0.00  0.00    +0.000 A 
ATOM     30  C   UNL     1       2.491   8.093  17.991  0.00  0.00    +0.000 A 
ATOM     31  C   UNL     1       3.442   7.537  16.961  0.00  0.00    +0.000 C 
ATOM     32  C   UNL     1       2.397   7.564  19.309  0.00  0.00    +0.000 A 
ENDBRANCH  23  32
ENDBRANCH   1  23
TORSDOF 11
ENDMDL
MODEL 8
REMARK VINA RESULT:      -7.2      4.457     10.306
REMARK  Name = 
REMARK  14 active torsions:
REMARK  status: ('A' for Active; 'I' for Inactive)
REMARK    1  A    between atoms: C_1  and  C_2
REMARK    2  A    between atoms: C_6  and  C_7
REMARK    3  A    between atoms: C_8  and  N_9
REMARK    4  A    between atoms: N_9  and  C_10
REMARK    5  A    between atoms: C_15  and  C_16
REMARK    6  A    between atoms: N_18  and  C_19
REMARK    7  A    between atoms: N_18  and  C_20
REMARK    8  A    between atoms: C_20  and  C_21
REMARK    9  A    between atoms: C_21  and  C_22
REMARK   10  A    between atoms: C_22  and  C_23
REMARK   11  A    between atoms: C_23  and  C_24
REMARK   12  A    between atoms: C_24  and  C_25
REMARK   13  A    between atoms: C_25  and  C_26
REMARK   14  A    between atoms: N_28  and  O_29
REMARK                            x       y       z     vdW  Elec       q    Type
REMARK                         _______ _______ _______ _____ _____    ______ ____
ROOT
ATOM      1  C   UNL     1       3.499   4.463  19.786  0.00  0.00    +0.000 A 
ATOM      2  C   UNL     1       3.435   3.197  20.400  0.00  0.00    +0.000 A 
ATOM      3  C   UNL     1       2.282   2.748  21.045  0.00  0.00    +0.000 A 
ATOM      4  C   UNL     1       1.116   3.490  20.960  0.00  0.00    +0.000 A 
ATOM      5  C   UNL     1       1.109   4.673  20.226  0.00  0.00    +0.000 A 
ATOM      6  C   UNL     1       2.305   5.233  19.737  0.00  0.00    +0.000 A 
ENDROOT
BRANCH   6   7
ATOM      7  C   UNL     1       2.273   6.632  19.190  0.00  0.00    +0.000 C 
ATOM      8  O   UNL     1       2.701   6.783  18.044  0.00  0.00    +0.000 OA
ATOM      9  N   UNL     1       1.775   7.720  19.954  0.00  0.00    +0.000 N 
ATOM     10  C   UNL     1       1.614   9.007  19.285  0.00  0.00    +0.000 C 
BRANCH   9  11
ATOM     11  C   UNL     1       1.348   7.726  21.363  0.00  0.00    +0.000 C 
BRANCH  11  12
ATOM     12  C   UNL     1       1.156   9.095  22.003  0.00  0.00    +0.000 C 
BRANCH  12  13
ATOM     13  C   UNL     1      -0.308   9.465  22.173  0.00  0.00    +0.000 C 
BRANCH  13  14
ATOM     14  C   UNL     1      -0.408  10.961  22.464  0.00  0.00    +0.000 C 
BRANCH  14  15
ATOM     15  C   UNL     1      -1.558  11.633  21.726  0.00  0.00    +0.000 C 
BRANCH  15  16
ATOM     16  C   UNL     1      -2.188  12.749  22.549  0.00  0.00    +0.000 C 
BRANCH  16  17
ATOM     17  C   UNL     1      -3.613  12.433  22.930  0.00  0.00    +0.000 C 
ATOM     18  O   UNL     1      -4.579  12.585  22.204  0.00  0.00    +0.000 OA
ATOM     19  N   UNL     1      -3.729  11.938  24.207  0.00  0.00    +0.000 N 
ATOM     20  H   UNL     1      -3.044  12.109  24.938  0.00  0.00    +0.000 HD
BRANCH  19  21
ATOM     21  O   UNL     1      -5.061  11.726  24.647  0.00  0.00    +0.000 OA
ATOM     22  H   UNL     1      -5.578  12.220  23.973  0.00  0.00    +0.000 HD
ENDBRANCH  19  21
ENDBRANCH  16  17
ENDBRANCH  15  16
ENDBRANCH  14  15
ENDBRANCH  13  14
ENDBRANCH  12  13
ENDBRANCH  11  12
ENDBRANCH   9  11
ENDBRANCH   6   7
BRANCH   1  23
ATOM     23  N   UNL     1       4.758   4.945  19.343  0.00  0.00    +0.000 N 
ATOM     24  H   UNL     1       5.198   5.579  20.015  0.00  0.00    +0.000 HD
BRANCH  23  32
ATOM     25  C   UNL     1       7.720   5.687  19.116  0.00  0.00    +0.000 C 
ATOM     26  C   UNL     1       6.905   5.001  18.057  0.00  0.00    +0.000 A 
ATOM     27  C   UNL     1       7.576   4.813  16.827  0.00  0.00    +0.000 A 
ATOM     28  C   UNL     1       6.926   4.297  15.720  0.00  0.00    +0.000 A 
ATOM     29  C   UNL     1       5.593   3.934  15.827  0.00  0.00    +0.000 A 
ATOM     30  C   UNL     1       4.885   4.116  17.034  0.00  0.00    +0.000 A 
ATOM     31  C   UNL     1       3.444   3.675  17.051  0.00  0.00    +0.000 C 
ATOM     32  C   UNL     1       5.521   4.697  18.168  0.00  0.00    +0.000 A 
ENDBRANCH  23  32
ENDBRANCH   1  23
TORSDOF 11
ENDMDL
MODEL 9
REMARK VINA RESULT:      -7.1      4.584     10.442
REMARK  Name = 
REMARK  14 active torsions:
REMARK  status: ('A' for Active; 'I' for Inactive)
REMARK    1  A    between atoms: C_1  and  C_2
REMARK    2  A    between atoms: C_6  and  C_7
REMARK    3  A    between atoms: C_8  and  N_9
REMARK    4  A    between atoms: N_9  and  C_10
REMARK    5  A    between atoms: C_15  and  C_16
REMARK    6  A    between atoms: N_18  and  C_19
REMARK    7  A    between atoms: N_18  and  C_20
REMARK    8  A    between atoms: C_20  and  C_21
REMARK    9  A    between atoms: C_21  and  C_22
REMARK   10  A    between atoms: C_22  and  C_23
REMARK   11  A    between atoms: C_23  and  C_24
REMARK   12  A    between atoms: C_24  and  C_25
REMARK   13  A    between atoms: C_25  and  C_26
REMARK   14  A    between atoms: N_28  and  O_29
REMARK                            x       y       z     vdW  Elec       q    Type
REMARK                         _______ _______ _______ _____ _____    ______ ____
ROOT
ATOM      1  C   UNL     1       3.526   4.430  19.811  0.00  0.00    +0.000 A 
ATOM      2  C   UNL     1       3.459   3.184  20.466  0.00  0.00    +0.000 A 
ATOM      3  C   UNL     1       2.318   2.774  21.156  0.00  0.00    +0.000 A 
ATOM      4  C   UNL     1       1.162   3.533  21.081  0.00  0.00    +0.000 A 
ATOM      5  C   UNL     1       1.153   4.694  20.313  0.00  0.00    +0.000 A 
ATOM      6  C   UNL     1       2.343   5.219  19.773  0.00  0.00    +0.000 A 
ENDROOT
BRANCH   6   7
ATOM      7  C   UNL     1       2.317   6.601  19.186  0.00  0.00    +0.000 C 
ATOM      8  O   UNL     1       2.786   6.724  18.052  0.00  0.00    +0.000 OA
ATOM      9  N   UNL     1       1.782   7.704  19.899  0.00  0.00    +0.000 N 
ATOM     10  C   UNL     1       1.633   8.971  19.188  0.00  0.00    +0.000 C 
BRANCH   9  11
ATOM     11  C   UNL     1       1.304   7.746  21.291  0.00  0.00    +0.000 C 
BRANCH  11  12
ATOM     12  C   UNL     1       0.006   8.506  21.535  0.00  0.00    +0.000 C 
BRANCH  12  13
ATOM     13  C   UNL     1       0.147   9.588  22.593  0.00  0.00    +0.000 C 
BRANCH  13  14
ATOM     14  C   UNL     1      -0.077  10.950  21.939  0.00  0.00    +0.000 C 
BRANCH  14  15
ATOM     15  C   UNL     1      -1.527  11.408  22.004  0.00  0.00    +0.000 C 
BRANCH  15  16
ATOM     16  C   UNL     1      -1.807  12.240  23.249  0.00  0.00    +0.000 C 
BRANCH  16  17
ATOM     17  C   UNL     1      -3.251  12.669  23.327  0.00  0.00    +0.000 C 
ATOM     18  O   UNL     1      -4.135  12.282  22.585  0.00  0.00    +0.000 OA
ATOM     19  N   UNL     1      -3.491  13.561  24.346  0.00  0.00    +0.000 N 
ATOM     20  H   UNL     1      -2.771  14.154  24.751  0.00  0.00    +0.000 HD
BRANCH  19  21
ATOM     21  O   UNL     1      -4.812  14.074  24.392  0.00  0.00    +0.000 OA
ATOM     22  H   UNL     1      -4.754  14.839  23.778  0.00  0.00    +0.000 HD
ENDBRANCH  19  21
ENDBRANCH  16  17
ENDBRANCH  15  16
ENDBRANCH  14  15
ENDBRANCH  13  14
ENDBRANCH  12  13
ENDBRANCH  11  12
ENDBRANCH   9  11
ENDBRANCH   6   7
BRANCH   1  23
ATOM     23  N   UNL     1       4.779   4.878  19.319  0.00  0.00    +0.000 N 
ATOM     24  H   UNL     1       5.298   5.432  20.004  0.00  0.00    +0.000 HD
BRANCH  23  32
ATOM     25  C   UNL     1       3.439   3.519  16.924  0.00  0.00    +0.000 C 
ATOM     26  C   UNL     1       4.830   4.087  16.944  0.00  0.00    +0.000 A 
ATOM     27  C   UNL     1       5.583   3.840  15.775  0.00  0.00    +0.000 A 
ATOM     28  C   UNL     1       6.916   4.201  15.682  0.00  0.00    +0.000 A 
ATOM     29  C   UNL     1       7.517   4.842  16.753  0.00  0.00    +0.000 A 
ATOM     30  C   UNL     1       6.803   5.096  17.943  0.00  0.00    +0.000 A 
ATOM     31  C   UNL     1       7.544   5.813  19.042  0.00  0.00    +0.000 C 
ATOM     32  C   UNL     1       5.447   4.682  18.078  0.00  0.00    +0.000 A 
ENDBRANCH  23  32
ENDBRANCH   1  23
TORSDOF 11
ENDMDL
