MODEL 1
REMARK VINA RESULT:      -7.9      0.000      0.000
REMARK  Name = 
REMARK  4 active torsions:
REMARK  status: ('A' for Active; 'I' for Inactive)
REMARK    1  A    between atoms: C_1  and  C_2
REMARK    2  A    between atoms: C_6  and  C_7
REMARK    3  A    between atoms: C_11  and  C_12
REMARK    4  A    between atoms: C_12  and  O_14
REMARK                            x       y       z     vdW  Elec       q    Type
REMARK                         _______ _______ _______ _____ _____    ______ ____
ROOT
ATOM      1  C   UNL     1       4.202   5.412  17.857  0.00  0.00    +0.000 A 
ATOM      2  N   UNL     1       3.683   6.664  17.733  0.00  0.00    +0.000 NA
ATOM      3  C   UNL     1       2.808   7.116  18.639  0.00  0.00    +0.000 A 
ATOM      4  C   UNL     1       2.340   8.418  18.504  0.00  0.00    +0.000 A 
ATOM      5  C   UNL     1       1.433   8.984  19.410  0.00  0.00    +0.000 A 
ATOM      6  C   UNL     1       0.994   8.230  20.493  0.00  0.00    +0.000 A 
ATOM      7  C   UNL     1       1.448   6.918  20.638  0.00  0.00    +0.000 A 
ATOM      8  C   UNL     1       2.367   6.334  19.724  0.00  0.00    +0.000 A 
ATOM      9  C   UNL     1       2.898   5.011  19.844  0.00  0.00    +0.000 A 
ATOM     10  C   UNL     1       2.530   4.113  20.866  0.00  0.00    +0.000 A 
ATOM     11  N   UNL     1       3.015   2.862  21.044  0.00  0.00    +0.000 NA
ATOM     12  C   UNL     1       3.958   2.464  20.184  0.00  0.00    +0.000 A 
ATOM     13  C   UNL     1       4.419   3.257  19.150  0.00  0.00    +0.000 A 
ATOM     14  C   UNL     1       3.861   4.541  18.924  0.00  0.00    +0.000 A 
ENDROOT
BRANCH   1  20
ATOM     15  C   UNL     1       7.300   6.301  17.691  0.00  0.00    +0.000 C 
ATOM     16  C   UNL     1       6.574   5.431  16.716  0.00  0.00    +0.000 A 
ATOM     17  C   UNL     1       7.187   4.858  15.614  0.00  0.00    +0.000 A 
ATOM     18  S   UNL     1       6.101   4.001  14.621  0.00  0.00    +0.000 S 
ATOM     19  C   UNL     1       4.787   4.414  15.630  0.00  0.00    +0.000 A 
ATOM     20  C   UNL     1       5.169   5.069  16.791  0.00  0.00    +0.000 A 
ENDBRANCH   1  20
BRANCH   5  21
ATOM     21  C   UNL     1       1.026  10.399  19.217  0.00  0.00    +0.000 C 
ATOM     22  O   UNL     1       0.680  11.114  20.140  0.00  0.00    +0.000 OA
BRANCH  21  23
ATOM     23  O   UNL     1       1.086  10.828  17.938  0.00  0.00    +0.000 OA
ATOM     24  H   UNL     1       1.716  10.362  17.359  0.00  0.00    +0.000 HD
ENDBRANCH  21  23
ENDBRANCH   5  21
TORSDOF 3
ENDMDL
MODEL 2
REMARK VINA RESULT:      -7.3      3.661      5.978
REMARK  Name = 
REMARK  4 active torsions:
REMARK  status: ('A' for Active; 'I' for Inactive)
REMARK    1  A    between atoms: C_1  and  C_2
REMARK    2  A    between atoms: C_6  and  C_7
REMARK    3  A    between atoms: C_11  and  C_12
REMARK    4  A    between atoms: C_12  and  O_14
REMARK                            x       y       z     vdW  Elec       q    Type
REMARK                         _______ _______ _______ _____ _____    ______ ____
ROOT
ATOM      1  C   UNL     1       2.584   6.238  19.157  0.00  0.00    +0.000 A 
ATOM      2  N   UNL     1       3.565   6.470  18.242  0.00  0.00    +0.000 NA
ATOM      3  C   UNL     1       4.172   5.442  17.640  0.00  0.00    +0.000 A 
ATOM      4  C   UNL     1       5.133   5.723  16.674  0.00  0.00    +0.000 A 
ATOM      5  C   UNL     1       5.813   4.713  15.980  0.00  0.00    +0.000 A 
ATOM      6  C   UNL     1       5.510   3.382  16.248  0.00  0.00    +0.000 A 
ATOM      7  C   UNL     1       4.554   3.084  17.220  0.00  0.00    +0.000 A 
ATOM      8  C   UNL     1       3.860   4.101  17.931  0.00  0.00    +0.000 A 
ATOM      9  C   UNL     1       2.842   3.855  18.906  0.00  0.00    +0.000 A 
ATOM     10  C   UNL     1       2.444   2.565  19.310  0.00  0.00    +0.000 A 
ATOM     11  N   UNL     1       1.474   2.272  20.208  0.00  0.00    +0.000 NA
ATOM     12  C   UNL     1       0.814   3.312  20.727  0.00  0.00    +0.000 A 
ATOM     13  C   UNL     1       1.096   4.625  20.400  0.00  0.00    +0.000 A 
ATOM     14  C   UNL     1       2.158   4.933  19.511  0.00  0.00    +0.000 A 
ENDROOT
BRANCH   1  20
ATOM     15  C   UNL     1       1.923   8.963  17.558  0.00  0.00    +0.000 C 
ATOM     16  C   UNL     1       1.662   8.699  19.007  0.00  0.00    +0.000 A 
ATOM     17  C   UNL     1       1.048   9.618  19.841  0.00  0.00    +0.000 A 
ATOM     18  S   UNL     1       0.970   9.095  21.460  0.00  0.00    +0.000 S 
ATOM     19  C   UNL     1       1.789   7.647  21.075  0.00  0.00    +0.000 A 
ATOM     20  C   UNL     1       1.997   7.476  19.716  0.00  0.00    +0.000 A 
ENDBRANCH   1  20
BRANCH   5  21
ATOM     21  C   UNL     1       6.787   5.105  14.930  0.00  0.00    +0.000 C 
ATOM     22  O   UNL     1       7.741   5.827  15.157  0.00  0.00    +0.000 OA
BRANCH  21  23
ATOM     23  O   UNL     1       6.534   4.583  13.711  0.00  0.00    +0.000 OA
ATOM     24  H   UNL     1       5.715   4.060  13.630  0.00  0.00    +0.000 HD
ENDBRANCH  21  23
ENDBRANCH   5  21
TORSDOF 3
ENDMDL
MODEL 3
REMARK VINA RESULT:      -7.0      4.141      6.930
REMARK  Name = 
REMARK  4 active torsions:
REMARK  status: ('A' for Active; 'I' for Inactive)
REMARK    1  A    between atoms: C_1  and  C_2
REMARK    2  A    between atoms: C_6  and  C_7
REMARK    3  A    between atoms: C_11  and  C_12
REMARK    4  A    between atoms: C_12  and  O_14
REMARK                            x       y       z     vdW  Elec       q    Type
REMARK                         _______ _______ _______ _____ _____    ______ ____
ROOT
ATOM      1  C   UNL     1       4.383   4.259  17.850  0.00  0.00    +0.000 A 
ATOM      2  N   UNL     1       4.106   3.859  16.578  0.00  0.00    +0.000 NA
ATOM      3  C   UNL     1       5.014   4.035  15.612  0.00  0.00    +0.000 A 
ATOM      4  C   UNL     1       4.712   3.567  14.337  0.00  0.00    +0.000 A 
ATOM      5  C   UNL     1       5.604   3.693  13.264  0.00  0.00    +0.000 A 
ATOM      6  C   UNL     1       6.842   4.289  13.476  0.00  0.00    +0.000 A 
ATOM      7  C   UNL     1       7.157   4.771  14.747  0.00  0.00    +0.000 A 
ATOM      8  C   UNL     1       6.259   4.650  15.842  0.00  0.00    +0.000 A 
ATOM      9  C   UNL     1       6.543   5.087  17.174  0.00  0.00    +0.000 A 
ATOM     10  C   UNL     1       7.738   5.737  17.544  0.00  0.00    +0.000 A 
ATOM     11  N   UNL     1       8.072   6.150  18.789  0.00  0.00    +0.000 NA
ATOM     12  C   UNL     1       7.192   5.881  19.758  0.00  0.00    +0.000 A 
ATOM     13  C   UNL     1       5.992   5.234  19.530  0.00  0.00    +0.000 A 
ATOM     14  C   UNL     1       5.614   4.862  18.214  0.00  0.00    +0.000 A 
ENDROOT
BRANCH   1  20
ATOM     15  C   UNL     1       2.424   6.413  19.243  0.00  0.00    +0.000 C 
ATOM     16  C   UNL     1       2.376   4.929  19.416  0.00  0.00    +0.000 A 
ATOM     17  C   UNL     1       1.423   4.290  20.192  0.00  0.00    +0.000 A 
ATOM     18  S   UNL     1       1.667   2.608  20.293  0.00  0.00    +0.000 S 
ATOM     19  C   UNL     1       3.073   2.713  19.329  0.00  0.00    +0.000 A 
ATOM     20  C   UNL     1       3.289   3.977  18.805  0.00  0.00    +0.000 A 
ENDBRANCH   1  20
BRANCH   5  21
ATOM     21  C   UNL     1       5.219   3.119  11.950  0.00  0.00    +0.000 C 
ATOM     22  O   UNL     1       4.341   3.599  11.256  0.00  0.00    +0.000 OA
BRANCH  21  23
ATOM     23  O   UNL     1       5.933   2.032  11.584  0.00  0.00    +0.000 OA
ATOM     24  H   UNL     1       6.890   2.168  11.466  0.00  0.00    +0.000 HD
ENDBRANCH  21  23
ENDBRANCH   5  21
TORSDOF 3
ENDMDL
MODEL 4
REMARK VINA RESULT:      -6.9      4.529      6.964
REMARK  Name = 
REMARK  4 active torsions:
REMARK  status: ('A' for Active; 'I' for Inactive)
REMARK    1  A    between atoms: C_1  and  C_2
REMARK    2  A    between atoms: C_6  and  C_7
REMARK    3  A    between atoms: C_11  and  C_12
REMARK    4  A    between atoms: C_12  and  O_14
REMARK                            x       y       z     vdW  Elec       q    Type
REMARK                         _______ _______ _______ _____ _____    ______ ____
ROOT
ATOM      1  C   UNL     1       4.456   4.190  17.873  0.00  0.00    +0.000 A 
ATOM      2  N   UNL     1       4.179   3.776  16.607  0.00  0.00    +0.000 NA
ATOM      3  C   UNL     1       5.058   4.000  15.624  0.00  0.00    +0.000 A 
ATOM      4  C   UNL     1       4.758   3.517  14.355  0.00  0.00    +0.000 A 
ATOM      5  C   UNL     1       5.623   3.691  13.266  0.00  0.00    +0.000 A 
ATOM      6  C   UNL     1       6.830   4.354  13.456  0.00  0.00    +0.000 A 
ATOM      7  C   UNL     1       7.141   4.853  14.721  0.00  0.00    +0.000 A 
ATOM      8  C   UNL     1       6.271   4.683  15.833  0.00  0.00    +0.000 A 
ATOM      9  C   UNL     1       6.555   5.135  17.160  0.00  0.00    +0.000 A 
ATOM     10  C   UNL     1       7.720   5.849  17.508  0.00  0.00    +0.000 A 
ATOM     11  N   UNL     1       8.053   6.280  18.747  0.00  0.00    +0.000 NA
ATOM     12  C   UNL     1       7.207   5.963  19.732  0.00  0.00    +0.000 A 
ATOM     13  C   UNL     1       6.040   5.251  19.525  0.00  0.00    +0.000 A 
ATOM     14  C   UNL     1       5.659   4.859  18.216  0.00  0.00    +0.000 A 
ENDROOT
BRANCH   1  20
ATOM     15  C   UNL     1       4.569   1.884  20.129  0.00  0.00    +0.000 C 
ATOM     16  C   UNL     1       3.442   2.839  19.892  0.00  0.00    +0.000 A 
ATOM     17  C   UNL     1       2.297   2.862  20.671  0.00  0.00    +0.000 A 
ATOM     18  S   UNL     1       1.138   3.979  20.114  0.00  0.00    +0.000 S 
ATOM     19  C   UNL     1       2.136   4.422  18.801  0.00  0.00    +0.000 A 
ATOM     20  C   UNL     1       3.397   3.849  18.849  0.00  0.00    +0.000 A 
ENDBRANCH   1  20
BRANCH   5  21
ATOM     21  C   UNL     1       5.245   3.096  11.958  0.00  0.00    +0.000 C 
ATOM     22  O   UNL     1       4.336   3.534  11.276  0.00  0.00    +0.000 OA
BRANCH  21  23
ATOM     23  O   UNL     1       6.004   2.043  11.584  0.00  0.00    +0.000 OA
ATOM     24  H   UNL     1       5.682   1.534  10.819  0.00  0.00    +0.000 HD
ENDBRANCH  21  23
ENDBRANCH   5  21
TORSDOF 3
ENDMDL
MODEL 5
REMARK VINA RESULT:      -6.8      0.925      1.561
REMARK  Name = 
REMARK  4 active torsions:
REMARK  status: ('A' for Active; 'I' for Inactive)
REMARK    1  A    between atoms: C_1  and  C_2
REMARK    2  A    between atoms: C_6  and  C_7
REMARK    3  A    between atoms: C_11  and  C_12
REMARK    4  A    between atoms: C_12  and  O_14
REMARK                            x       y       z     vdW  Elec       q    Type
REMARK                         _______ _______ _______ _____ _____    ______ ____
ROOT
ATOM      1  C   UNL     1       3.805   5.393  18.488  0.00  0.00    +0.000 A 
ATOM      2  N   UNL     1       3.364   6.662  18.271  0.00  0.00    +0.000 NA
ATOM      3  C   UNL     1       2.486   7.216  19.114  0.00  0.00    +0.000 A 
ATOM      4  C   UNL     1       2.098   8.532  18.883  0.00  0.00    +0.000 A 
ATOM      5  C   UNL     1       1.194   9.202  19.719  0.00  0.00    +0.000 A 
ATOM      6  C   UNL     1       0.675   8.541  20.827  0.00  0.00    +0.000 A 
ATOM      7  C   UNL     1       1.048   7.218  21.067  0.00  0.00    +0.000 A 
ATOM      8  C   UNL     1       1.963   6.529  20.225  0.00  0.00    +0.000 A 
ATOM      9  C   UNL     1       2.412   5.188  20.445  0.00  0.00    +0.000 A 
ATOM     10  C   UNL     1       1.957   4.377  21.503  0.00  0.00    +0.000 A 
ATOM     11  N   UNL     1       2.363   3.114  21.774  0.00  0.00    +0.000 NA
ATOM     12  C   UNL     1       3.311   2.612  20.976  0.00  0.00    +0.000 A 
ATOM     13  C   UNL     1       3.852   3.313  19.914  0.00  0.00    +0.000 A 
ATOM     14  C   UNL     1       3.378   4.610  19.591  0.00  0.00    +0.000 A 
ENDROOT
BRANCH   1  20
ATOM     15  C   UNL     1       3.390   3.052  16.306  0.00  0.00    +0.000 C 
ATOM     16  C   UNL     1       4.607   3.904  16.471  0.00  0.00    +0.000 A 
ATOM     17  C   UNL     1       5.715   3.803  15.647  0.00  0.00    +0.000 A 
ATOM     18  S   UNL     1       6.993   4.822  16.125  0.00  0.00    +0.000 S 
ATOM     19  C   UNL     1       6.096   5.387  17.464  0.00  0.00    +0.000 A 
ATOM     20  C   UNL     1       4.787   4.932  17.482  0.00  0.00    +0.000 A 
ENDBRANCH   1  20
BRANCH   5  21
ATOM     21  C   UNL     1       0.877  10.623  19.426  0.00  0.00    +0.000 C 
ATOM     22  O   UNL     1       0.455  11.389  20.274  0.00  0.00    +0.000 OA
BRANCH  21  23
ATOM     23  O   UNL     1       1.109  10.995  18.149  0.00  0.00    +0.000 OA
ATOM     24  H   UNL     1       0.893  11.919  17.925  0.00  0.00    +0.000 HD
ENDBRANCH  21  23
ENDBRANCH   5  21
TORSDOF 3
ENDMDL
MODEL 6
REMARK VINA RESULT:      -6.8      1.219      1.509
REMARK  Name = 
REMARK  4 active torsions:
REMARK  status: ('A' for Active; 'I' for Inactive)
REMARK    1  A    between atoms: C_1  and  C_2
REMARK    2  A    between atoms: C_6  and  C_7
REMARK    3  A    between atoms: C_11  and  C_12
REMARK    4  A    between atoms: C_12  and  O_14
REMARK                            x       y       z     vdW  Elec       q    Type
REMARK                         _______ _______ _______ _____ _____    ______ ____
ROOT
ATOM      1  C   UNL     1       4.188   4.992  17.751  0.00  0.00    +0.000 A 
ATOM      2  N   UNL     1       3.813   6.247  18.122  0.00  0.00    +0.000 NA
ATOM      3  C   UNL     1       2.855   6.412  19.041  0.00  0.00    +0.000 A 
ATOM      4  C   UNL     1       2.536   7.709  19.428  0.00  0.00    +0.000 A 
ATOM      5  C   UNL     1       1.557   7.981  20.393  0.00  0.00    +0.000 A 
ATOM      6  C   UNL     1       0.888   6.924  21.000  0.00  0.00    +0.000 A 
ATOM      7  C   UNL     1       1.191   5.616  20.616  0.00  0.00    +0.000 A 
ATOM      8  C   UNL     1       2.181   5.329  19.637  0.00  0.00    +0.000 A 
ATOM      9  C   UNL     1       2.562   4.010  19.234  0.00  0.00    +0.000 A 
ATOM     10  C   UNL     1       1.959   2.838  19.732  0.00  0.00    +0.000 A 
ATOM     11  N   UNL     1       2.293   1.567  19.407  0.00  0.00    +0.000 NA
ATOM     12  C   UNL     1       3.316   1.422  18.559  0.00  0.00    +0.000 A 
ATOM     13  C   UNL     1       4.002   2.491  18.014  0.00  0.00    +0.000 A 
ATOM     14  C   UNL     1       3.608   3.822  18.303  0.00  0.00    +0.000 A 
ENDROOT
BRANCH   1  20
ATOM     15  C   UNL     1       7.353   5.301  18.304  0.00  0.00    +0.000 C 
ATOM     16  C   UNL     1       6.703   5.081  16.976  0.00  0.00    +0.000 A 
ATOM     17  C   UNL     1       7.419   4.940  15.799  0.00  0.00    +0.000 A 
ATOM     18  S   UNL     1       6.421   4.803  14.426  0.00  0.00    +0.000 S 
ATOM     19  C   UNL     1       5.015   4.965  15.381  0.00  0.00    +0.000 A 
ATOM     20  C   UNL     1       5.272   4.977  16.743  0.00  0.00    +0.000 A 
ENDBRANCH   1  20
BRANCH   5  21
ATOM     21  C   UNL     1       1.318   9.394  20.782  0.00  0.00    +0.000 C 
ATOM     22  O   UNL     1       1.018  10.256  19.975  0.00  0.00    +0.000 OA
BRANCH  21  23
ATOM     23  O   UNL     1       1.445   9.638  22.105  0.00  0.00    +0.000 OA
ATOM     24  H   UNL     1       2.239  10.133  22.375  0.00  0.00    +0.000 HD
ENDBRANCH  21  23
ENDBRANCH   5  21
TORSDOF 3
ENDMDL
MODEL 7
REMARK VINA RESULT:      -6.6      3.668      6.030
REMARK  Name = 
REMARK  4 active torsions:
REMARK  status: ('A' for Active; 'I' for Inactive)
REMARK    1  A    between atoms: C_1  and  C_2
REMARK    2  A    between atoms: C_6  and  C_7
REMARK    3  A    between atoms: C_11  and  C_12
REMARK    4  A    between atoms: C_12  and  O_14
REMARK                            x       y       z     vdW  Elec       q    Type
REMARK                         _______ _______ _______ _____ _____    ______ ____
ROOT
ATOM      1  C   UNL     1       2.636   6.665  18.433  0.00  0.00    +0.000 A 
ATOM      2  N   UNL     1       3.618   6.766  17.496  0.00  0.00    +0.000 NA
ATOM      3  C   UNL     1       4.270   5.669  17.093  0.00  0.00    +0.000 A 
ATOM      4  C   UNL     1       5.232   5.809  16.097  0.00  0.00    +0.000 A 
ATOM      5  C   UNL     1       5.958   4.717  15.601  0.00  0.00    +0.000 A 
ATOM      6  C   UNL     1       5.702   3.446  16.104  0.00  0.00    +0.000 A 
ATOM      7  C   UNL     1       4.746   3.291  17.109  0.00  0.00    +0.000 A 
ATOM      8  C   UNL     1       4.006   4.392  17.621  0.00  0.00    +0.000 A 
ATOM      9  C   UNL     1       2.986   4.287  18.619  0.00  0.00    +0.000 A 
ATOM     10  C   UNL     1       2.632   3.077  19.248  0.00  0.00    +0.000 A 
ATOM     11  N   UNL     1       1.663   2.914  20.179  0.00  0.00    +0.000 NA
ATOM     12  C   UNL     1       0.958   4.004  20.499  0.00  0.00    +0.000 A 
ATOM     13  C   UNL     1       1.195   5.246  19.940  0.00  0.00    +0.000 A 
ATOM     14  C   UNL     1       2.255   5.429  19.015  0.00  0.00    +0.000 A 
ENDROOT
BRANCH   1  20
ATOM     15  C   UNL     1       1.788   7.731  21.359  0.00  0.00    +0.000 C 
ATOM     16  C   UNL     1       1.639   8.471  20.068  0.00  0.00    +0.000 A 
ATOM     17  C   UNL     1       1.137   9.760  19.990  0.00  0.00    +0.000 A 
ATOM     18  S   UNL     1       0.984  10.317  18.388  0.00  0.00    +0.000 S 
ATOM     19  C   UNL     1       1.552   8.829  17.773  0.00  0.00    +0.000 A 
ATOM     20  C   UNL     1       1.997   7.960  18.755  0.00  0.00    +0.000 A 
ENDBRANCH   1  20
BRANCH   5  21
ATOM     21  C   UNL     1       6.929   4.951  14.502  0.00  0.00    +0.000 C 
ATOM     22  O   UNL     1       7.902   5.672  14.629  0.00  0.00    +0.000 OA
BRANCH  21  23
ATOM     23  O   UNL     1       6.649   4.286  13.360  0.00  0.00    +0.000 OA
ATOM     24  H   UNL     1       6.430   4.837  12.587  0.00  0.00    +0.000 HD
ENDBRANCH  21  23
ENDBRANCH   5  21
TORSDOF 3
ENDMDL
MODEL 8
REMARK VINA RESULT:      -6.5      3.757      5.313
REMARK  Name = 
REMARK  4 active torsions:
REMARK  status: ('A' for Active; 'I' for Inactive)
REMARK    1  A    between atoms: C_1  and  C_2
REMARK    2  A    between atoms: C_6  and  C_7
REMARK    3  A    between atoms: C_11  and  C_12
REMARK    4  A    between atoms: C_12  and  O_14
REMARK                            x       y       z     vdW  Elec       q    Type
REMARK                         _______ _______ _______ _____ _____    ______ ____
ROOT
ATOM      1  C   UNL     1       5.941   5.914  17.423  0.00  0.00    +0.000 A 
ATOM      2  N   UNL     1       4.979   5.687  18.359  0.00  0.00    +0.000 NA
ATOM      3  C   UNL     1       4.050   4.749  18.146  0.00  0.00    +0.000 A 
ATOM      4  C   UNL     1       3.115   4.514  19.149  0.00  0.00    +0.000 A 
ATOM      5  C   UNL     1       2.112   3.543  19.023  0.00  0.00    +0.000 A 
ATOM      6  C   UNL     1       2.053   2.773  17.867  0.00  0.00    +0.000 A 
ATOM      7  C   UNL     1       2.979   3.003  16.848  0.00  0.00    +0.000 A 
ATOM      8  C   UNL     1       3.999   3.986  16.965  0.00  0.00    +0.000 A 
ATOM      9  C   UNL     1       4.998   4.237  15.972  0.00  0.00    +0.000 A 
ATOM     10  C   UNL     1       5.055   3.564  14.735  0.00  0.00    +0.000 A 
ATOM     11  N   UNL     1       5.988   3.741  13.771  0.00  0.00    +0.000 NA
ATOM     12  C   UNL     1       6.963   4.615  14.043  0.00  0.00    +0.000 A 
ATOM     13  C   UNL     1       7.031   5.325  15.226  0.00  0.00    +0.000 A 
ATOM     14  C   UNL     1       6.015   5.188  16.207  0.00  0.00    +0.000 A 
ENDROOT
BRANCH   1  20
ATOM     15  C   UNL     1       8.264   5.679  19.652  0.00  0.00    +0.000 C 
ATOM     16  C   UNL     1       7.979   6.868  18.791  0.00  0.00    +0.000 A 
ATOM     17  C   UNL     1       8.735   8.027  18.831  0.00  0.00    +0.000 A 
ATOM     18  S   UNL     1       8.124   9.253  17.820  0.00  0.00    +0.000 S 
ATOM     19  C   UNL     1       6.818   8.264  17.340  0.00  0.00    +0.000 A 
ATOM     20  C   UNL     1       6.906   6.965  17.816  0.00  0.00    +0.000 A 
ENDBRANCH   1  20
BRANCH   5  21
ATOM     21  C   UNL     1       1.188   3.325  20.165  0.00  0.00    +0.000 C 
ATOM     22  O   UNL     1       1.499   3.569  21.317  0.00  0.00    +0.000 OA
BRANCH  21  23
ATOM     23  O   UNL     1      -0.027   2.849  19.817  0.00  0.00    +0.000 OA
ATOM     24  H   UNL     1      -0.658   2.709  20.546  0.00  0.00    +0.000 HD
ENDBRANCH  21  23
ENDBRANCH   5  21
TORSDOF 3
ENDMDL
MODEL 9
REMARK VINA RESULT:      -6.5      7.798     10.186
REMARK  Name = 
REMARK  4 active torsions:
REMARK  status: ('A' for Active; 'I' for Inactive)
REMARK    1  A    between atoms: C_1  and  C_2
REMARK    2  A    between atoms: C_6  and  C_7
REMARK    3  A    between atoms: C_11  and  C_12
REMARK    4  A    between atoms: C_12  and  O_14
REMARK                            x       y       z     vdW  Elec       q    Type
REMARK                         _______ _______ _______ _____ _____    ______ ____
ROOT
ATOM      1  C   UNL     1      -2.367  12.397  19.787  0.00  0.00    +0.000 A 
ATOM      2  N   UNL     1      -3.042  12.744  20.916  0.00  0.00    +0.000 NA
ATOM      3  C   UNL     1      -4.374  12.630  20.959  0.00  0.00    +0.000 A 
ATOM      4  C   UNL     1      -5.021  12.948  22.149  0.00  0.00    +0.000 A 
ATOM      5  C   UNL     1      -6.411  12.848  22.294  0.00  0.00    +0.000 A 
ATOM      6  C   UNL     1      -7.175  12.400  21.222  0.00  0.00    +0.000 A 
ATOM      7  C   UNL     1      -6.543  12.086  20.018  0.00  0.00    +0.000 A 
ATOM      8  C   UNL     1      -5.133  12.185  19.860  0.00  0.00    +0.000 A 
ATOM      9  C   UNL     1      -4.427  11.837  18.666  0.00  0.00    +0.000 A 
ATOM     10  C   UNL     1      -5.059  11.399  17.485  0.00  0.00    +0.000 A 
ATOM     11  N   UNL     1      -4.443  11.034  16.337  0.00  0.00    +0.000 NA
ATOM     12  C   UNL     1      -3.106  11.064  16.346  0.00  0.00    +0.000 A 
ATOM     13  C   UNL     1      -2.368  11.458  17.445  0.00  0.00    +0.000 A 
ATOM     14  C   UNL     1      -3.016  11.904  18.626  0.00  0.00    +0.000 A 
ENDROOT
BRANCH   1  20
ATOM     15  C   UNL     1      -0.251  10.189  20.819  0.00  0.00    +0.000 C 
ATOM     16  C   UNL     1       0.070  11.567  20.335  0.00  0.00    +0.000 A 
ATOM     17  C   UNL     1       1.364  12.049  20.236  0.00  0.00    +0.000 A 
ATOM     18  S   UNL     1       1.430  13.681  19.754  0.00  0.00    +0.000 S 
ATOM     19  C   UNL     1      -0.274  13.778  19.704  0.00  0.00    +0.000 A 
ATOM     20  C   UNL     1      -0.901  12.559  19.905  0.00  0.00    +0.000 A 
ENDBRANCH   1  20
BRANCH   5  21
ATOM     21  C   UNL     1      -7.011  13.159  23.616  0.00  0.00    +0.000 C 
ATOM     22  O   UNL     1      -7.913  12.499  24.099  0.00  0.00    +0.000 OA
BRANCH  21  23
ATOM     23  O   UNL     1      -6.463  14.223  24.242  0.00  0.00    +0.000 OA
ATOM     24  H   UNL     1      -7.081  14.922  24.520  0.00  0.00    +0.000 HD
ENDBRANCH  21  23
ENDBRANCH   5  21
TORSDOF 3
ENDMDL
