MODEL 1
REMARK VINA RESULT:      -7.6      0.000      0.000
REMARK  Name = 
REMARK  5 active torsions:
REMARK  status: ('A' for Active; 'I' for Inactive)
REMARK    1  A    between atoms: C_2  and  C_3
REMARK    2  A    between atoms: C_2  and  C_16
REMARK    3  A    between atoms: C_6  and  O_7
REMARK    4  A    between atoms: O_7  and  C_8
REMARK    5  A    between atoms: C_8  and  C_9
REMARK                            x       y       z     vdW  Elec       q    Type
REMARK                         _______ _______ _______ _____ _____    ______ ____
ROOT
ATOM      1  C   UNL     1       5.749   4.965  15.551  0.00  0.00    +0.000 A 
ATOM      2  C   UNL     1       5.395   6.257  15.951  0.00  0.00    +0.000 A 
ATOM      3  C   UNL     1       4.832   6.453  17.194  0.00  0.00    +0.000 A 
ATOM      4  C   UNL     1       4.585   5.409  18.074  0.00  0.00    +0.000 A 
ATOM      5  C   UNL     1       4.901   4.097  17.664  0.00  0.00    +0.000 A 
ATOM      6  C   UNL     1       5.473   3.886  16.398  0.00  0.00    +0.000 A 
ENDROOT
BRANCH   1   8
ATOM      7  O   UNL     1       7.356   5.491  13.864  0.00  0.00    +0.000 OA
ATOM      8  C   UNL     1       6.430   4.752  14.245  0.00  0.00    +0.000 C 
BRANCH   8   9
ATOM      9  C   UNL     1       5.981   3.580  13.459  0.00  0.00    +0.000 C 
ATOM     10  C   UNL     1       5.048   3.588  12.276  0.00  0.00    +0.000 C 
ATOM     11  C   UNL     1       6.518   3.392  12.061  0.00  0.00    +0.000 C 
ENDBRANCH   8   9
ENDBRANCH   1   8
BRANCH   4  12
ATOM     12  O   UNL     1       4.050   5.663  19.323  0.00  0.00    +0.000 OA
BRANCH  12  13
ATOM     13  C   UNL     1       2.678   6.137  19.291  0.00  0.00    +0.000 C 
BRANCH  13  14
ATOM     14  C   UNL     1       1.745   5.102  19.902  0.00  0.00    +0.000 C 
ATOM     15  C   UNL     1       1.395   3.969  18.951  0.00  0.00    +0.000 C 
ATOM     16  C   UNL     1       0.802   2.909  19.867  0.00  0.00    +0.000 C 
ATOM     17  C   UNL     1       1.503   3.085  21.214  0.00  0.00    +0.000 C 
ATOM     18  C   UNL     1       2.338   4.360  21.099  0.00  0.00    +0.000 C 
ENDBRANCH  13  14
ENDBRANCH  12  13
ENDBRANCH   4  12
TORSDOF 5
ENDMDL
MODEL 2
REMARK VINA RESULT:      -7.5      0.690      1.149
REMARK  Name = 
REMARK  5 active torsions:
REMARK  status: ('A' for Active; 'I' for Inactive)
REMARK    1  A    between atoms: C_2  and  C_3
REMARK    2  A    between atoms: C_2  and  C_16
REMARK    3  A    between atoms: C_6  and  O_7
REMARK    4  A    between atoms: O_7  and  C_8
REMARK    5  A    between atoms: C_8  and  C_9
REMARK                            x       y       z     vdW  Elec       q    Type
REMARK                         _______ _______ _______ _____ _____    ______ ____
ROOT
ATOM      1  C   UNL     1       6.252   5.048  15.588  0.00  0.00    +0.000 A 
ATOM      2  C   UNL     1       5.194   5.952  15.716  0.00  0.00    +0.000 A 
ATOM      3  C   UNL     1       4.661   6.205  16.962  0.00  0.00    +0.000 A 
ATOM      4  C   UNL     1       5.125   5.582  18.111  0.00  0.00    +0.000 A 
ATOM      5  C   UNL     1       6.166   4.636  17.989  0.00  0.00    +0.000 A 
ATOM      6  C   UNL     1       6.715   4.371  16.722  0.00  0.00    +0.000 A 
ENDROOT
BRANCH   1   8
ATOM      7  O   UNL     1       7.814   5.554  13.853  0.00  0.00    +0.000 OA
ATOM      8  C   UNL     1       6.887   4.829  14.261  0.00  0.00    +0.000 C 
BRANCH   8   9
ATOM      9  C   UNL     1       6.392   3.670  13.484  0.00  0.00    +0.000 C 
ATOM     10  C   UNL     1       5.252   3.661  12.499  0.00  0.00    +0.000 C 
ATOM     11  C   UNL     1       6.665   3.616  12.000  0.00  0.00    +0.000 C 
ENDBRANCH   8   9
ENDBRANCH   1   8
BRANCH   4  12
ATOM     12  O   UNL     1       4.580   5.895  19.342  0.00  0.00    +0.000 OA
BRANCH  12  13
ATOM     13  C   UNL     1       3.128   5.875  19.365  0.00  0.00    +0.000 C 
BRANCH  13  14
ATOM     14  C   UNL     1       2.620   4.466  19.628  0.00  0.00    +0.000 C 
ATOM     15  C   UNL     1       1.844   4.337  20.929  0.00  0.00    +0.000 C 
ATOM     16  C   UNL     1       1.136   2.998  20.786  0.00  0.00    +0.000 C 
ATOM     17  C   UNL     1       0.880   2.820  19.289  0.00  0.00    +0.000 C 
ATOM     18  C   UNL     1       1.617   3.963  18.591  0.00  0.00    +0.000 C 
ENDBRANCH  13  14
ENDBRANCH  12  13
ENDBRANCH   4  12
TORSDOF 5
ENDMDL
MODEL 3
REMARK VINA RESULT:      -7.5      0.375      1.123
REMARK  Name = 
REMARK  5 active torsions:
REMARK  status: ('A' for Active; 'I' for Inactive)
REMARK    1  A    between atoms: C_2  and  C_3
REMARK    2  A    between atoms: C_2  and  C_16
REMARK    3  A    between atoms: C_6  and  O_7
REMARK    4  A    between atoms: O_7  and  C_8
REMARK    5  A    between atoms: C_8  and  C_9
REMARK                            x       y       z     vdW  Elec       q    Type
REMARK                         _______ _______ _______ _____ _____    ______ ____
ROOT
ATOM      1  C   UNL     1       6.032   5.078  15.703  0.00  0.00    +0.000 A 
ATOM      2  C   UNL     1       6.304   4.237  16.787  0.00  0.00    +0.000 A 
ATOM      3  C   UNL     1       5.677   4.459  17.995  0.00  0.00    +0.000 A 
ATOM      4  C   UNL     1       4.784   5.504  18.190  0.00  0.00    +0.000 A 
ATOM      5  C   UNL     1       4.533   6.382  17.115  0.00  0.00    +0.000 A 
ATOM      6  C   UNL     1       5.170   6.165  15.880  0.00  0.00    +0.000 A 
ENDROOT
BRANCH   1   8
ATOM      7  O   UNL     1       7.580   5.484  13.930  0.00  0.00    +0.000 OA
ATOM      8  C   UNL     1       6.641   4.798  14.375  0.00  0.00    +0.000 C 
BRANCH   8   9
ATOM      9  C   UNL     1       6.105   3.627  13.645  0.00  0.00    +0.000 C 
ATOM     10  C   UNL     1       4.995   3.626  12.626  0.00  0.00    +0.000 C 
ATOM     11  C   UNL     1       6.417   3.478  12.176  0.00  0.00    +0.000 C 
ENDBRANCH   8   9
ENDBRANCH   1   8
BRANCH   4  12
ATOM     12  O   UNL     1       4.156   5.663  19.410  0.00  0.00    +0.000 OA
BRANCH  12  13
ATOM     13  C   UNL     1       2.789   6.144  19.310  0.00  0.00    +0.000 C 
BRANCH  13  14
ATOM     14  C   UNL     1       1.825   5.133  19.912  0.00  0.00    +0.000 C 
ATOM     15  C   UNL     1       1.417   4.037  18.942  0.00  0.00    +0.000 C 
ATOM     16  C   UNL     1       0.795   2.980  19.844  0.00  0.00    +0.000 C 
ATOM     17  C   UNL     1       1.522   3.098  21.183  0.00  0.00    +0.000 C 
ATOM     18  C   UNL     1       2.405   4.342  21.084  0.00  0.00    +0.000 C 
ENDBRANCH  13  14
ENDBRANCH  12  13
ENDBRANCH   4  12
TORSDOF 5
ENDMDL
MODEL 4
REMARK VINA RESULT:      -7.3      2.278      6.547
REMARK  Name = 
REMARK  5 active torsions:
REMARK  status: ('A' for Active; 'I' for Inactive)
REMARK    1  A    between atoms: C_2  and  C_3
REMARK    2  A    between atoms: C_2  and  C_16
REMARK    3  A    between atoms: C_6  and  O_7
REMARK    4  A    between atoms: O_7  and  C_8
REMARK    5  A    between atoms: C_8  and  C_9
REMARK                            x       y       z     vdW  Elec       q    Type
REMARK                         _______ _______ _______ _____ _____    ______ ____
ROOT
ATOM      1  C   UNL     1       2.331   4.001  18.404  0.00  0.00    +0.000 A 
ATOM      2  C   UNL     1       3.100   3.335  17.444  0.00  0.00    +0.000 A 
ATOM      3  C   UNL     1       4.005   4.046  16.685  0.00  0.00    +0.000 A 
ATOM      4  C   UNL     1       4.181   5.415  16.824  0.00  0.00    +0.000 A 
ATOM      5  C   UNL     1       3.382   6.104  17.761  0.00  0.00    +0.000 A 
ATOM      6  C   UNL     1       2.455   5.388  18.538  0.00  0.00    +0.000 A 
ENDROOT
BRANCH   1   8
ATOM      7  O   UNL     1       0.631   2.376  18.823  0.00  0.00    +0.000 OA
ATOM      8  C   UNL     1       1.411   3.231  19.283  0.00  0.00    +0.000 C 
BRANCH   8   9
ATOM      9  C   UNL     1       1.518   3.500  20.735  0.00  0.00    +0.000 C 
ATOM     10  C   UNL     1       1.262   2.527  21.857  0.00  0.00    +0.000 C 
ATOM     11  C   UNL     1       2.670   2.900  21.504  0.00  0.00    +0.000 C 
ENDBRANCH   8   9
ENDBRANCH   1   8
BRANCH   4  12
ATOM     12  O   UNL     1       5.127   6.076  16.063  0.00  0.00    +0.000 OA
BRANCH  12  13
ATOM     13  C   UNL     1       6.355   5.326  15.868  0.00  0.00    +0.000 C 
BRANCH  13  14
ATOM     14  C   UNL     1       7.393   5.729  16.905  0.00  0.00    +0.000 C 
ATOM     15  C   UNL     1       7.267   7.175  17.355  0.00  0.00    +0.000 C 
ATOM     16  C   UNL     1       8.116   7.227  18.617  0.00  0.00    +0.000 C 
ATOM     17  C   UNL     1       8.024   5.833  19.237  0.00  0.00    +0.000 C 
ATOM     18  C   UNL     1       7.288   4.960  18.221  0.00  0.00    +0.000 C 
ENDBRANCH  13  14
ENDBRANCH  12  13
ENDBRANCH   4  12
TORSDOF 5
ENDMDL
MODEL 5
REMARK VINA RESULT:      -7.1      1.187      1.797
REMARK  Name = 
REMARK  5 active torsions:
REMARK  status: ('A' for Active; 'I' for Inactive)
REMARK    1  A    between atoms: C_2  and  C_3
REMARK    2  A    between atoms: C_2  and  C_16
REMARK    3  A    between atoms: C_6  and  O_7
REMARK    4  A    between atoms: O_7  and  C_8
REMARK    5  A    between atoms: C_8  and  C_9
REMARK                            x       y       z     vdW  Elec       q    Type
REMARK                         _______ _______ _______ _____ _____    ______ ____
ROOT
ATOM      1  C   UNL     1       6.465   4.831  15.453  0.00  0.00    +0.000 A 
ATOM      2  C   UNL     1       7.199   4.464  16.585  0.00  0.00    +0.000 A 
ATOM      3  C   UNL     1       6.579   4.425  17.816  0.00  0.00    +0.000 A 
ATOM      4  C   UNL     1       5.241   4.751  17.986  0.00  0.00    +0.000 A 
ATOM      5  C   UNL     1       4.500   5.161  16.858  0.00  0.00    +0.000 A 
ATOM      6  C   UNL     1       5.126   5.206  15.599  0.00  0.00    +0.000 A 
ENDROOT
BRANCH   1   8
ATOM      7  O   UNL     1       7.952   5.644  13.770  0.00  0.00    +0.000 OA
ATOM      8  C   UNL     1       7.104   4.798  14.110  0.00  0.00    +0.000 C 
BRANCH   8   9
ATOM      9  C   UNL     1       6.714   3.673  13.229  0.00  0.00    +0.000 C 
ATOM     10  C   UNL     1       5.507   3.604  12.331  0.00  0.00    +0.000 C 
ATOM     11  C   UNL     1       6.864   3.831  11.736  0.00  0.00    +0.000 C 
ENDBRANCH   8   9
ENDBRANCH   1   8
BRANCH   4  12
ATOM     12  O   UNL     1       4.657   4.662  19.235  0.00  0.00    +0.000 OA
BRANCH  12  13
ATOM     13  C   UNL     1       4.525   3.303  19.729  0.00  0.00    +0.000 C 
BRANCH  13  14
ATOM     14  C   UNL     1       3.062   2.965  19.972  0.00  0.00    +0.000 C 
ATOM     15  C   UNL     1       2.722   2.774  21.441  0.00  0.00    +0.000 C 
ATOM     16  C   UNL     1       1.202   2.834  21.462  0.00  0.00    +0.000 C 
ATOM     17  C   UNL     1       0.806   3.766  20.317  0.00  0.00    +0.000 C 
ATOM     18  C   UNL     1       2.091   4.066  19.545  0.00  0.00    +0.000 C 
ENDBRANCH  13  14
ENDBRANCH  12  13
ENDBRANCH   4  12
TORSDOF 5
ENDMDL
MODEL 6
REMARK VINA RESULT:      -7.1      1.065      1.264
REMARK  Name = 
REMARK  5 active torsions:
REMARK  status: ('A' for Active; 'I' for Inactive)
REMARK    1  A    between atoms: C_2  and  C_3
REMARK    2  A    between atoms: C_2  and  C_16
REMARK    3  A    between atoms: C_6  and  O_7
REMARK    4  A    between atoms: O_7  and  C_8
REMARK    5  A    between atoms: C_8  and  C_9
REMARK                            x       y       z     vdW  Elec       q    Type
REMARK                         _______ _______ _______ _____ _____    ______ ____
ROOT
ATOM      1  C   UNL     1       6.175   4.387  15.523  0.00  0.00    +0.000 A 
ATOM      2  C   UNL     1       4.865   4.040  15.866  0.00  0.00    +0.000 A 
ATOM      3  C   UNL     1       4.478   4.069  17.189  0.00  0.00    +0.000 A 
ATOM      4  C   UNL     1       5.346   4.420  18.212  0.00  0.00    +0.000 A 
ATOM      5  C   UNL     1       6.682   4.733  17.882  0.00  0.00    +0.000 A 
ATOM      6  C   UNL     1       7.087   4.704  16.535  0.00  0.00    +0.000 A 
ENDROOT
BRANCH   1   8
ATOM      7  O   UNL     1       7.339   5.323  13.658  0.00  0.00    +0.000 OA
ATOM      8  C   UNL     1       6.580   4.436  14.092  0.00  0.00    +0.000 C 
BRANCH   8   9
ATOM      9  C   UNL     1       6.076   3.340  13.234  0.00  0.00    +0.000 C 
ATOM     10  C   UNL     1       5.364   3.479  11.913  0.00  0.00    +0.000 C 
ATOM     11  C   UNL     1       6.795   3.036  11.942  0.00  0.00    +0.000 C 
ENDBRANCH   8   9
ENDBRANCH   1   8
BRANCH   4  12
ATOM     12  O   UNL     1       4.900   4.468  19.519  0.00  0.00    +0.000 OA
BRANCH  12  13
ATOM     13  C   UNL     1       3.796   5.388  19.731  0.00  0.00    +0.000 C 
BRANCH  13  14
ATOM     14  C   UNL     1       2.626   4.671  20.387  0.00  0.00    +0.000 C 
ATOM     15  C   UNL     1       1.494   4.354  19.423  0.00  0.00    +0.000 C 
ATOM     16  C   UNL     1       0.655   3.339  20.185  0.00  0.00    +0.000 C 
ATOM     17  C   UNL     1       1.634   2.575  21.076  0.00  0.00    +0.000 C 
ATOM     18  C   UNL     1       2.977   3.295  20.951  0.00  0.00    +0.000 C 
ENDBRANCH  13  14
ENDBRANCH  12  13
ENDBRANCH   4  12
TORSDOF 5
ENDMDL
MODEL 7
REMARK VINA RESULT:      -7.0      0.590      1.555
REMARK  Name = 
REMARK  5 active torsions:
REMARK  status: ('A' for Active; 'I' for Inactive)
REMARK    1  A    between atoms: C_2  and  C_3
REMARK    2  A    between atoms: C_2  and  C_16
REMARK    3  A    between atoms: C_6  and  O_7
REMARK    4  A    between atoms: O_7  and  C_8
REMARK    5  A    between atoms: C_8  and  C_9
REMARK                            x       y       z     vdW  Elec       q    Type
REMARK                         _______ _______ _______ _____ _____    ______ ____
ROOT
ATOM      1  C   UNL     1       6.212   5.100  15.631  0.00  0.00    +0.000 A 
ATOM      2  C   UNL     1       5.657   4.057  16.377  0.00  0.00    +0.000 A 
ATOM      3  C   UNL     1       5.033   4.333  17.575  0.00  0.00    +0.000 A 
ATOM      4  C   UNL     1       4.942   5.619  18.088  0.00  0.00    +0.000 A 
ATOM      5  C   UNL     1       5.534   6.675  17.364  0.00  0.00    +0.000 A 
ATOM      6  C   UNL     1       6.175   6.402  16.142  0.00  0.00    +0.000 A 
ENDROOT
BRANCH   1   8
ATOM      7  O   UNL     1       7.758   5.505  13.855  0.00  0.00    +0.000 OA
ATOM      8  C   UNL     1       6.816   4.823  14.300  0.00  0.00    +0.000 C 
BRANCH   8   9
ATOM      9  C   UNL     1       6.270   3.658  13.566  0.00  0.00    +0.000 C 
ATOM     10  C   UNL     1       5.152   3.668  12.557  0.00  0.00    +0.000 C 
ATOM     11  C   UNL     1       6.570   3.518  12.094  0.00  0.00    +0.000 C 
ENDBRANCH   8   9
ENDBRANCH   1   8
BRANCH   4  12
ATOM     12  O   UNL     1       4.276   5.849  19.277  0.00  0.00    +0.000 OA
BRANCH  12  13
ATOM     13  C   UNL     1       2.830   5.760  19.169  0.00  0.00    +0.000 C 
BRANCH  13  14
ATOM     14  C   UNL     1       2.359   4.350  19.489  0.00  0.00    +0.000 C 
ATOM     15  C   UNL     1       1.498   4.271  20.740  0.00  0.00    +0.000 C 
ATOM     16  C   UNL     1       0.854   2.896  20.638  0.00  0.00    +0.000 C 
ATOM     17  C   UNL     1       0.712   2.613  19.142  0.00  0.00    +0.000 C 
ATOM     18  C   UNL     1       1.452   3.740  18.421  0.00  0.00    +0.000 C 
ENDBRANCH  13  14
ENDBRANCH  12  13
ENDBRANCH   4  12
TORSDOF 5
ENDMDL
MODEL 8
REMARK VINA RESULT:      -6.9      1.147      1.582
REMARK  Name = 
REMARK  5 active torsions:
REMARK  status: ('A' for Active; 'I' for Inactive)
REMARK    1  A    between atoms: C_2  and  C_3
REMARK    2  A    between atoms: C_2  and  C_16
REMARK    3  A    between atoms: C_6  and  O_7
REMARK    4  A    between atoms: O_7  and  C_8
REMARK    5  A    between atoms: C_8  and  C_9
REMARK                            x       y       z     vdW  Elec       q    Type
REMARK                         _______ _______ _______ _____ _____    ______ ____
ROOT
ATOM      1  C   UNL     1       6.347   4.738  15.494  0.00  0.00    +0.000 A 
ATOM      2  C   UNL     1       6.779   5.642  16.470  0.00  0.00    +0.000 A 
ATOM      3  C   UNL     1       6.259   5.566  17.745  0.00  0.00    +0.000 A 
ATOM      4  C   UNL     1       5.302   4.629  18.105  0.00  0.00    +0.000 A 
ATOM      5  C   UNL     1       4.829   3.738  17.118  0.00  0.00    +0.000 A 
ATOM      6  C   UNL     1       5.352   3.809  15.815  0.00  0.00    +0.000 A 
ENDROOT
BRANCH   1   8
ATOM      7  O   UNL     1       7.786   5.631  13.809  0.00  0.00    +0.000 OA
ATOM      8  C   UNL     1       6.960   4.759  14.139  0.00  0.00    +0.000 C 
BRANCH   8   9
ATOM      9  C   UNL     1       6.573   3.655  13.231  0.00  0.00    +0.000 C 
ATOM     10  C   UNL     1       5.474   3.674  12.201  0.00  0.00    +0.000 C 
ATOM     11  C   UNL     1       6.905   3.769  11.763  0.00  0.00    +0.000 C 
ENDBRANCH   8   9
ENDBRANCH   1   8
BRANCH   4  12
ATOM     12  O   UNL     1       4.838   4.572  19.406  0.00  0.00    +0.000 OA
BRANCH  12  13
ATOM     13  C   UNL     1       4.520   3.230  19.860  0.00  0.00    +0.000 C 
BRANCH  13  14
ATOM     14  C   UNL     1       3.059   3.141  20.273  0.00  0.00    +0.000 C 
ATOM     15  C   UNL     1       2.401   4.498  20.459  0.00  0.00    +0.000 C 
ATOM     16  C   UNL     1       0.915   4.169  20.483  0.00  0.00    +0.000 C 
ATOM     17  C   UNL     1       0.747   2.938  19.592  0.00  0.00    +0.000 C 
ATOM     18  C   UNL     1       2.159   2.473  19.235  0.00  0.00    +0.000 C 
ENDBRANCH  13  14
ENDBRANCH  12  13
ENDBRANCH   4  12
TORSDOF 5
ENDMDL
MODEL 9
REMARK VINA RESULT:      -6.9      1.363      1.977
REMARK  Name = 
REMARK  5 active torsions:
REMARK  status: ('A' for Active; 'I' for Inactive)
REMARK    1  A    between atoms: C_2  and  C_3
REMARK    2  A    between atoms: C_2  and  C_16
REMARK    3  A    between atoms: C_6  and  O_7
REMARK    4  A    between atoms: O_7  and  C_8
REMARK    5  A    between atoms: C_8  and  C_9
REMARK                            x       y       z     vdW  Elec       q    Type
REMARK                         _______ _______ _______ _____ _____    ______ ____
ROOT
ATOM      1  C   UNL     1       6.421   4.554  15.693  0.00  0.00    +0.000 A 
ATOM      2  C   UNL     1       5.122   4.094  15.929  0.00  0.00    +0.000 A 
ATOM      3  C   UNL     1       4.691   3.907  17.225  0.00  0.00    +0.000 A 
ATOM      4  C   UNL     1       5.505   4.145  18.323  0.00  0.00    +0.000 A 
ATOM      5  C   UNL     1       6.831   4.570  18.096  0.00  0.00    +0.000 A 
ATOM      6  C   UNL     1       7.280   4.762  16.777  0.00  0.00    +0.000 A 
ENDROOT
BRANCH   1   8
ATOM      7  O   UNL     1       7.912   5.474  14.069  0.00  0.00    +0.000 OA
ATOM      8  C   UNL     1       6.869   4.836  14.302  0.00  0.00    +0.000 C 
BRANCH   8   9
ATOM      9  C   UNL     1       6.033   4.267  13.220  0.00  0.00    +0.000 C 
ATOM     10  C   UNL     1       6.433   4.061  11.782  0.00  0.00    +0.000 C 
ATOM     11  C   UNL     1       6.350   2.883  12.707  0.00  0.00    +0.000 C 
ENDBRANCH   8   9
ENDBRANCH   1   8
BRANCH   4  12
ATOM     12  O   UNL     1       5.015   3.975  19.603  0.00  0.00    +0.000 OA
BRANCH  12  13
ATOM     13  C   UNL     1       4.456   2.658  19.850  0.00  0.00    +0.000 C 
BRANCH  13  14
ATOM     14  C   UNL     1       2.992   2.768  20.249  0.00  0.00    +0.000 C 
ATOM     15  C   UNL     1       2.511   4.203  20.391  0.00  0.00    +0.000 C 
ATOM     16  C   UNL     1       0.996   4.067  20.407  0.00  0.00    +0.000 C 
ATOM     17  C   UNL     1       0.678   2.843  19.548  0.00  0.00    +0.000 C 
ATOM     18  C   UNL     1       2.021   2.192  19.219  0.00  0.00    +0.000 C 
ENDBRANCH  13  14
ENDBRANCH  12  13
ENDBRANCH   4  12
TORSDOF 5
ENDMDL
