MODEL 1
REMARK VINA RESULT:      -7.7      0.000      0.000
REMARK  Name = 
REMARK  5 active torsions:
REMARK  status: ('A' for Active; 'I' for Inactive)
REMARK    1  A    between atoms: C_1  and  C_2
REMARK    2  A    between atoms: C_2  and  C_19
REMARK    3  A    between atoms: N_3  and  N_4
REMARK    4  A    between atoms: N_10  and  C_11
REMARK    5  A    between atoms: C_11  and  C_12
REMARK                            x       y       z     vdW  Elec       q    Type
REMARK                         _______ _______ _______ _____ _____    ______ ____
ROOT
ATOM      1  N   UNL     1       2.359   6.350  19.316  0.00  0.00    +0.000 NA
ATOM      2  C   UNL     1       2.409   5.089  19.612  0.00  0.00    +0.000 C 
ATOM      3  S   UNL     1       1.900   4.343  21.105  0.00  0.00    +0.000 S 
ATOM      4  C   UNL     1       2.702   2.781  20.702  0.00  0.00    +0.000 C 
ATOM      5  C   UNL     1       3.137   2.896  19.265  0.00  0.00    +0.000 C 
ATOM      6  O   UNL     1       3.680   1.972  18.665  0.00  0.00    +0.000 OA
ATOM      7  N   UNL     1       2.919   4.154  18.753  0.00  0.00    +0.000 N 
ENDROOT
BRANCH   1  10
ATOM      8  C   UNL     1       1.654   8.850  18.462  0.00  0.00    +0.000 C 
ATOM      9  C   UNL     1       1.478   8.370  19.893  0.00  0.00    +0.000 C 
ATOM     10  N   UNL     1       1.841   7.185  20.306  0.00  0.00    +0.000 NA
BRANCH   9  11
ATOM     11  C   UNL     1       0.869   9.273  20.873  0.00  0.00    +0.000 A 
ATOM     12  C   UNL     1       0.359   8.955  22.121  0.00  0.00    +0.000 A 
ATOM     13  C   UNL     1      -0.223  10.074  22.785  0.00  0.00    +0.000 A 
ATOM     14  C   UNL     1      -0.132  11.222  22.034  0.00  0.00    +0.000 A 
ATOM     15  S   UNL     1       0.671  10.949  20.553  0.00  0.00    +0.000 S 
ENDBRANCH   9  11
ENDBRANCH   1  10
BRANCH   7  16
ATOM     16  C   UNL     1       3.311   4.472  17.389  0.00  0.00    +0.000 C 
BRANCH  16  17
ATOM     17  C   UNL     1       4.815   4.569  17.234  0.00  0.00    +0.000 A 
ATOM     18  C   UNL     1       5.445   4.142  16.056  0.00  0.00    +0.000 A 
ATOM     19  C   UNL     1       6.833   4.219  15.924  0.00  0.00    +0.000 A 
ATOM     20  C   UNL     1       7.609   4.720  16.969  0.00  0.00    +0.000 A 
ATOM     21  C   UNL     1       6.993   5.145  18.143  0.00  0.00    +0.000 A 
ATOM     22 CL   UNL     1       7.949   5.762  19.435  0.00  0.00    +0.000 Cl
ATOM     23  C   UNL     1       5.606   5.071  18.281  0.00  0.00    +0.000 A 
ENDBRANCH  16  17
ENDBRANCH   7  16
TORSDOF 4
ENDMDL
MODEL 2
REMARK VINA RESULT:      -7.7      3.470      7.336
REMARK  Name = 
REMARK  5 active torsions:
REMARK  status: ('A' for Active; 'I' for Inactive)
REMARK    1  A    between atoms: C_1  and  C_2
REMARK    2  A    between atoms: C_2  and  C_19
REMARK    3  A    between atoms: N_3  and  N_4
REMARK    4  A    between atoms: N_10  and  C_11
REMARK    5  A    between atoms: C_11  and  C_12
REMARK                            x       y       z     vdW  Elec       q    Type
REMARK                         _______ _______ _______ _____ _____    ______ ____
ROOT
ATOM      1  N   UNL     1       4.231   4.724  17.450  0.00  0.00    +0.000 NA
ATOM      2  C   UNL     1       3.263   4.091  18.034  0.00  0.00    +0.000 C 
ATOM      3  S   UNL     1       2.492   2.622  17.492  0.00  0.00    +0.000 S 
ATOM      4  C   UNL     1       1.135   2.795  18.663  0.00  0.00    +0.000 C 
ATOM      5  C   UNL     1       1.521   3.922  19.584  0.00  0.00    +0.000 C 
ATOM      6  O   UNL     1       0.822   4.266  20.533  0.00  0.00    +0.000 OA
ATOM      7  N   UNL     1       2.685   4.541  19.190  0.00  0.00    +0.000 N 
ENDROOT
BRANCH   1  10
ATOM      8  C   UNL     1       5.171   6.514  15.609  0.00  0.00    +0.000 C 
ATOM      9  C   UNL     1       5.171   5.009  15.394  0.00  0.00    +0.000 C 
ATOM     10  N   UNL     1       4.695   4.157  16.263  0.00  0.00    +0.000 NA
BRANCH   9  11
ATOM     11  C   UNL     1       5.731   4.472  14.152  0.00  0.00    +0.000 A 
ATOM     12  C   UNL     1       5.126   3.616  13.246  0.00  0.00    +0.000 A 
ATOM     13  C   UNL     1       5.988   3.238  12.176  0.00  0.00    +0.000 A 
ATOM     14  C   UNL     1       7.227   3.826  12.283  0.00  0.00    +0.000 A 
ATOM     15  S   UNL     1       7.333   4.840  13.650  0.00  0.00    +0.000 S 
ENDBRANCH   9  11
ENDBRANCH   1  10
BRANCH   7  16
ATOM     16  C   UNL     1       3.200   5.681  19.932  0.00  0.00    +0.000 C 
BRANCH  16  17
ATOM     17  C   UNL     1       2.495   6.971  19.563  0.00  0.00    +0.000 A 
ATOM     18  C   UNL     1       2.607   7.507  18.272  0.00  0.00    +0.000 A 
ATOM     19  C   UNL     1       1.969   8.704  17.942  0.00  0.00    +0.000 A 
ATOM     20  C   UNL     1       1.214   9.382  18.898  0.00  0.00    +0.000 A 
ATOM     21  C   UNL     1       1.098   8.858  20.183  0.00  0.00    +0.000 A 
ATOM     22 CL   UNL     1       0.167   9.694  21.366  0.00  0.00    +0.000 Cl
ATOM     23  C   UNL     1       1.733   7.662  20.520  0.00  0.00    +0.000 A 
ENDBRANCH  16  17
ENDBRANCH   7  16
TORSDOF 4
ENDMDL
MODEL 3
REMARK VINA RESULT:      -7.5      1.267      1.597
REMARK  Name = 
REMARK  5 active torsions:
REMARK  status: ('A' for Active; 'I' for Inactive)
REMARK    1  A    between atoms: C_1  and  C_2
REMARK    2  A    between atoms: C_2  and  C_19
REMARK    3  A    between atoms: N_3  and  N_4
REMARK    4  A    between atoms: N_10  and  C_11
REMARK    5  A    between atoms: C_11  and  C_12
REMARK                            x       y       z     vdW  Elec       q    Type
REMARK                         _______ _______ _______ _____ _____    ______ ____
ROOT
ATOM      1  N   UNL     1       2.381   5.923  19.164  0.00  0.00    +0.000 NA
ATOM      2  C   UNL     1       2.494   4.701  19.581  0.00  0.00    +0.000 C 
ATOM      3  S   UNL     1       2.117   4.097  21.174  0.00  0.00    +0.000 S 
ATOM      4  C   UNL     1       2.941   2.525  20.871  0.00  0.00    +0.000 C 
ATOM      5  C   UNL     1       3.271   2.504  19.402  0.00  0.00    +0.000 C 
ATOM      6  O   UNL     1       3.802   1.538  18.859  0.00  0.00    +0.000 OA
ATOM      7  N   UNL     1       2.974   3.697  18.784  0.00  0.00    +0.000 N 
ENDROOT
BRANCH   1  10
ATOM      8  C   UNL     1       1.994   8.454  18.205  0.00  0.00    +0.000 C 
ATOM      9  C   UNL     1       1.693   8.043  19.637  0.00  0.00    +0.000 C 
ATOM     10  N   UNL     1       1.905   6.840  20.101  0.00  0.00    +0.000 NA
BRANCH   9  11
ATOM     11  C   UNL     1       1.135   9.037  20.557  0.00  0.00    +0.000 A 
ATOM     12  C   UNL     1       0.845   8.883  21.903  0.00  0.00    +0.000 A 
ATOM     13  C   UNL     1       0.245  10.040  22.478  0.00  0.00    +0.000 A 
ATOM     14  C   UNL     1       0.103  11.056  21.561  0.00  0.00    +0.000 A 
ATOM     15  S   UNL     1       0.713  10.617  20.030  0.00  0.00    +0.000 S 
ENDBRANCH   9  11
ENDBRANCH   1  10
BRANCH   7  16
ATOM     16  C   UNL     1       3.259   3.885  17.370  0.00  0.00    +0.000 C 
BRANCH  16  17
ATOM     17  C   UNL     1       4.715   4.222  17.120  0.00  0.00    +0.000 A 
ATOM     18  C   UNL     1       5.598   4.438  18.188  0.00  0.00    +0.000 A 
ATOM     19  C   UNL     1       6.934   4.763  17.951  0.00  0.00    +0.000 A 
ATOM     20  C   UNL     1       7.406   4.881  16.644  0.00  0.00    +0.000 A 
ATOM     21  C   UNL     1       6.537   4.670  15.577  0.00  0.00    +0.000 A 
ATOM     22 CL   UNL     1       7.116   4.816  13.962  0.00  0.00    +0.000 Cl
ATOM     23  C   UNL     1       5.200   4.344  15.806  0.00  0.00    +0.000 A 
ENDBRANCH  16  17
ENDBRANCH   7  16
TORSDOF 4
ENDMDL
MODEL 4
REMARK VINA RESULT:      -7.5      1.256      1.467
REMARK  Name = 
REMARK  5 active torsions:
REMARK  status: ('A' for Active; 'I' for Inactive)
REMARK    1  A    between atoms: C_1  and  C_2
REMARK    2  A    between atoms: C_2  and  C_19
REMARK    3  A    between atoms: N_3  and  N_4
REMARK    4  A    between atoms: N_10  and  C_11
REMARK    5  A    between atoms: C_11  and  C_12
REMARK                            x       y       z     vdW  Elec       q    Type
REMARK                         _______ _______ _______ _____ _____    ______ ____
ROOT
ATOM      1  N   UNL     1       2.711   6.811  19.257  0.00  0.00    +0.000 NA
ATOM      2  C   UNL     1       2.521   5.530  19.235  0.00  0.00    +0.000 C 
ATOM      3  S   UNL     1       1.530   4.598  20.328  0.00  0.00    +0.000 S 
ATOM      4  C   UNL     1       2.212   3.033  19.755  0.00  0.00    +0.000 C 
ATOM      5  C   UNL     1       3.039   3.360  18.540  0.00  0.00    +0.000 C 
ATOM      6  O   UNL     1       3.609   2.496  17.878  0.00  0.00    +0.000 OA
ATOM      7  N   UNL     1       3.129   4.715  18.319  0.00  0.00    +0.000 N 
ENDROOT
BRANCH   1  10
ATOM      8  C   UNL     1       1.600   9.189  18.488  0.00  0.00    +0.000 C 
ATOM      9  C   UNL     1       1.491   8.627  19.896  0.00  0.00    +0.000 C 
ATOM     10  N   UNL     1       2.046   7.505  20.269  0.00  0.00    +0.000 NA
BRANCH   9  11
ATOM     11  C   UNL     1       0.725   9.372  20.897  0.00  0.00    +0.000 A 
ATOM     12  C   UNL     1       0.273   8.924  22.128  0.00  0.00    +0.000 A 
ATOM     13  C   UNL     1      -0.504   9.897  22.822  0.00  0.00    +0.000 A 
ATOM     14  C   UNL     1      -0.614  11.070  22.111  0.00  0.00    +0.000 A 
ATOM     15  S   UNL     1       0.233  10.997  20.632  0.00  0.00    +0.000 S 
ENDBRANCH   9  11
ENDBRANCH   1  10
BRANCH   7  16
ATOM     16  C   UNL     1       3.920   5.230  17.213  0.00  0.00    +0.000 C 
BRANCH  16  17
ATOM     17  C   UNL     1       5.327   5.601  17.639  0.00  0.00    +0.000 A 
ATOM     18  C   UNL     1       6.147   4.673  18.296  0.00  0.00    +0.000 A 
ATOM     19  C   UNL     1       7.436   5.025  18.701  0.00  0.00    +0.000 A 
ATOM     20  C   UNL     1       7.920   6.309  18.458  0.00  0.00    +0.000 A 
ATOM     21  C   UNL     1       7.113   7.239  17.808  0.00  0.00    +0.000 A 
ATOM     22 CL   UNL     1       7.708   8.827  17.508  0.00  0.00    +0.000 Cl
ATOM     23  C   UNL     1       5.823   6.894  17.400  0.00  0.00    +0.000 A 
ENDBRANCH  16  17
ENDBRANCH   7  16
TORSDOF 4
ENDMDL
MODEL 5
REMARK VINA RESULT:      -7.5      1.995      2.524
REMARK  Name = 
REMARK  5 active torsions:
REMARK  status: ('A' for Active; 'I' for Inactive)
REMARK    1  A    between atoms: C_1  and  C_2
REMARK    2  A    between atoms: C_2  and  C_19
REMARK    3  A    between atoms: N_3  and  N_4
REMARK    4  A    between atoms: N_10  and  C_11
REMARK    5  A    between atoms: C_11  and  C_12
REMARK                            x       y       z     vdW  Elec       q    Type
REMARK                         _______ _______ _______ _____ _____    ______ ____
ROOT
ATOM      1  N   UNL     1       3.358   5.715  19.594  0.00  0.00    +0.000 NA
ATOM      2  C   UNL     1       2.899   4.583  19.164  0.00  0.00    +0.000 C 
ATOM      3  S   UNL     1       1.234   4.188  18.825  0.00  0.00    +0.000 S 
ATOM      4  C   UNL     1       1.583   2.425  18.703  0.00  0.00    +0.000 C 
ATOM      5  C   UNL     1       3.083   2.296  18.717  0.00  0.00    +0.000 C 
ATOM      6  O   UNL     1       3.652   1.214  18.601  0.00  0.00    +0.000 OA
ATOM      7  N   UNL     1       3.708   3.501  18.942  0.00  0.00    +0.000 N 
ENDROOT
BRANCH   1  10
ATOM      8  C   UNL     1       3.397   7.744  17.762  0.00  0.00    +0.000 C 
ATOM      9  C   UNL     1       2.406   7.670  18.912  0.00  0.00    +0.000 C 
ATOM     10  N   UNL     1       2.408   6.715  19.803  0.00  0.00    +0.000 NA
BRANCH   9  11
ATOM     11  C   UNL     1       1.390   8.717  19.040  0.00  0.00    +0.000 A 
ATOM     12  C   UNL     1       0.817   9.474  18.031  0.00  0.00    +0.000 A 
ATOM     13  C   UNL     1      -0.092  10.457  18.522  0.00  0.00    +0.000 A 
ATOM     14  C   UNL     1      -0.201  10.417  19.892  0.00  0.00    +0.000 A 
ATOM     15  S   UNL     1       0.768   9.188  20.571  0.00  0.00    +0.000 S 
ENDBRANCH   9  11
ENDBRANCH   1  10
BRANCH   7  16
ATOM     16  C   UNL     1       5.158   3.574  19.029  0.00  0.00    +0.000 C 
BRANCH  16  17
ATOM     17  C   UNL     1       5.766   4.304  17.849  0.00  0.00    +0.000 A 
ATOM     18  C   UNL     1       6.594   5.419  18.042  0.00  0.00    +0.000 A 
ATOM     19  C   UNL     1       7.139   6.098  16.951  0.00  0.00    +0.000 A 
ATOM     20  C   UNL     1       6.862   5.672  15.652  0.00  0.00    +0.000 A 
ATOM     21  C   UNL     1       6.040   4.567  15.450  0.00  0.00    +0.000 A 
ATOM     22 CL   UNL     1       5.695   4.040  13.847  0.00  0.00    +0.000 Cl
ATOM     23  C   UNL     1       5.492   3.884  16.537  0.00  0.00    +0.000 A 
ENDBRANCH  16  17
ENDBRANCH   7  16
TORSDOF 4
ENDMDL
MODEL 6
REMARK VINA RESULT:      -7.5      1.604      2.010
REMARK  Name = 
REMARK  5 active torsions:
REMARK  status: ('A' for Active; 'I' for Inactive)
REMARK    1  A    between atoms: C_1  and  C_2
REMARK    2  A    between atoms: C_2  and  C_19
REMARK    3  A    between atoms: N_3  and  N_4
REMARK    4  A    between atoms: N_10  and  C_11
REMARK    5  A    between atoms: C_11  and  C_12
REMARK                            x       y       z     vdW  Elec       q    Type
REMARK                         _______ _______ _______ _____ _____    ______ ____
ROOT
ATOM      1  N   UNL     1       3.344   5.689  19.594  0.00  0.00    +0.000 NA
ATOM      2  C   UNL     1       2.867   4.548  19.205  0.00  0.00    +0.000 C 
ATOM      3  S   UNL     1       1.188   4.148  18.944  0.00  0.00    +0.000 S 
ATOM      4  C   UNL     1       1.532   2.384  18.840  0.00  0.00    +0.000 C 
ATOM      5  C   UNL     1       3.031   2.254  18.793  0.00  0.00    +0.000 C 
ATOM      6  O   UNL     1       3.595   1.169  18.674  0.00  0.00    +0.000 OA
ATOM      7  N   UNL     1       3.665   3.462  18.968  0.00  0.00    +0.000 N 
ENDROOT
BRANCH   1  10
ATOM      8  C   UNL     1       3.365   7.728  17.772  0.00  0.00    +0.000 C 
ATOM      9  C   UNL     1       2.392   7.653  18.938  0.00  0.00    +0.000 C 
ATOM     10  N   UNL     1       2.403   6.693  19.824  0.00  0.00    +0.000 NA
BRANCH   9  11
ATOM     11  C   UNL     1       1.385   8.706  19.089  0.00  0.00    +0.000 A 
ATOM     12  C   UNL     1       0.829   9.498  18.098  0.00  0.00    +0.000 A 
ATOM     13  C   UNL     1      -0.075  10.474  18.610  0.00  0.00    +0.000 A 
ATOM     14  C   UNL     1      -0.199  10.394  19.978  0.00  0.00    +0.000 A 
ATOM     15  S   UNL     1       0.752   9.135  20.627  0.00  0.00    +0.000 S 
ENDBRANCH   9  11
ENDBRANCH   1  10
BRANCH   7  16
ATOM     16  C   UNL     1       5.117   3.536  18.993  0.00  0.00    +0.000 C 
BRANCH  16  17
ATOM     17  C   UNL     1       5.667   4.392  17.870  0.00  0.00    +0.000 A 
ATOM     18  C   UNL     1       5.465   4.034  16.529  0.00  0.00    +0.000 A 
ATOM     19  C   UNL     1       5.987   4.817  15.498  0.00  0.00    +0.000 A 
ATOM     20  C   UNL     1       6.720   5.966  15.793  0.00  0.00    +0.000 A 
ATOM     21  C   UNL     1       6.927   6.329  17.122  0.00  0.00    +0.000 A 
ATOM     22 CL   UNL     1       7.833   7.746  17.489  0.00  0.00    +0.000 Cl
ATOM     23  C   UNL     1       6.408   5.550  18.157  0.00  0.00    +0.000 A 
ENDBRANCH  16  17
ENDBRANCH   7  16
TORSDOF 4
ENDMDL
MODEL 7
REMARK VINA RESULT:      -7.4      1.471      1.649
REMARK  Name = 
REMARK  5 active torsions:
REMARK  status: ('A' for Active; 'I' for Inactive)
REMARK    1  A    between atoms: C_1  and  C_2
REMARK    2  A    between atoms: C_2  and  C_19
REMARK    3  A    between atoms: N_3  and  N_4
REMARK    4  A    between atoms: N_10  and  C_11
REMARK    5  A    between atoms: C_11  and  C_12
REMARK                            x       y       z     vdW  Elec       q    Type
REMARK                         _______ _______ _______ _____ _____    ______ ____
ROOT
ATOM      1  N   UNL     1       3.355   5.493  19.923  0.00  0.00    +0.000 NA
ATOM      2  C   UNL     1       2.834   4.379  19.514  0.00  0.00    +0.000 C 
ATOM      3  S   UNL     1       1.137   3.976  19.450  0.00  0.00    +0.000 S 
ATOM      4  C   UNL     1       1.471   2.230  19.164  0.00  0.00    +0.000 C 
ATOM      5  C   UNL     1       2.951   2.125  18.906  0.00  0.00    +0.000 C 
ATOM      6  O   UNL     1       3.498   1.061  18.628  0.00  0.00    +0.000 OA
ATOM      7  N   UNL     1       3.598   3.326  19.089  0.00  0.00    +0.000 N 
ENDROOT
BRANCH   1  10
ATOM      8  C   UNL     1       3.069   7.632  18.245  0.00  0.00    +0.000 C 
ATOM      9  C   UNL     1       2.291   7.471  19.541  0.00  0.00    +0.000 C 
ATOM     10  N   UNL     1       2.449   6.462  20.355  0.00  0.00    +0.000 NA
BRANCH   9  11
ATOM     11  C   UNL     1       1.307   8.492  19.907  0.00  0.00    +0.000 A 
ATOM     12  C   UNL     1       0.609   8.612  21.098  0.00  0.00    +0.000 A 
ATOM     13  C   UNL     1      -0.323   9.690  21.090  0.00  0.00    +0.000 A 
ATOM     14  C   UNL     1      -0.304  10.377  19.898  0.00  0.00    +0.000 A 
ATOM     15  S   UNL     1       0.847   9.735  18.814  0.00  0.00    +0.000 S 
ENDBRANCH   9  11
ENDBRANCH   1  10
BRANCH   7  16
ATOM     16  C   UNL     1       5.040   3.418  18.924  0.00  0.00    +0.000 C 
BRANCH  16  17
ATOM     17  C   UNL     1       5.430   4.379  17.819  0.00  0.00    +0.000 A 
ATOM     18  C   UNL     1       4.973   4.189  16.507  0.00  0.00    +0.000 A 
ATOM     19  C   UNL     1       5.348   5.067  15.489  0.00  0.00    +0.000 A 
ATOM     20  C   UNL     1       6.187   6.146  15.769  0.00  0.00    +0.000 A 
ATOM     21  C   UNL     1       6.647   6.342  17.068  0.00  0.00    +0.000 A 
ATOM     22 CL   UNL     1       7.684   7.672  17.416  0.00  0.00    +0.000 Cl
ATOM     23  C   UNL     1       6.275   5.468  18.090  0.00  0.00    +0.000 A 
ENDBRANCH  16  17
ENDBRANCH   7  16
TORSDOF 4
ENDMDL
MODEL 8
REMARK VINA RESULT:      -7.4      1.156      1.411
REMARK  Name = 
REMARK  5 active torsions:
REMARK  status: ('A' for Active; 'I' for Inactive)
REMARK    1  A    between atoms: C_1  and  C_2
REMARK    2  A    between atoms: C_2  and  C_19
REMARK    3  A    between atoms: N_3  and  N_4
REMARK    4  A    between atoms: N_10  and  C_11
REMARK    5  A    between atoms: C_11  and  C_12
REMARK                            x       y       z     vdW  Elec       q    Type
REMARK                         _______ _______ _______ _____ _____    ______ ____
ROOT
ATOM      1  N   UNL     1       2.728   6.405  19.129  0.00  0.00    +0.000 NA
ATOM      2  C   UNL     1       2.658   5.161  19.487  0.00  0.00    +0.000 C 
ATOM      3  S   UNL     1       1.820   4.516  20.876  0.00  0.00    +0.000 S 
ATOM      4  C   UNL     1       2.615   2.908  20.720  0.00  0.00    +0.000 C 
ATOM      5  C   UNL     1       3.341   2.928  19.401  0.00  0.00    +0.000 C 
ATOM      6  O   UNL     1       3.954   1.954  18.971  0.00  0.00    +0.000 OA
ATOM      7  N   UNL     1       3.291   4.163  18.797  0.00  0.00    +0.000 N 
ENDROOT
BRANCH   1  10
ATOM      8  C   UNL     1       2.002   8.743  17.913  0.00  0.00    +0.000 C 
ATOM      9  C   UNL     1       1.684   8.416  19.363  0.00  0.00    +0.000 C 
ATOM     10  N   UNL     1       2.056   7.311  19.950  0.00  0.00    +0.000 NA
BRANCH   9  11
ATOM     11  C   UNL     1       0.920   9.382  20.155  0.00  0.00    +0.000 A 
ATOM     12  C   UNL     1       0.514  10.654  19.785  0.00  0.00    +0.000 A 
ATOM     13  C   UNL     1      -0.157  11.351  20.832  0.00  0.00    +0.000 A 
ATOM     14  C   UNL     1      -0.260  10.588  21.973  0.00  0.00    +0.000 A 
ATOM     15  S   UNL     1       0.427   9.041  21.765  0.00  0.00    +0.000 S 
ENDBRANCH   9  11
ENDBRANCH   1  10
BRANCH   7  16
ATOM     16  C   UNL     1       3.969   4.392  17.531  0.00  0.00    +0.000 C 
BRANCH  16  17
ATOM     17  C   UNL     1       5.200   5.260  17.691  0.00  0.00    +0.000 A 
ATOM     18  C   UNL     1       5.426   6.351  16.839  0.00  0.00    +0.000 A 
ATOM     19  C   UNL     1       6.571   7.138  16.980  0.00  0.00    +0.000 A 
ATOM     20  C   UNL     1       7.506   6.843  17.971  0.00  0.00    +0.000 A 
ATOM     21  C   UNL     1       7.292   5.761  18.821  0.00  0.00    +0.000 A 
ATOM     22 CL   UNL     1       8.446   5.394  20.044  0.00  0.00    +0.000 Cl
ATOM     23  C   UNL     1       6.149   4.971  18.685  0.00  0.00    +0.000 A 
ENDBRANCH  16  17
ENDBRANCH   7  16
TORSDOF 4
ENDMDL
MODEL 9
REMARK VINA RESULT:      -7.2      1.220      1.387
REMARK  Name = 
REMARK  5 active torsions:
REMARK  status: ('A' for Active; 'I' for Inactive)
REMARK    1  A    between atoms: C_1  and  C_2
REMARK    2  A    between atoms: C_2  and  C_19
REMARK    3  A    between atoms: N_3  and  N_4
REMARK    4  A    between atoms: N_10  and  C_11
REMARK    5  A    between atoms: C_11  and  C_12
REMARK                            x       y       z     vdW  Elec       q    Type
REMARK                         _______ _______ _______ _____ _____    ______ ____
ROOT
ATOM      1  N   UNL     1       2.765   7.042  19.145  0.00  0.00    +0.000 NA
ATOM      2  C   UNL     1       2.641   5.787  19.444  0.00  0.00    +0.000 C 
ATOM      3  S   UNL     1       1.736   5.111  20.774  0.00  0.00    +0.000 S 
ATOM      4  C   UNL     1       2.479   3.483  20.569  0.00  0.00    +0.000 C 
ATOM      5  C   UNL     1       3.247   3.537  19.276  0.00  0.00    +0.000 C 
ATOM      6  O   UNL     1       3.839   2.561  18.819  0.00  0.00    +0.000 OA
ATOM      7  N   UNL     1       3.260   4.799  18.728  0.00  0.00    +0.000 N 
ENDROOT
BRANCH   1  10
ATOM      8  C   UNL     1       1.624   9.183  17.884  0.00  0.00    +0.000 C 
ATOM      9  C   UNL     1       1.530   8.942  19.382  0.00  0.00    +0.000 C 
ATOM     10  N   UNL     1       2.100   7.934  19.986  0.00  0.00    +0.000 NA
BRANCH   9  11
ATOM     11  C   UNL     1       0.762   9.881  20.203  0.00  0.00    +0.000 A 
ATOM     12  C   UNL     1      -0.143   9.587  21.210  0.00  0.00    +0.000 A 
ATOM     13  C   UNL     1      -0.762  10.749  21.757  0.00  0.00    +0.000 A 
ATOM     14  C   UNL     1      -0.304  11.903  21.164  0.00  0.00    +0.000 A 
ATOM     15  S   UNL     1       0.879  11.580  19.978  0.00  0.00    +0.000 S 
ENDBRANCH   9  11
ENDBRANCH   1  10
BRANCH   7  16
ATOM     16  C   UNL     1       3.986   5.060  17.495  0.00  0.00    +0.000 C 
BRANCH  16  17
ATOM     17  C   UNL     1       5.318   5.737  17.748  0.00  0.00    +0.000 A 
ATOM     18  C   UNL     1       5.733   6.823  16.963  0.00  0.00    +0.000 A 
ATOM     19  C   UNL     1       6.968   7.433  17.190  0.00  0.00    +0.000 A 
ATOM     20  C   UNL     1       7.806   6.964  18.201  0.00  0.00    +0.000 A 
ATOM     21  C   UNL     1       7.403   5.885  18.985  0.00  0.00    +0.000 A 
ATOM     22 CL   UNL     1       8.436   5.303  20.233  0.00  0.00    +0.000 Cl
ATOM     23  C   UNL     1       6.170   5.271  18.764  0.00  0.00    +0.000 A 
ENDBRANCH  16  17
ENDBRANCH   7  16
TORSDOF 4
ENDMDL
