MODEL 1
REMARK VINA RESULT:      -7.5      0.000      0.000
REMARK  Name = 
REMARK  2 active torsions:
REMARK  status: ('A' for Active; 'I' for Inactive)
REMARK    1  A    between atoms: C_4  and  C_5
REMARK    2  A    between atoms: C_12  and  C_13
REMARK                            x       y       z     vdW  Elec       q    Type
REMARK                         _______ _______ _______ _____ _____    ______ ____
ROOT
ATOM      1  O   UNL     1       2.059   8.100  19.352  0.00  0.00    +0.000 OA
ATOM      2  C   UNL     1       2.543   7.035  18.985  0.00  0.00    +0.000 A 
ATOM      3  C   UNL     1       2.192   5.787  19.668  0.00  0.00    +0.000 A 
ATOM      4  C   UNL     1       2.689   4.594  19.305  0.00  0.00    +0.000 A 
ATOM      5  C   UNL     1       3.580   4.553  18.149  0.00  0.00    +0.000 A 
ATOM      6  C   UNL     1       4.129   3.303  17.553  0.00  0.00    +0.000 A 
ATOM      7  O   UNL     1       3.718   2.179  17.809  0.00  0.00    +0.000 OA
ATOM      8  N   UNL     1       5.116   3.473  16.631  0.00  0.00    +0.000 N 
ATOM      9  C   UNL     1       5.356   4.685  16.046  0.00  0.00    +0.000 A 
ATOM     10  N   UNL     1       4.789   5.774  16.449  0.00  0.00    +0.000 NA
ATOM     11  C   UNL     1       3.937   5.693  17.526  0.00  0.00    +0.000 A 
ATOM     12  O   UNL     1       3.425   6.942  17.954  0.00  0.00    +0.000 OA
ATOM     13  H   UNL     1       5.487   2.629  16.214  0.00  0.00    +0.000 HD
ENDROOT
BRANCH   4  14
ATOM     14  C   UNL     1       2.307   3.352  20.005  0.00  0.00    +0.000 C 
ATOM     15  C   UNL     1       1.314   3.327  21.140  0.00  0.00    +0.000 C 
ATOM     16  C   UNL     1       0.902   2.821  19.796  0.00  0.00    +0.000 C 
ENDBRANCH   4  14
BRANCH   9  17
ATOM     17  C   UNL     1       6.334   4.664  14.885  0.00  0.00    +0.000 C 
ATOM     18  F   UNL     1       7.615   4.524  15.329  0.00  0.00    +0.000 F 
ATOM     19  F   UNL     1       6.107   3.583  14.084  0.00  0.00    +0.000 F 
ENDBRANCH   9  17
TORSDOF 2
ENDMDL
MODEL 2
REMARK VINA RESULT:      -7.3      0.744      1.033
REMARK  Name = 
REMARK  2 active torsions:
REMARK  status: ('A' for Active; 'I' for Inactive)
REMARK    1  A    between atoms: C_4  and  C_5
REMARK    2  A    between atoms: C_12  and  C_13
REMARK                            x       y       z     vdW  Elec       q    Type
REMARK                         _______ _______ _______ _____ _____    ______ ____
ROOT
ATOM      1  O   UNL     1       2.530   8.560  18.295  0.00  0.00    +0.000 OA
ATOM      2  C   UNL     1       2.945   7.417  18.136  0.00  0.00    +0.000 A 
ATOM      3  C   UNL     1       2.472   6.331  19.000  0.00  0.00    +0.000 A 
ATOM      4  C   UNL     1       2.890   5.062  18.868  0.00  0.00    +0.000 A 
ATOM      5  C   UNL     1       3.819   4.762  17.783  0.00  0.00    +0.000 A 
ATOM      6  C   UNL     1       4.292   3.394  17.433  0.00  0.00    +0.000 A 
ATOM      7  O   UNL     1       3.786   2.362  17.852  0.00  0.00    +0.000 OA
ATOM      8  N   UNL     1       5.324   3.335  16.547  0.00  0.00    +0.000 N 
ATOM      9  C   UNL     1       5.679   4.410  15.780  0.00  0.00    +0.000 A 
ATOM     10  N   UNL     1       5.183   5.588  15.966  0.00  0.00    +0.000 NA
ATOM     11  C   UNL     1       4.286   5.751  16.996  0.00  0.00    +0.000 A 
ATOM     12  O   UNL     1       3.856   7.088  17.182  0.00  0.00    +0.000 OA
ATOM     13  H   UNL     1       5.644   2.408  16.297  0.00  0.00    +0.000 HD
ENDROOT
BRANCH   4  14
ATOM     14  C   UNL     1       2.386   3.987  19.746  0.00  0.00    +0.000 C 
ATOM     15  C   UNL     1       1.253   4.193  20.720  0.00  0.00    +0.000 C 
ATOM     16  C   UNL     1       1.007   3.425  19.462  0.00  0.00    +0.000 C 
ENDBRANCH   4  14
BRANCH   9  17
ATOM     17  C   UNL     1       6.697   4.122  14.691  0.00  0.00    +0.000 C 
ATOM     18  F   UNL     1       6.081   3.757  13.531  0.00  0.00    +0.000 F 
ATOM     19  F   UNL     1       7.406   5.247  14.387  0.00  0.00    +0.000 F 
ENDBRANCH   9  17
TORSDOF 2
ENDMDL
MODEL 3
REMARK VINA RESULT:      -7.0      3.612      5.077
REMARK  Name = 
REMARK  2 active torsions:
REMARK  status: ('A' for Active; 'I' for Inactive)
REMARK    1  A    between atoms: C_4  and  C_5
REMARK    2  A    between atoms: C_12  and  C_13
REMARK                            x       y       z     vdW  Elec       q    Type
REMARK                         _______ _______ _______ _____ _____    ______ ____
ROOT
ATOM      1  O   UNL     1       2.595   8.815  17.299  0.00  0.00    +0.000 OA
ATOM      2  C   UNL     1       3.041   7.730  17.655  0.00  0.00    +0.000 A 
ATOM      3  C   UNL     1       4.442   7.384  17.396  0.00  0.00    +0.000 A 
ATOM      4  C   UNL     1       4.982   6.212  17.768  0.00  0.00    +0.000 A 
ATOM      5  C   UNL     1       4.135   5.275  18.499  0.00  0.00    +0.000 A 
ATOM      6  C   UNL     1       4.608   3.985  19.075  0.00  0.00    +0.000 A 
ATOM      7  O   UNL     1       5.785   3.679  19.204  0.00  0.00    +0.000 OA
ATOM      8  N   UNL     1       3.633   3.145  19.520  0.00  0.00    +0.000 N 
ATOM      9  C   UNL     1       2.354   3.575  19.737  0.00  0.00    +0.000 A 
ATOM     10  N   UNL     1       1.944   4.745  19.373  0.00  0.00    +0.000 NA
ATOM     11  C   UNL     1       2.837   5.563  18.722  0.00  0.00    +0.000 A 
ATOM     12  O   UNL     1       2.285   6.793  18.286  0.00  0.00    +0.000 OA
ATOM     13  H   UNL     1       3.947   2.271  19.920  0.00  0.00    +0.000 HD
ENDROOT
BRANCH   4  14
ATOM     14  C   UNL     1       6.399   5.897  17.503  0.00  0.00    +0.000 C 
ATOM     15  C   UNL     1       7.414   6.949  17.132  0.00  0.00    +0.000 C 
ATOM     16  C   UNL     1       7.432   6.368  18.508  0.00  0.00    +0.000 C 
ENDBRANCH   4  14
BRANCH   9  17
ATOM     17  C   UNL     1       1.445   2.581  20.438  0.00  0.00    +0.000 C 
ATOM     18  F   UNL     1       1.142   3.000  21.698  0.00  0.00    +0.000 F 
ATOM     19  F   UNL     1       0.248   2.483  19.790  0.00  0.00    +0.000 F 
ENDBRANCH   9  17
TORSDOF 2
ENDMDL
MODEL 4
REMARK VINA RESULT:      -7.0      1.454      1.534
REMARK  Name = 
REMARK  2 active torsions:
REMARK  status: ('A' for Active; 'I' for Inactive)
REMARK    1  A    between atoms: C_4  and  C_5
REMARK    2  A    between atoms: C_12  and  C_13
REMARK                            x       y       z     vdW  Elec       q    Type
REMARK                         _______ _______ _______ _____ _____    ______ ____
ROOT
ATOM      1  O   UNL     1       1.585   7.800  20.105  0.00  0.00    +0.000 OA
ATOM      2  C   UNL     1       2.297   6.818  19.926  0.00  0.00    +0.000 A 
ATOM      3  C   UNL     1       1.996   5.551  20.601  0.00  0.00    +0.000 A 
ATOM      4  C   UNL     1       2.740   4.446  20.437  0.00  0.00    +0.000 A 
ATOM      5  C   UNL     1       3.865   4.515  19.510  0.00  0.00    +0.000 A 
ATOM      6  C   UNL     1       4.719   3.353  19.135  0.00  0.00    +0.000 A 
ATOM      7  O   UNL     1       4.438   2.186  19.371  0.00  0.00    +0.000 OA
ATOM      8  N   UNL     1       5.851   3.654  18.440  0.00  0.00    +0.000 N 
ATOM      9  C   UNL     1       6.028   4.869  17.840  0.00  0.00    +0.000 A 
ATOM     10  N   UNL     1       5.225   5.862  18.034  0.00  0.00    +0.000 NA
ATOM     11  C   UNL     1       4.174   5.677  18.902  0.00  0.00    +0.000 A 
ATOM     12  O   UNL     1       3.393   6.838  19.121  0.00  0.00    +0.000 OA
ATOM     13  H   UNL     1       6.432   2.869  18.174  0.00  0.00    +0.000 HD
ENDROOT
BRANCH   4  14
ATOM     14  C   UNL     1       2.405   3.181  21.121  0.00  0.00    +0.000 C 
ATOM     15  C   UNL     1       1.082   2.951  21.809  0.00  0.00    +0.000 C 
ATOM     16  C   UNL     1       1.348   2.292  20.494  0.00  0.00    +0.000 C 
ENDBRANCH   4  14
BRANCH   9  17
ATOM     17  C   UNL     1       7.235   4.972  16.924  0.00  0.00    +0.000 C 
ATOM     18  F   UNL     1       8.284   4.255  17.417  0.00  0.00    +0.000 F 
ATOM     19  F   UNL     1       6.962   4.425  15.705  0.00  0.00    +0.000 F 
ENDBRANCH   9  17
TORSDOF 2
ENDMDL
MODEL 5
REMARK VINA RESULT:      -6.9      3.704      5.571
REMARK  Name = 
REMARK  2 active torsions:
REMARK  status: ('A' for Active; 'I' for Inactive)
REMARK    1  A    between atoms: C_4  and  C_5
REMARK    2  A    between atoms: C_12  and  C_13
REMARK                            x       y       z     vdW  Elec       q    Type
REMARK                         _______ _______ _______ _____ _____    ______ ____
ROOT
ATOM      1  O   UNL     1       8.367   5.527  19.407  0.00  0.00    +0.000 OA
ATOM      2  C   UNL     1       7.264   5.196  18.985  0.00  0.00    +0.000 A 
ATOM      3  C   UNL     1       7.097   4.796  17.584  0.00  0.00    +0.000 A 
ATOM      4  C   UNL     1       5.915   4.420  17.071  0.00  0.00    +0.000 A 
ATOM      5  C   UNL     1       4.768   4.371  17.973  0.00  0.00    +0.000 A 
ATOM      6  C   UNL     1       3.417   3.874  17.589  0.00  0.00    +0.000 A 
ATOM      7  O   UNL     1       3.178   3.244  16.568  0.00  0.00    +0.000 OA
ATOM      8  N   UNL     1       2.423   4.115  18.489  0.00  0.00    +0.000 N 
ATOM      9  C   UNL     1       2.690   4.477  19.780  0.00  0.00    +0.000 A 
ATOM     10  N   UNL     1       3.880   4.782  20.183  0.00  0.00    +0.000 NA
ATOM     11  C   UNL     1       4.895   4.761  19.256  0.00  0.00    +0.000 A 
ATOM     12  O   UNL     1       6.148   5.188  19.761  0.00  0.00    +0.000 OA
ATOM     13  H   UNL     1       1.505   3.773  18.240  0.00  0.00    +0.000 HD
ENDROOT
BRANCH   4  14
ATOM     14  C   UNL     1       5.780   4.012  15.659  0.00  0.00    +0.000 C 
ATOM     15  C   UNL     1       5.451   4.986  14.555  0.00  0.00    +0.000 C 
ATOM     16  C   UNL     1       6.848   4.469  14.683  0.00  0.00    +0.000 C 
ENDBRANCH   4  14
BRANCH   9  17
ATOM     17  C   UNL     1       1.491   4.493  20.711  0.00  0.00    +0.000 C 
ATOM     18  F   UNL     1       0.378   4.022  20.082  0.00  0.00    +0.000 F 
ATOM     19  F   UNL     1       1.692   3.657  21.769  0.00  0.00    +0.000 F 
ENDBRANCH   9  17
TORSDOF 2
ENDMDL
MODEL 6
REMARK VINA RESULT:      -6.8      3.498      5.104
REMARK  Name = 
REMARK  2 active torsions:
REMARK  status: ('A' for Active; 'I' for Inactive)
REMARK    1  A    between atoms: C_4  and  C_5
REMARK    2  A    between atoms: C_12  and  C_13
REMARK                            x       y       z     vdW  Elec       q    Type
REMARK                         _______ _______ _______ _____ _____    ______ ____
ROOT
ATOM      1  O   UNL     1       2.169   9.092  17.844  0.00  0.00    +0.000 OA
ATOM      2  C   UNL     1       2.638   7.987  18.094  0.00  0.00    +0.000 A 
ATOM      3  C   UNL     1       3.769   7.469  17.318  0.00  0.00    +0.000 A 
ATOM      4  C   UNL     1       4.323   6.269  17.553  0.00  0.00    +0.000 A 
ATOM      5  C   UNL     1       3.792   5.480  18.660  0.00  0.00    +0.000 A 
ATOM      6  C   UNL     1       4.362   4.182  19.118  0.00  0.00    +0.000 A 
ATOM      7  O   UNL     1       5.457   3.753  18.781  0.00  0.00    +0.000 OA
ATOM      8  N   UNL     1       3.602   3.487  20.009  0.00  0.00    +0.000 N 
ATOM      9  C   UNL     1       2.570   4.070  20.688  0.00  0.00    +0.000 A 
ATOM     10  N   UNL     1       2.138   5.256  20.408  0.00  0.00    +0.000 NA
ATOM     11  C   UNL     1       2.735   5.926  19.367  0.00  0.00    +0.000 A 
ATOM     12  O   UNL     1       2.147   7.181  19.074  0.00  0.00    +0.000 OA
ATOM     13  H   UNL     1       3.987   2.608  20.332  0.00  0.00    +0.000 HD
ENDROOT
BRANCH   4  14
ATOM     14  C   UNL     1       5.469   5.780  16.761  0.00  0.00    +0.000 C 
ATOM     15  C   UNL     1       5.342   4.689  15.727  0.00  0.00    +0.000 C 
ATOM     16  C   UNL     1       5.502   6.107  15.281  0.00  0.00    +0.000 C 
ENDBRANCH   4  14
BRANCH   9  17
ATOM     17  C   UNL     1       1.966   3.230  21.799  0.00  0.00    +0.000 C 
ATOM     18  F   UNL     1       0.761   2.717  21.423  0.00  0.00    +0.000 F 
ATOM     19  F   UNL     1       2.754   2.149  22.068  0.00  0.00    +0.000 F 
ENDBRANCH   9  17
TORSDOF 2
ENDMDL
MODEL 7
REMARK VINA RESULT:      -6.7      2.225      3.621
REMARK  Name = 
REMARK  2 active torsions:
REMARK  status: ('A' for Active; 'I' for Inactive)
REMARK    1  A    between atoms: C_4  and  C_5
REMARK    2  A    between atoms: C_12  and  C_13
REMARK                            x       y       z     vdW  Elec       q    Type
REMARK                         _______ _______ _______ _____ _____    ______ ____
ROOT
ATOM      1  O   UNL     1       5.166   1.333  20.730  0.00  0.00    +0.000 OA
ATOM      2  C   UNL     1       4.820   2.331  20.106  0.00  0.00    +0.000 A 
ATOM      3  C   UNL     1       3.402   2.572  19.821  0.00  0.00    +0.000 A 
ATOM      4  C   UNL     1       2.969   3.649  19.146  0.00  0.00    +0.000 A 
ATOM      5  C   UNL     1       3.962   4.632  18.727  0.00  0.00    +0.000 A 
ATOM      6  C   UNL     1       3.637   5.928  18.067  0.00  0.00    +0.000 A 
ATOM      7  O   UNL     1       2.516   6.413  18.017  0.00  0.00    +0.000 OA
ATOM      8  N   UNL     1       4.697   6.606  17.547  0.00  0.00    +0.000 N 
ATOM      9  C   UNL     1       5.986   6.304  17.887  0.00  0.00    +0.000 A 
ATOM     10  N   UNL     1       6.293   5.257  18.580  0.00  0.00    +0.000 NA
ATOM     11  C   UNL     1       5.272   4.415  18.955  0.00  0.00    +0.000 A 
ATOM     12  O   UNL     1       5.704   3.251  19.638  0.00  0.00    +0.000 OA
ATOM     13  H   UNL     1       4.485   7.492  17.105  0.00  0.00    +0.000 HD
ENDROOT
BRANCH   4  14
ATOM     14  C   UNL     1       1.533   3.870  18.885  0.00  0.00    +0.000 C 
ATOM     15  C   UNL     1       0.491   2.799  19.092  0.00  0.00    +0.000 C 
ATOM     16  C   UNL     1       0.594   3.920  20.074  0.00  0.00    +0.000 C 
ENDBRANCH   4  14
BRANCH   9  17
ATOM     17  C   UNL     1       7.035   7.287  17.397  0.00  0.00    +0.000 C 
ATOM     18  F   UNL     1       7.969   7.524  18.360  0.00  0.00    +0.000 F 
ATOM     19  F   UNL     1       7.724   6.767  16.342  0.00  0.00    +0.000 F 
ENDBRANCH   9  17
TORSDOF 2
ENDMDL
MODEL 8
REMARK VINA RESULT:      -6.6      1.251      1.411
REMARK  Name = 
REMARK  2 active torsions:
REMARK  status: ('A' for Active; 'I' for Inactive)
REMARK    1  A    between atoms: C_4  and  C_5
REMARK    2  A    between atoms: C_12  and  C_13
REMARK                            x       y       z     vdW  Elec       q    Type
REMARK                         _______ _______ _______ _____ _____    ______ ____
ROOT
ATOM      1  O   UNL     1       1.275   7.757  20.988  0.00  0.00    +0.000 OA
ATOM      2  C   UNL     1       1.825   6.871  20.343  0.00  0.00    +0.000 A 
ATOM      3  C   UNL     1       1.614   5.462  20.692  0.00  0.00    +0.000 A 
ATOM      4  C   UNL     1       2.188   4.453  20.018  0.00  0.00    +0.000 A 
ATOM      5  C   UNL     1       3.016   4.790  18.864  0.00  0.00    +0.000 A 
ATOM      6  C   UNL     1       3.632   3.789  17.949  0.00  0.00    +0.000 A 
ATOM      7  O   UNL     1       3.329   2.604  17.919  0.00  0.00    +0.000 OA
ATOM      8  N   UNL     1       4.551   4.280  17.071  0.00  0.00    +0.000 N 
ATOM      9  C   UNL     1       4.658   5.617  16.812  0.00  0.00    +0.000 A 
ATOM     10  N   UNL     1       4.027   6.510  17.500  0.00  0.00    +0.000 NA
ATOM     11  C   UNL     1       3.243   6.079  18.544  0.00  0.00    +0.000 A 
ATOM     12  O   UNL     1       2.654   7.125  19.297  0.00  0.00    +0.000 OA
ATOM     13  H   UNL     1       4.967   3.607  16.440  0.00  0.00    +0.000 HD
ENDROOT
BRANCH   4  14
ATOM     14  C   UNL     1       1.947   3.043  20.386  0.00  0.00    +0.000 C 
ATOM     15  C   UNL     1       2.763   2.322  21.430  0.00  0.00    +0.000 C 
ATOM     16  C   UNL     1       1.371   2.756  21.759  0.00  0.00    +0.000 C 
ENDBRANCH   4  14
BRANCH   9  17
ATOM     17  C   UNL     1       5.571   5.983  15.655  0.00  0.00    +0.000 C 
ATOM     18  F   UNL     1       6.874   5.725  15.961  0.00  0.00    +0.000 F 
ATOM     19  F   UNL     1       5.295   5.215  14.563  0.00  0.00    +0.000 F 
ENDBRANCH   9  17
TORSDOF 2
ENDMDL
MODEL 9
REMARK VINA RESULT:      -6.6      2.802      3.676
REMARK  Name = 
REMARK  2 active torsions:
REMARK  status: ('A' for Active; 'I' for Inactive)
REMARK    1  A    between atoms: C_4  and  C_5
REMARK    2  A    between atoms: C_12  and  C_13
REMARK                            x       y       z     vdW  Elec       q    Type
REMARK                         _______ _______ _______ _____ _____    ______ ____
ROOT
ATOM      1  O   UNL     1       8.093   7.996  18.073  0.00  0.00    +0.000 OA
ATOM      2  C   UNL     1       7.471   7.079  17.549  0.00  0.00    +0.000 A 
ATOM      3  C   UNL     1       6.385   6.411  18.273  0.00  0.00    +0.000 A 
ATOM      4  C   UNL     1       5.670   5.405  17.745  0.00  0.00    +0.000 A 
ATOM      5  C   UNL     1       5.972   5.003  16.375  0.00  0.00    +0.000 A 
ATOM      6  C   UNL     1       5.204   3.982  15.609  0.00  0.00    +0.000 A 
ATOM      7  O   UNL     1       4.112   3.544  15.946  0.00  0.00    +0.000 OA
ATOM      8  N   UNL     1       5.767   3.577  14.437  0.00  0.00    +0.000 N 
ATOM      9  C   UNL     1       6.775   4.281  13.840  0.00  0.00    +0.000 A 
ATOM     10  N   UNL     1       7.374   5.266  14.424  0.00  0.00    +0.000 NA
ATOM     11  C   UNL     1       6.985   5.585  15.703  0.00  0.00    +0.000 A 
ATOM     12  O   UNL     1       7.747   6.620  16.299  0.00  0.00    +0.000 OA
ATOM     13  H   UNL     1       5.247   2.891  13.907  0.00  0.00    +0.000 HD
ENDROOT
BRANCH   4  14
ATOM     14  C   UNL     1       4.574   4.760  18.495  0.00  0.00    +0.000 C 
ATOM     15  C   UNL     1       3.958   5.372  19.729  0.00  0.00    +0.000 C 
ATOM     16  C   UNL     1       3.201   5.403  18.440  0.00  0.00    +0.000 C 
ENDBRANCH   4  14
BRANCH   9  17
ATOM     17  C   UNL     1       7.143   3.826  12.438  0.00  0.00    +0.000 C 
ATOM     18  F   UNL     1       6.082   3.230  11.825  0.00  0.00    +0.000 F 
ATOM     19  F   UNL     1       7.462   4.895  11.654  0.00  0.00    +0.000 F 
ENDBRANCH   9  17
TORSDOF 2
ENDMDL
