MODEL 1
REMARK VINA RESULT:      -6.4      0.000      0.000
REMARK  Name = 
REMARK  6 active torsions:
REMARK  status: ('A' for Active; 'I' for Inactive)
REMARK    1  A    between atoms: C_1  and  C_2
REMARK    2  A    between atoms: C_5  and  C_6
REMARK    3  A    between atoms: C_6  and  O_7
REMARK    4  A    between atoms: C_8  and  C_9
REMARK    5  A    between atoms: N_10  and  N_11
REMARK    6  A    between atoms: C_15  and  O_16
REMARK                            x       y       z     vdW  Elec       q    Type
REMARK                         _______ _______ _______ _____ _____    ______ ____
ROOT
ATOM      1  C   UNL     1       7.853   5.632  19.282  0.00  0.00    +0.000 C 
ATOM      2  C   UNL     1       7.144   5.183  18.038  0.00  0.00    +0.000 A 
ATOM      3  N   UNL     1       7.756   5.438  16.860  0.00  0.00    +0.000 NA
ATOM      4  C   UNL     1       7.127   5.042  15.733  0.00  0.00    +0.000 A 
ATOM      5  C   UNL     1       5.892   4.391  15.686  0.00  0.00    +0.000 A 
ATOM      6  C   UNL     1       5.258   4.164  16.920  0.00  0.00    +0.000 A 
ATOM      7  C   UNL     1       5.908   4.546  18.110  0.00  0.00    +0.000 A 
ENDROOT
BRANCH   6   8
ATOM      8  C   UNL     1       3.903   3.550  17.002  0.00  0.00    +0.000 C 
ATOM      9  N   UNL     1       3.655   2.577  17.831  0.00  0.00    +0.000 NA
BRANCH   9  10
ATOM     10  N   UNL     1       2.380   2.090  17.784  0.00  0.00    +0.000 N 
ATOM     11  C   UNL     1       1.419   2.435  18.697  0.00  0.00    +0.000 C 
ATOM     12  N   UNL     1       1.812   3.318  19.649  0.00  0.00    +0.000 N 
ATOM     13  O   UNL     1       0.280   1.980  18.667  0.00  0.00    +0.000 OA
ATOM     14  H   UNL     1       2.106   1.415  17.078  0.00  0.00    +0.000 HD
ATOM     15  H   UNL     1       2.590   3.913  19.403  0.00  0.00    +0.000 HD
ATOM     16  H   UNL     1       1.083   3.703  20.228  0.00  0.00    +0.000 HD
ENDBRANCH   9  10
ENDBRANCH   6   8
BRANCH   7  17
ATOM     17  O   UNL     1       5.378   4.325  19.356  0.00  0.00    +0.000 OA
ATOM     18  H   UNL     1       4.410   4.479  19.289  0.00  0.00    +0.000 HD
ENDBRANCH   7  17
BRANCH   5  19
ATOM     19  C   UNL     1       5.348   4.073  14.323  0.00  0.00    +0.000 C 
BRANCH  19  20
ATOM     20  O   UNL     1       6.276   3.365  13.519  0.00  0.00    +0.000 OA
ATOM     21  H   UNL     1       6.708   4.010  12.932  0.00  0.00    +0.000 HD
ENDBRANCH  19  20
ENDBRANCH   5  19
TORSDOF 5
ENDMDL
MODEL 2
REMARK VINA RESULT:      -6.2      1.877      5.500
REMARK  Name = 
REMARK  6 active torsions:
REMARK  status: ('A' for Active; 'I' for Inactive)
REMARK    1  A    between atoms: C_1  and  C_2
REMARK    2  A    between atoms: C_5  and  C_6
REMARK    3  A    between atoms: C_6  and  O_7
REMARK    4  A    between atoms: C_8  and  C_9
REMARK    5  A    between atoms: N_10  and  N_11
REMARK    6  A    between atoms: C_15  and  O_16
REMARK                            x       y       z     vdW  Elec       q    Type
REMARK                         _______ _______ _______ _____ _____    ______ ____
ROOT
ATOM      1  C   UNL     1       1.014   2.524  19.113  0.00  0.00    +0.000 C 
ATOM      2  C   UNL     1       2.359   3.175  18.977  0.00  0.00    +0.000 A 
ATOM      3  N   UNL     1       2.971   3.557  20.120  0.00  0.00    +0.000 NA
ATOM      4  C   UNL     1       4.180   4.147  20.012  0.00  0.00    +0.000 A 
ATOM      5  C   UNL     1       4.851   4.396  18.812  0.00  0.00    +0.000 A 
ATOM      6  C   UNL     1       4.182   4.021  17.633  0.00  0.00    +0.000 A 
ATOM      7  C   UNL     1       2.931   3.381  17.724  0.00  0.00    +0.000 A 
ENDROOT
BRANCH   6   8
ATOM      8  C   UNL     1       4.753   4.304  16.287  0.00  0.00    +0.000 C 
ATOM      9  N   UNL     1       5.736   3.593  15.811  0.00  0.00    +0.000 NA
BRANCH   9  10
ATOM     10  N   UNL     1       6.180   3.976  14.578  0.00  0.00    +0.000 N 
ATOM     11  C   UNL     1       7.105   4.970  14.397  0.00  0.00    +0.000 C 
ATOM     12  N   UNL     1       7.574   5.541  15.535  0.00  0.00    +0.000 N 
ATOM     13  O   UNL     1       7.487   5.328  13.287  0.00  0.00    +0.000 OA
ATOM     14  H   UNL     1       5.805   3.553  13.735  0.00  0.00    +0.000 HD
ATOM     15  H   UNL     1       7.517   4.974  16.368  0.00  0.00    +0.000 HD
ATOM     16  H   UNL     1       8.365   6.157  15.431  0.00  0.00    +0.000 HD
ENDBRANCH   9  10
ENDBRANCH   6   8
BRANCH   7  17
ATOM     17  O   UNL     1       2.232   2.946  16.627  0.00  0.00    +0.000 OA
ATOM     18  H   UNL     1       2.883   2.545  16.010  0.00  0.00    +0.000 HD
ENDBRANCH   7  17
BRANCH   5  19
ATOM     19  C   UNL     1       6.172   5.102  18.911  0.00  0.00    +0.000 C 
BRANCH  19  20
ATOM     20  O   UNL     1       7.246   4.313  18.431  0.00  0.00    +0.000 OA
ATOM     21  H   UNL     1       8.036   4.881  18.397  0.00  0.00    +0.000 HD
ENDBRANCH  19  20
ENDBRANCH   5  19
TORSDOF 5
ENDMDL
MODEL 3
REMARK VINA RESULT:      -6.2      2.930      5.696
REMARK  Name = 
REMARK  6 active torsions:
REMARK  status: ('A' for Active; 'I' for Inactive)
REMARK    1  A    between atoms: C_1  and  C_2
REMARK    2  A    between atoms: C_5  and  C_6
REMARK    3  A    between atoms: C_6  and  O_7
REMARK    4  A    between atoms: C_8  and  C_9
REMARK    5  A    between atoms: N_10  and  N_11
REMARK    6  A    between atoms: C_15  and  O_16
REMARK                            x       y       z     vdW  Elec       q    Type
REMARK                         _______ _______ _______ _____ _____    ______ ____
ROOT
ATOM      1  C   UNL     1       1.474   7.763  20.701  0.00  0.00    +0.000 C 
ATOM      2  C   UNL     1       2.091   6.510  20.155  0.00  0.00    +0.000 A 
ATOM      3  N   UNL     1       1.947   5.386  20.892  0.00  0.00    +0.000 NA
ATOM      4  C   UNL     1       2.500   4.252  20.413  0.00  0.00    +0.000 A 
ATOM      5  C   UNL     1       3.212   4.146  19.216  0.00  0.00    +0.000 A 
ATOM      6  C   UNL     1       3.378   5.333  18.481  0.00  0.00    +0.000 A 
ATOM      7  C   UNL     1       2.787   6.522  18.949  0.00  0.00    +0.000 A 
ENDROOT
BRANCH   6   8
ATOM      8  C   UNL     1       4.184   5.370  17.228  0.00  0.00    +0.000 C 
ATOM      9  N   UNL     1       5.324   5.998  17.181  0.00  0.00    +0.000 NA
BRANCH   9  10
ATOM     10  N   UNL     1       5.945   5.975  15.965  0.00  0.00    +0.000 N 
ATOM     11  C   UNL     1       7.117   5.302  15.742  0.00  0.00    +0.000 C 
ATOM     12  N   UNL     1       7.618   4.635  16.812  0.00  0.00    +0.000 N 
ATOM     13  O   UNL     1       7.686   5.301  14.655  0.00  0.00    +0.000 OA
ATOM     14  H   UNL     1       5.569   6.495  15.179  0.00  0.00    +0.000 HD
ATOM     15  H   UNL     1       6.947   4.372  17.519  0.00  0.00    +0.000 HD
ATOM     16  H   UNL     1       8.386   4.010  16.629  0.00  0.00    +0.000 HD
ENDBRANCH   9  10
ENDBRANCH   6   8
BRANCH   7  17
ATOM     17  O   UNL     1       2.866   7.713  18.273  0.00  0.00    +0.000 OA
ATOM     18  H   UNL     1       3.602   8.225  18.676  0.00  0.00    +0.000 HD
ENDBRANCH   7  17
BRANCH   5  19
ATOM     19  C   UNL     1       3.782   2.796  18.887  0.00  0.00    +0.000 C 
BRANCH  19  20
ATOM     20  O   UNL     1       5.093   2.621  19.396  0.00  0.00    +0.000 OA
ATOM     21  H   UNL     1       5.059   1.905  20.054  0.00  0.00    +0.000 HD
ENDBRANCH  19  20
ENDBRANCH   5  19
TORSDOF 5
ENDMDL
MODEL 4
REMARK VINA RESULT:      -6.2      2.446      3.575
REMARK  Name = 
REMARK  6 active torsions:
REMARK  status: ('A' for Active; 'I' for Inactive)
REMARK    1  A    between atoms: C_1  and  C_2
REMARK    2  A    between atoms: C_5  and  C_6
REMARK    3  A    between atoms: C_6  and  O_7
REMARK    4  A    between atoms: C_8  and  C_9
REMARK    5  A    between atoms: N_10  and  N_11
REMARK    6  A    between atoms: C_15  and  O_16
REMARK                            x       y       z     vdW  Elec       q    Type
REMARK                         _______ _______ _______ _____ _____    ______ ____
ROOT
ATOM      1  C   UNL     1       6.806   4.718  14.700  0.00  0.00    +0.000 C 
ATOM      2  C   UNL     1       5.774   5.177  15.688  0.00  0.00    +0.000 A 
ATOM      3  N   UNL     1       5.517   6.503  15.732  0.00  0.00    +0.000 NA
ATOM      4  C   UNL     1       4.594   6.929  16.620  0.00  0.00    +0.000 A 
ATOM      5  C   UNL     1       3.881   6.109  17.497  0.00  0.00    +0.000 A 
ATOM      6  C   UNL     1       4.186   4.737  17.457  0.00  0.00    +0.000 A 
ATOM      7  C   UNL     1       5.129   4.267  16.522  0.00  0.00    +0.000 A 
ENDROOT
BRANCH   6   8
ATOM      8  C   UNL     1       3.554   3.768  18.396  0.00  0.00    +0.000 C 
ATOM      9  N   UNL     1       3.977   3.647  19.622  0.00  0.00    +0.000 NA
BRANCH   9  10
ATOM     10  N   UNL     1       3.327   2.704  20.365  0.00  0.00    +0.000 N 
ATOM     11  C   UNL     1       2.412   3.023  21.334  0.00  0.00    +0.000 C 
ATOM     12  N   UNL     1       2.174   4.349  21.495  0.00  0.00    +0.000 N 
ATOM     13  O   UNL     1       1.844   2.176  22.017  0.00  0.00    +0.000 OA
ATOM     14  H   UNL     1       3.529   1.717  20.247  0.00  0.00    +0.000 HD
ATOM     15  H   UNL     1       2.366   4.931  20.693  0.00  0.00    +0.000 HD
ATOM     16  H   UNL     1       1.395   4.594  22.086  0.00  0.00    +0.000 HD
ENDBRANCH   9  10
ENDBRANCH   6   8
BRANCH   7  17
ATOM     17  O   UNL     1       5.454   2.941  16.389  0.00  0.00    +0.000 OA
ATOM     18  H   UNL     1       4.881   2.573  15.682  0.00  0.00    +0.000 HD
ENDBRANCH   7  17
BRANCH   5  19
ATOM     19  C   UNL     1       2.926   6.791  18.433  0.00  0.00    +0.000 C 
BRANCH  19  20
ATOM     20  O   UNL     1       3.247   6.567  19.795  0.00  0.00    +0.000 OA
ATOM     21  H   UNL     1       3.170   5.611  19.962  0.00  0.00    +0.000 HD
ENDBRANCH  19  20
ENDBRANCH   5  19
TORSDOF 5
ENDMDL
MODEL 5
REMARK VINA RESULT:      -6.1      2.919      4.913
REMARK  Name = 
REMARK  6 active torsions:
REMARK  status: ('A' for Active; 'I' for Inactive)
REMARK    1  A    between atoms: C_1  and  C_2
REMARK    2  A    between atoms: C_5  and  C_6
REMARK    3  A    between atoms: C_6  and  O_7
REMARK    4  A    between atoms: C_8  and  C_9
REMARK    5  A    between atoms: N_10  and  N_11
REMARK    6  A    between atoms: C_15  and  O_16
REMARK                            x       y       z     vdW  Elec       q    Type
REMARK                         _______ _______ _______ _____ _____    ______ ____
ROOT
ATOM      1  C   UNL     1       7.509   7.667  17.483  0.00  0.00    +0.000 C 
ATOM      2  C   UNL     1       6.560   6.519  17.302  0.00  0.00    +0.000 A 
ATOM      3  N   UNL     1       5.576   6.389  18.219  0.00  0.00    +0.000 NA
ATOM      4  C   UNL     1       4.718   5.358  18.069  0.00  0.00    +0.000 A 
ATOM      5  C   UNL     1       4.766   4.412  17.043  0.00  0.00    +0.000 A 
ATOM      6  C   UNL     1       5.817   4.547  16.118  0.00  0.00    +0.000 A 
ATOM      7  C   UNL     1       6.708   5.630  16.240  0.00  0.00    +0.000 A 
ENDROOT
BRANCH   6   8
ATOM      8  C   UNL     1       6.026   3.558  15.023  0.00  0.00    +0.000 C 
ATOM      9  N   UNL     1       6.186   3.945  13.790  0.00  0.00    +0.000 NA
BRANCH   9  10
ATOM     10  N   UNL     1       6.341   2.936  12.884  0.00  0.00    +0.000 N 
ATOM     11  C   UNL     1       5.435   2.684  11.889  0.00  0.00    +0.000 C 
ATOM     12  N   UNL     1       4.371   3.524  11.845  0.00  0.00    +0.000 N 
ATOM     13  O   UNL     1       5.565   1.762  11.089  0.00  0.00    +0.000 OA
ATOM     14  H   UNL     1       7.132   2.302  12.941  0.00  0.00    +0.000 HD
ATOM     15  H   UNL     1       4.513   4.436  12.256  0.00  0.00    +0.000 HD
ATOM     16  H   UNL     1       3.781   3.456  11.032  0.00  0.00    +0.000 HD
ENDBRANCH   9  10
ENDBRANCH   6   8
BRANCH   7  17
ATOM     17  O   UNL     1       7.734   5.857  15.359  0.00  0.00    +0.000 OA
ATOM     18  H   UNL     1       8.001   4.984  14.995  0.00  0.00    +0.000 HD
ENDBRANCH   7  17
BRANCH   5  19
ATOM     19  C   UNL     1       3.738   3.318  17.083  0.00  0.00    +0.000 C 
BRANCH  19  20
ATOM     20  O   UNL     1       4.181   2.184  17.807  0.00  0.00    +0.000 OA
ATOM     21  H   UNL     1       5.088   1.985  17.516  0.00  0.00    +0.000 HD
ENDBRANCH  19  20
ENDBRANCH   5  19
TORSDOF 5
ENDMDL
MODEL 6
REMARK VINA RESULT:      -6.1      2.511      5.287
REMARK  Name = 
REMARK  6 active torsions:
REMARK  status: ('A' for Active; 'I' for Inactive)
REMARK    1  A    between atoms: C_1  and  C_2
REMARK    2  A    between atoms: C_5  and  C_6
REMARK    3  A    between atoms: C_6  and  O_7
REMARK    4  A    between atoms: C_8  and  C_9
REMARK    5  A    between atoms: N_10  and  N_11
REMARK    6  A    between atoms: C_15  and  O_16
REMARK                            x       y       z     vdW  Elec       q    Type
REMARK                         _______ _______ _______ _____ _____    ______ ____
ROOT
ATOM      1  C   UNL     1       1.784   2.897  21.551  0.00  0.00    +0.000 C 
ATOM      2  C   UNL     1       2.270   3.865  20.513  0.00  0.00    +0.000 A 
ATOM      3  N   UNL     1       1.995   5.172  20.721  0.00  0.00    +0.000 NA
ATOM      4  C   UNL     1       2.424   6.053  19.792  0.00  0.00    +0.000 A 
ATOM      5  C   UNL     1       3.129   5.723  18.633  0.00  0.00    +0.000 A 
ATOM      6  C   UNL     1       3.376   4.355  18.420  0.00  0.00    +0.000 A 
ATOM      7  C   UNL     1       2.960   3.421  19.388  0.00  0.00    +0.000 A 
ENDROOT
BRANCH   6   8
ATOM      8  C   UNL     1       4.048   3.865  17.184  0.00  0.00    +0.000 C 
ATOM      9  N   UNL     1       5.334   3.992  17.023  0.00  0.00    +0.000 NA
BRANCH   9  10
ATOM     10  N   UNL     1       5.815   3.524  15.834  0.00  0.00    +0.000 N 
ATOM     11  C   UNL     1       6.256   4.350  14.834  0.00  0.00    +0.000 C 
ATOM     12  N   UNL     1       6.204   5.677  15.111  0.00  0.00    +0.000 N 
ATOM     13  O   UNL     1       6.667   3.929  13.757  0.00  0.00    +0.000 OA
ATOM     14  H   UNL     1       5.830   2.530  15.633  0.00  0.00    +0.000 HD
ATOM     15  H   UNL     1       6.223   5.924  16.090  0.00  0.00    +0.000 HD
ATOM     16  H   UNL     1       6.668   6.288  14.457  0.00  0.00    +0.000 HD
ENDBRANCH   9  10
ENDBRANCH   6   8
BRANCH   7  17
ATOM     17  O   UNL     1       3.197   2.074  19.278  0.00  0.00    +0.000 OA
ATOM     18  H   UNL     1       3.344   1.732  20.188  0.00  0.00    +0.000 HD
ENDBRANCH   7  17
BRANCH   5  19
ATOM     19  C   UNL     1       3.477   6.854  17.709  0.00  0.00    +0.000 C 
BRANCH  19  20
ATOM     20  O   UNL     1       4.875   6.981  17.509  0.00  0.00    +0.000 OA
ATOM     21  H   UNL     1       5.232   6.089  17.355  0.00  0.00    +0.000 HD
ENDBRANCH  19  20
ENDBRANCH   5  19
TORSDOF 5
ENDMDL
MODEL 7
REMARK VINA RESULT:      -6.1      2.427      5.532
REMARK  Name = 
REMARK  6 active torsions:
REMARK  status: ('A' for Active; 'I' for Inactive)
REMARK    1  A    between atoms: C_1  and  C_2
REMARK    2  A    between atoms: C_5  and  C_6
REMARK    3  A    between atoms: C_6  and  O_7
REMARK    4  A    between atoms: C_8  and  C_9
REMARK    5  A    between atoms: N_10  and  N_11
REMARK    6  A    between atoms: C_15  and  O_16
REMARK                            x       y       z     vdW  Elec       q    Type
REMARK                         _______ _______ _______ _____ _____    ______ ____
ROOT
ATOM      1  C   UNL     1       1.456   5.910  20.803  0.00  0.00    +0.000 C 
ATOM      2  C   UNL     1       2.036   4.793  19.986  0.00  0.00    +0.000 A 
ATOM      3  N   UNL     1       1.845   3.537  20.447  0.00  0.00    +0.000 NA
ATOM      4  C   UNL     1       2.365   2.523  19.723  0.00  0.00    +0.000 A 
ATOM      5  C   UNL     1       3.085   2.667  18.536  0.00  0.00    +0.000 A 
ATOM      6  C   UNL     1       3.299   3.983  18.091  0.00  0.00    +0.000 A 
ATOM      7  C   UNL     1       2.745   5.055  18.817  0.00  0.00    +0.000 A 
ENDROOT
BRANCH   6   8
ATOM      8  C   UNL     1       4.119   4.276  16.882  0.00  0.00    +0.000 C 
ATOM      9  N   UNL     1       5.100   5.132  16.926  0.00  0.00    +0.000 NA
BRANCH   9  10
ATOM     10  N   UNL     1       5.750   5.324  15.741  0.00  0.00    +0.000 N 
ATOM     11  C   UNL     1       7.082   5.053  15.572  0.00  0.00    +0.000 C 
ATOM     12  N   UNL     1       7.717   4.554  16.662  0.00  0.00    +0.000 N 
ATOM     13  O   UNL     1       7.671   5.247  14.513  0.00  0.00    +0.000 OA
ATOM     14  H   UNL     1       5.268   5.717  14.940  0.00  0.00    +0.000 HD
ATOM     15  H   UNL     1       7.130   4.082  17.336  0.00  0.00    +0.000 HD
ATOM     16  H   UNL     1       8.649   4.201  16.514  0.00  0.00    +0.000 HD
ENDBRANCH   9  10
ENDBRANCH   6   8
BRANCH   7  17
ATOM     17  O   UNL     1       2.872   6.365  18.430  0.00  0.00    +0.000 OA
ATOM     18  H   UNL     1       2.035   6.820  18.673  0.00  0.00    +0.000 HD
ENDBRANCH   7  17
BRANCH   5  19
ATOM     19  C   UNL     1       3.611   1.408  17.908  0.00  0.00    +0.000 C 
BRANCH  19  20
ATOM     20  O   UNL     1       4.466   0.685  18.776  0.00  0.00    +0.000 OA
ATOM     21  H   UNL     1       4.410  -0.254  18.529  0.00  0.00    +0.000 HD
ENDBRANCH  19  20
ENDBRANCH   5  19
TORSDOF 5
ENDMDL
MODEL 8
REMARK VINA RESULT:      -6.1      2.065      3.527
REMARK  Name = 
REMARK  6 active torsions:
REMARK  status: ('A' for Active; 'I' for Inactive)
REMARK    1  A    between atoms: C_1  and  C_2
REMARK    2  A    between atoms: C_5  and  C_6
REMARK    3  A    between atoms: C_6  and  O_7
REMARK    4  A    between atoms: C_8  and  C_9
REMARK    5  A    between atoms: N_10  and  N_11
REMARK    6  A    between atoms: C_15  and  O_16
REMARK                            x       y       z     vdW  Elec       q    Type
REMARK                         _______ _______ _______ _____ _____    ______ ____
ROOT
ATOM      1  C   UNL     1       5.621   4.576  14.365  0.00  0.00    +0.000 C 
ATOM      2  C   UNL     1       6.016   4.866  15.783  0.00  0.00    +0.000 A 
ATOM      3  N   UNL     1       7.052   5.715  15.968  0.00  0.00    +0.000 NA
ATOM      4  C   UNL     1       7.420   5.981  17.239  0.00  0.00    +0.000 A 
ATOM      5  C   UNL     1       6.817   5.449  18.380  0.00  0.00    +0.000 A 
ATOM      6  C   UNL     1       5.764   4.542  18.166  0.00  0.00    +0.000 A 
ATOM      7  C   UNL     1       5.346   4.270  16.849  0.00  0.00    +0.000 A 
ENDROOT
BRANCH   6   8
ATOM      8  C   UNL     1       5.091   3.844  19.296  0.00  0.00    +0.000 C 
ATOM      9  N   UNL     1       3.792   3.753  19.353  0.00  0.00    +0.000 NA
BRANCH   9  10
ATOM     10  N   UNL     1       3.307   3.111  20.455  0.00  0.00    +0.000 N 
ATOM     11  C   UNL     1       2.288   3.614  21.220  0.00  0.00    +0.000 C 
ATOM     12  N   UNL     1       1.772   4.795  20.796  0.00  0.00    +0.000 N 
ATOM     13  O   UNL     1       1.868   3.047  22.224  0.00  0.00    +0.000 OA
ATOM     14  H   UNL     1       3.716   2.238  20.772  0.00  0.00    +0.000 HD
ATOM     15  H   UNL     1       1.889   4.999  19.814  0.00  0.00    +0.000 HD
ATOM     16  H   UNL     1       0.925   5.100  21.249  0.00  0.00    +0.000 HD
ENDBRANCH   9  10
ENDBRANCH   6   8
BRANCH   7  17
ATOM     17  O   UNL     1       4.302   3.431  16.553  0.00  0.00    +0.000 OA
ATOM     18  H   UNL     1       4.530   2.970  15.716  0.00  0.00    +0.000 HD
ENDBRANCH   7  17
BRANCH   5  19
ATOM     19  C   UNL     1       7.408   5.844  19.703  0.00  0.00    +0.000 C 
BRANCH  19  20
ATOM     20  O   UNL     1       8.581   5.111  20.014  0.00  0.00    +0.000 OA
ATOM     21  H   UNL     1       8.753   4.503  19.275  0.00  0.00    +0.000 HD
ENDBRANCH  19  20
ENDBRANCH   5  19
TORSDOF 5
ENDMDL
MODEL 9
REMARK VINA RESULT:      -6.1      2.592      5.175
REMARK  Name = 
REMARK  6 active torsions:
REMARK  status: ('A' for Active; 'I' for Inactive)
REMARK    1  A    between atoms: C_1  and  C_2
REMARK    2  A    between atoms: C_5  and  C_6
REMARK    3  A    between atoms: C_6  and  O_7
REMARK    4  A    between atoms: C_8  and  C_9
REMARK    5  A    between atoms: N_10  and  N_11
REMARK    6  A    between atoms: C_15  and  O_16
REMARK                            x       y       z     vdW  Elec       q    Type
REMARK                         _______ _______ _______ _____ _____    ______ ____
ROOT
ATOM      1  C   UNL     1       3.360   2.527  20.323  0.00  0.00    +0.000 C 
ATOM      2  C   UNL     1       3.763   3.613  19.369  0.00  0.00    +0.000 A 
ATOM      3  N   UNL     1       3.687   4.884  19.823  0.00  0.00    +0.000 NA
ATOM      4  C   UNL     1       4.043   5.870  18.973  0.00  0.00    +0.000 A 
ATOM      5  C   UNL     1       4.484   5.684  17.661  0.00  0.00    +0.000 A 
ATOM      6  C   UNL     1       4.525   4.357  17.199  0.00  0.00    +0.000 A 
ATOM      7  C   UNL     1       4.182   3.310  18.076  0.00  0.00    +0.000 A 
ENDROOT
BRANCH   6   8
ATOM      8  C   UNL     1       4.901   4.030  15.795  0.00  0.00    +0.000 C 
ATOM      9  N   UNL     1       6.140   3.796  15.468  0.00  0.00    +0.000 NA
BRANCH   9  10
ATOM     10  N   UNL     1       6.348   3.535  14.144  0.00  0.00    +0.000 N 
ATOM     11  C   UNL     1       7.048   4.377  13.321  0.00  0.00    +0.000 C 
ATOM     12  N   UNL     1       7.546   5.490  13.917  0.00  0.00    +0.000 N 
ATOM     13  O   UNL     1       7.215   4.152  12.127  0.00  0.00    +0.000 OA
ATOM     14  H   UNL     1       5.953   2.708  13.708  0.00  0.00    +0.000 HD
ATOM     15  H   UNL     1       7.698   5.426  14.913  0.00  0.00    +0.000 HD
ATOM     16  H   UNL     1       8.192   6.037  13.371  0.00  0.00    +0.000 HD
ENDBRANCH   9  10
ENDBRANCH   6   8
BRANCH   7  17
ATOM     17  O   UNL     1       4.235   1.987  17.718  0.00  0.00    +0.000 OA
ATOM     18  H   UNL     1       5.116   1.833  17.312  0.00  0.00    +0.000 HD
ENDBRANCH   7  17
BRANCH   5  19
ATOM     19  C   UNL     1       4.792   6.922  16.870  0.00  0.00    +0.000 C 
BRANCH  19  20
ATOM     20  O   UNL     1       6.126   6.943  16.392  0.00  0.00    +0.000 OA
ATOM     21  H   UNL     1       6.090   6.985  15.421  0.00  0.00    +0.000 HD
ENDBRANCH  19  20
ENDBRANCH   5  19
TORSDOF 5
ENDMDL
