MODEL 1
REMARK VINA RESULT:      -9.1      0.000      0.000
REMARK  Name = 
REMARK  6 active torsions:
REMARK  status: ('A' for Active; 'I' for Inactive)
REMARK    1  A    between atoms: C_1  and  O_2
REMARK    2  A    between atoms: O_2  and  C_3
REMARK    3  A    between atoms: N_5  and  C_6
REMARK    4  A    between atoms: C_10  and  C_11
REMARK    5  A    between atoms: C_11  and  N_12
REMARK    6  A    between atoms: C_14  and  C_15
REMARK                            x       y       z     vdW  Elec       q    Type
REMARK                         _______ _______ _______ _____ _____    ______ ____
ROOT
ATOM      1  N   UNL     1       2.396   4.997  19.607  0.00  0.00    +0.000 N 
ATOM      2  N   UNL     1       3.502   5.225  18.812  0.00  0.00    +0.000 NA
ATOM      3  C   UNL     1       3.623   4.527  17.725  0.00  0.00    +0.000 A 
ATOM      4  C   UNL     1       2.610   3.552  17.262  0.00  0.00    +0.000 A 
ATOM      5  C   UNL     1       1.583   3.308  18.075  0.00  0.00    +0.000 A 
ATOM      6  C   UNL     1       1.441   4.025  19.355  0.00  0.00    +0.000 A 
ATOM      7  O   UNL     1       0.489   3.752  20.082  0.00  0.00    +0.000 OA
ENDROOT
BRANCH   3   8
ATOM      8  C   UNL     1       4.835   4.728  16.875  0.00  0.00    +0.000 A 
ATOM      9  C   UNL     1       5.083   3.958  15.732  0.00  0.00    +0.000 A 
ATOM     10  C   UNL     1       6.241   4.176  14.990  0.00  0.00    +0.000 A 
ATOM     11  F   UNL     1       6.463   3.437  13.895  0.00  0.00    +0.000 F 
ATOM     12  C   UNL     1       7.171   5.133  15.368  0.00  0.00    +0.000 A 
ATOM     13  C   UNL     1       6.927   5.883  16.507  0.00  0.00    +0.000 A 
ATOM     14  F   UNL     1       7.819   6.807  16.888  0.00  0.00    +0.000 F 
ATOM     15  C   UNL     1       5.777   5.691  17.264  0.00  0.00    +0.000 A 
ENDBRANCH   3   8
BRANCH   1  16
ATOM     16  C   UNL     1       2.214   5.899  20.735  0.00  0.00    +0.000 C 
BRANCH  16  21
ATOM     17  C   UNL     1       0.580   9.359  20.662  0.00  0.00    +0.000 A 
ATOM     18  C   UNL     1       0.936   9.781  19.377  0.00  0.00    +0.000 A 
ATOM     19  C   UNL     1       1.729   8.978  18.558  0.00  0.00    +0.000 A 
ATOM     20  C   UNL     1       2.149   7.731  19.005  0.00  0.00    +0.000 A 
ATOM     21  C   UNL     1       1.790   7.278  20.282  0.00  0.00    +0.000 A 
ATOM     22  C   UNL     1       1.044   8.123  21.123  0.00  0.00    +0.000 A 
BRANCH  17  25
ATOM     23  C   UNL     1      -0.152  10.192  22.875  0.00  0.00    +0.000 C 
ATOM     24  O   UNL     1       0.653   9.618  23.596  0.00  0.00    +0.000 OA
ATOM     25  N   UNL     1      -0.240  10.128  21.508  0.00  0.00    +0.000 N 
ATOM     26  H   UNL     1      -0.873  10.799  21.096  0.00  0.00    +0.000 HD
BRANCH  23  28
ATOM     27  C   UNL     1      -1.780  11.756  22.302  0.00  0.00    +0.000 C 
ATOM     28  O   UNL     1      -1.082  11.069  23.345  0.00  0.00    +0.000 OA
ENDBRANCH  23  28
ENDBRANCH  17  25
ENDBRANCH  16  21
ENDBRANCH   1  16
TORSDOF 5
ENDMDL
MODEL 2
REMARK VINA RESULT:      -9.0      3.859      6.996
REMARK  Name = 
REMARK  6 active torsions:
REMARK  status: ('A' for Active; 'I' for Inactive)
REMARK    1  A    between atoms: C_1  and  O_2
REMARK    2  A    between atoms: O_2  and  C_3
REMARK    3  A    between atoms: N_5  and  C_6
REMARK    4  A    between atoms: C_10  and  C_11
REMARK    5  A    between atoms: C_11  and  N_12
REMARK    6  A    between atoms: C_14  and  C_15
REMARK                            x       y       z     vdW  Elec       q    Type
REMARK                         _______ _______ _______ _____ _____    ______ ____
ROOT
ATOM      1  N   UNL     1       3.651   4.048  19.590  0.00  0.00    +0.000 N 
ATOM      2  N   UNL     1       3.342   5.389  19.486  0.00  0.00    +0.000 NA
ATOM      3  C   UNL     1       2.243   5.805  20.036  0.00  0.00    +0.000 A 
ATOM      4  C   UNL     1       1.340   4.932  20.820  0.00  0.00    +0.000 A 
ATOM      5  C   UNL     1       1.629   3.632  20.856  0.00  0.00    +0.000 A 
ATOM      6  C   UNL     1       2.831   3.103  20.186  0.00  0.00    +0.000 A 
ATOM      7  O   UNL     1       3.045   1.894  20.227  0.00  0.00    +0.000 OA
ENDROOT
BRANCH   3   8
ATOM      8  C   UNL     1       1.869   7.244  19.896  0.00  0.00    +0.000 A 
ATOM      9  C   UNL     1       1.255   7.963  20.928  0.00  0.00    +0.000 A 
ATOM     10  C   UNL     1       0.910   9.297  20.732  0.00  0.00    +0.000 A 
ATOM     11  F   UNL     1       0.328   9.974  21.731  0.00  0.00    +0.000 F 
ATOM     12  C   UNL     1       1.146   9.934  19.524  0.00  0.00    +0.000 A 
ATOM     13  C   UNL     1       1.743   9.215  18.500  0.00  0.00    +0.000 A 
ATOM     14  F   UNL     1       1.973   9.814  17.324  0.00  0.00    +0.000 F 
ATOM     15  C   UNL     1       2.103   7.883  18.669  0.00  0.00    +0.000 A 
ENDBRANCH   3   8
BRANCH   1  16
ATOM     16  C   UNL     1       4.959   3.646  19.096  0.00  0.00    +0.000 C 
BRANCH  16  21
ATOM     17  C   UNL     1       6.303   6.413  16.818  0.00  0.00    +0.000 A 
ATOM     18  C   UNL     1       5.972   5.891  15.563  0.00  0.00    +0.000 A 
ATOM     19  C   UNL     1       5.362   4.643  15.449  0.00  0.00    +0.000 A 
ATOM     20  C   UNL     1       5.048   3.917  16.591  0.00  0.00    +0.000 A 
ATOM     21  C   UNL     1       5.352   4.426  17.861  0.00  0.00    +0.000 A 
ATOM     22  C   UNL     1       6.025   5.656  17.962  0.00  0.00    +0.000 A 
BRANCH  17  25
ATOM     23  C   UNL     1       7.864   8.007  17.889  0.00  0.00    +0.000 C 
ATOM     24  O   UNL     1       8.396   7.268  18.707  0.00  0.00    +0.000 OA
ATOM     25  N   UNL     1       6.895   7.680  16.977  0.00  0.00    +0.000 N 
ATOM     26  H   UNL     1       6.704   8.397  16.292  0.00  0.00    +0.000 HD
BRANCH  23  28
ATOM     27  C   UNL     1       8.991   9.825  18.809  0.00  0.00    +0.000 C 
ATOM     28  O   UNL     1       8.220   9.311  17.719  0.00  0.00    +0.000 OA
ENDBRANCH  23  28
ENDBRANCH  17  25
ENDBRANCH  16  21
ENDBRANCH   1  16
TORSDOF 5
ENDMDL
MODEL 3
REMARK VINA RESULT:      -8.8      3.861      6.919
REMARK  Name = 
REMARK  6 active torsions:
REMARK  status: ('A' for Active; 'I' for Inactive)
REMARK    1  A    between atoms: C_1  and  O_2
REMARK    2  A    between atoms: O_2  and  C_3
REMARK    3  A    between atoms: N_5  and  C_6
REMARK    4  A    between atoms: C_10  and  C_11
REMARK    5  A    between atoms: C_11  and  N_12
REMARK    6  A    between atoms: C_14  and  C_15
REMARK                            x       y       z     vdW  Elec       q    Type
REMARK                         _______ _______ _______ _____ _____    ______ ____
ROOT
ATOM      1  N   UNL     1       3.749   4.134  19.673  0.00  0.00    +0.000 N 
ATOM      2  N   UNL     1       3.390   5.453  19.485  0.00  0.00    +0.000 NA
ATOM      3  C   UNL     1       2.302   5.875  20.053  0.00  0.00    +0.000 A 
ATOM      4  C   UNL     1       1.465   5.036  20.940  0.00  0.00    +0.000 A 
ATOM      5  C   UNL     1       1.800   3.751  21.058  0.00  0.00    +0.000 A 
ATOM      6  C   UNL     1       2.989   3.211  20.373  0.00  0.00    +0.000 A 
ATOM      7  O   UNL     1       3.246   2.016  20.493  0.00  0.00    +0.000 OA
ENDROOT
BRANCH   3   8
ATOM      8  C   UNL     1       1.874   7.288  19.825  0.00  0.00    +0.000 A 
ATOM      9  C   UNL     1       2.141   7.967  18.631  0.00  0.00    +0.000 A 
ATOM     10  C   UNL     1       1.736   9.291  18.483  0.00  0.00    +0.000 A 
ATOM     11  F   UNL     1       1.992   9.927  17.333  0.00  0.00    +0.000 F 
ATOM     12  C   UNL     1       1.083   9.964  19.504  0.00  0.00    +0.000 A 
ATOM     13  C   UNL     1       0.832   9.291  20.689  0.00  0.00    +0.000 A 
ATOM     14  F   UNL     1       0.207   9.930  21.687  0.00  0.00    +0.000 F 
ATOM     15  C   UNL     1       1.220   7.967  20.863  0.00  0.00    +0.000 A 
ENDBRANCH   3   8
BRANCH   1  16
ATOM     16  C   UNL     1       5.047   3.736  19.149  0.00  0.00    +0.000 C 
BRANCH  16  21
ATOM     17  C   UNL     1       6.338   6.511  16.851  0.00  0.00    +0.000 A 
ATOM     18  C   UNL     1       5.978   5.994  15.602  0.00  0.00    +0.000 A 
ATOM     19  C   UNL     1       5.366   4.746  15.497  0.00  0.00    +0.000 A 
ATOM     20  C   UNL     1       5.078   4.016  16.644  0.00  0.00    +0.000 A 
ATOM     21  C   UNL     1       5.411   4.521  17.908  0.00  0.00    +0.000 A 
ATOM     22  C   UNL     1       6.087   5.750  17.997  0.00  0.00    +0.000 A 
BRANCH  17  25
ATOM     23  C   UNL     1       7.912   8.106  17.902  0.00  0.00    +0.000 C 
ATOM     24  O   UNL     1       8.451   7.368  18.717  0.00  0.00    +0.000 OA
ATOM     25  N   UNL     1       6.934   7.777  17.000  0.00  0.00    +0.000 N 
ATOM     26  H   UNL     1       6.738   8.492  16.315  0.00  0.00    +0.000 HD
BRANCH  23  28
ATOM     27  C   UNL     1       9.039   9.929  18.813  0.00  0.00    +0.000 C 
ATOM     28  O   UNL     1       8.269   9.408  17.725  0.00  0.00    +0.000 OA
ENDBRANCH  23  28
ENDBRANCH  17  25
ENDBRANCH  16  21
ENDBRANCH   1  16
TORSDOF 5
ENDMDL
MODEL 4
REMARK VINA RESULT:      -8.8      4.058      8.479
REMARK  Name = 
REMARK  6 active torsions:
REMARK  status: ('A' for Active; 'I' for Inactive)
REMARK    1  A    between atoms: C_1  and  O_2
REMARK    2  A    between atoms: O_2  and  C_3
REMARK    3  A    between atoms: N_5  and  C_6
REMARK    4  A    between atoms: C_10  and  C_11
REMARK    5  A    between atoms: C_11  and  N_12
REMARK    6  A    between atoms: C_14  and  C_15
REMARK                            x       y       z     vdW  Elec       q    Type
REMARK                         _______ _______ _______ _____ _____    ______ ____
ROOT
ATOM      1  N   UNL     1       4.296   4.327  19.166  0.00  0.00    +0.000 N 
ATOM      2  N   UNL     1       3.774   5.605  19.172  0.00  0.00    +0.000 NA
ATOM      3  C   UNL     1       2.691   5.817  19.855  0.00  0.00    +0.000 A 
ATOM      4  C   UNL     1       2.027   4.779  20.676  0.00  0.00    +0.000 A 
ATOM      5  C   UNL     1       2.515   3.542  20.607  0.00  0.00    +0.000 A 
ATOM      6  C   UNL     1       3.703   3.239  19.787  0.00  0.00    +0.000 A 
ATOM      7  O   UNL     1       4.105   2.080  19.737  0.00  0.00    +0.000 OA
ENDROOT
BRANCH   3   8
ATOM      8  C   UNL     1       2.086   7.183  19.837  0.00  0.00    +0.000 A 
ATOM      9  C   UNL     1       1.357   7.693  20.917  0.00  0.00    +0.000 A 
ATOM     10  C   UNL     1       0.798   8.965  20.835  0.00  0.00    +0.000 A 
ATOM     11  F   UNL     1       0.107   9.443  21.878  0.00  0.00    +0.000 F 
ATOM     12  C   UNL     1       0.933   9.740  19.693  0.00  0.00    +0.000 A 
ATOM     13  C   UNL     1       1.645   9.226  18.621  0.00  0.00    +0.000 A 
ATOM     14  F   UNL     1       1.780   9.961  17.510  0.00  0.00    +0.000 F 
ATOM     15  C   UNL     1       2.220   7.961  18.678  0.00  0.00    +0.000 A 
ENDBRANCH   3   8
BRANCH   1  16
ATOM     16  C   UNL     1       5.588   4.159  18.518  0.00  0.00    +0.000 C 
BRANCH  16  21
ATOM     17  C   UNL     1       6.028   4.414  14.724  0.00  0.00    +0.000 A 
ATOM     18  C   UNL     1       5.634   5.739  14.511  0.00  0.00    +0.000 A 
ATOM     19  C   UNL     1       5.190   6.529  15.571  0.00  0.00    +0.000 A 
ATOM     20  C   UNL     1       5.166   6.011  16.860  0.00  0.00    +0.000 A 
ATOM     21  C   UNL     1       5.574   4.692  17.102  0.00  0.00    +0.000 A 
ATOM     22  C   UNL     1       5.958   3.885  16.017  0.00  0.00    +0.000 A 
BRANCH  17  25
ATOM     23  C   UNL     1       5.827   3.258  12.545  0.00  0.00    +0.000 C 
ATOM     24  O   UNL     1       4.705   3.619  12.215  0.00  0.00    +0.000 OA
ATOM     25  N   UNL     1       6.507   3.593  13.687  0.00  0.00    +0.000 N 
ATOM     26  H   UNL     1       7.479   3.316  13.693  0.00  0.00    +0.000 HD
BRANCH  23  28
ATOM     27  C   UNL     1       5.954   1.324  11.254  0.00  0.00    +0.000 C 
ATOM     28  O   UNL     1       6.623   2.485  11.756  0.00  0.00    +0.000 OA
ENDBRANCH  23  28
ENDBRANCH  17  25
ENDBRANCH  16  21
ENDBRANCH   1  16
TORSDOF 5
ENDMDL
MODEL 5
REMARK VINA RESULT:      -8.7      1.040      1.058
REMARK  Name = 
REMARK  6 active torsions:
REMARK  status: ('A' for Active; 'I' for Inactive)
REMARK    1  A    between atoms: C_1  and  O_2
REMARK    2  A    between atoms: O_2  and  C_3
REMARK    3  A    between atoms: N_5  and  C_6
REMARK    4  A    between atoms: C_10  and  C_11
REMARK    5  A    between atoms: C_11  and  N_12
REMARK    6  A    between atoms: C_14  and  C_15
REMARK                            x       y       z     vdW  Elec       q    Type
REMARK                         _______ _______ _______ _____ _____    ______ ____
ROOT
ATOM      1  N   UNL     1       2.348   5.372  19.572  0.00  0.00    +0.000 N 
ATOM      2  N   UNL     1       3.445   5.543  18.752  0.00  0.00    +0.000 NA
ATOM      3  C   UNL     1       3.631   4.682  17.799  0.00  0.00    +0.000 A 
ATOM      4  C   UNL     1       2.699   3.570  17.508  0.00  0.00    +0.000 A 
ATOM      5  C   UNL     1       1.681   3.392  18.349  0.00  0.00    +0.000 A 
ATOM      6  C   UNL     1       1.469   4.304  19.488  0.00  0.00    +0.000 A 
ATOM      7  O   UNL     1       0.530   4.088  20.250  0.00  0.00    +0.000 OA
ENDROOT
BRANCH   3   8
ATOM      8  C   UNL     1       4.838   4.824  16.929  0.00  0.00    +0.000 A 
ATOM      9  C   UNL     1       5.051   4.015  15.806  0.00  0.00    +0.000 A 
ATOM     10  C   UNL     1       6.204   4.179  15.045  0.00  0.00    +0.000 A 
ATOM     11  F   UNL     1       6.392   3.403  13.970  0.00  0.00    +0.000 F 
ATOM     12  C   UNL     1       7.164   5.121  15.382  0.00  0.00    +0.000 A 
ATOM     13  C   UNL     1       6.955   5.911  16.502  0.00  0.00    +0.000 A 
ATOM     14  F   UNL     1       7.876   6.821  16.845  0.00  0.00    +0.000 F 
ATOM     15  C   UNL     1       5.809   5.773  17.278  0.00  0.00    +0.000 A 
ENDBRANCH   3   8
BRANCH   1  16
ATOM     16  C   UNL     1       2.085   6.436  20.530  0.00  0.00    +0.000 C 
BRANCH  16  21
ATOM     17  C   UNL     1       0.538   9.854  19.771  0.00  0.00    +0.000 A 
ATOM     18  C   UNL     1       1.047  10.084  18.488  0.00  0.00    +0.000 A 
ATOM     19  C   UNL     1       1.913   9.169  17.891  0.00  0.00    +0.000 A 
ATOM     20  C   UNL     1       2.255   7.999  18.559  0.00  0.00    +0.000 A 
ATOM     21  C   UNL     1       1.743   7.737  19.837  0.00  0.00    +0.000 A 
ATOM     22  C   UNL     1       0.922   8.696  20.455  0.00  0.00    +0.000 A 
BRANCH  17  25
ATOM     23  C   UNL     1      -0.019  11.803  21.191  0.00  0.00    +0.000 C 
ATOM     24  O   UNL     1       1.108  12.183  21.483  0.00  0.00    +0.000 OA
ATOM     25  N   UNL     1      -0.359  10.739  20.396  0.00  0.00    +0.000 N 
ATOM     26  H   UNL     1      -1.339  10.692  20.155  0.00  0.00    +0.000 HD
BRANCH  23  28
ATOM     27  C   UNL     1      -1.159  12.765  22.978  0.00  0.00    +0.000 C 
ATOM     28  O   UNL     1      -1.149  12.453  21.582  0.00  0.00    +0.000 OA
ENDBRANCH  23  28
ENDBRANCH  17  25
ENDBRANCH  16  21
ENDBRANCH   1  16
TORSDOF 5
ENDMDL
MODEL 6
REMARK VINA RESULT:      -8.7      3.970      7.111
REMARK  Name = 
REMARK  6 active torsions:
REMARK  status: ('A' for Active; 'I' for Inactive)
REMARK    1  A    between atoms: C_1  and  O_2
REMARK    2  A    between atoms: O_2  and  C_3
REMARK    3  A    between atoms: N_5  and  C_6
REMARK    4  A    between atoms: C_10  and  C_11
REMARK    5  A    between atoms: C_11  and  N_12
REMARK    6  A    between atoms: C_14  and  C_15
REMARK                            x       y       z     vdW  Elec       q    Type
REMARK                         _______ _______ _______ _____ _____    ______ ____
ROOT
ATOM      1  N   UNL     1       3.058   3.910  18.281  0.00  0.00    +0.000 N 
ATOM      2  N   UNL     1       2.702   5.244  18.277  0.00  0.00    +0.000 NA
ATOM      3  C   UNL     1       2.455   5.811  19.418  0.00  0.00    +0.000 A 
ATOM      4  C   UNL     1       2.596   5.122  20.721  0.00  0.00    +0.000 A 
ATOM      5  C   UNL     1       2.883   3.821  20.694  0.00  0.00    +0.000 A 
ATOM      6  C   UNL     1       3.103   3.118  19.418  0.00  0.00    +0.000 A 
ATOM      7  O   UNL     1       3.344   1.914  19.441  0.00  0.00    +0.000 OA
ENDROOT
BRANCH   3   8
ATOM      8  C   UNL     1       2.025   7.241  19.431  0.00  0.00    +0.000 A 
ATOM      9  C   UNL     1       2.221   8.092  18.336  0.00  0.00    +0.000 A 
ATOM     10  C   UNL     1       1.818   9.422  18.414  0.00  0.00    +0.000 A 
ATOM     11  F   UNL     1       2.006  10.223  17.357  0.00  0.00    +0.000 F 
ATOM     12  C   UNL     1       1.238   9.935  19.564  0.00  0.00    +0.000 A 
ATOM     13  C   UNL     1       1.058   9.093  20.649  0.00  0.00    +0.000 A 
ATOM     14  F   UNL     1       0.504   9.575  21.770  0.00  0.00    +0.000 F 
ATOM     15  C   UNL     1       1.445   7.758  20.598  0.00  0.00    +0.000 A 
ENDBRANCH   3   8
BRANCH   1  16
ATOM     16  C   UNL     1       3.474   3.348  17.005  0.00  0.00    +0.000 C 
BRANCH  16  21
ATOM     17  C   UNL     1       6.770   5.294  16.939  0.00  0.00    +0.000 A 
ATOM     18  C   UNL     1       7.128   5.142  15.595  0.00  0.00    +0.000 A 
ATOM     19  C   UNL     1       6.340   4.385  14.729  0.00  0.00    +0.000 A 
ATOM     20  C   UNL     1       5.168   3.798  15.192  0.00  0.00    +0.000 A 
ATOM     21  C   UNL     1       4.778   3.952  16.530  0.00  0.00    +0.000 A 
ATOM     22  C   UNL     1       5.613   4.663  17.408  0.00  0.00    +0.000 A 
BRANCH  17  25
ATOM     23  C   UNL     1       7.723   7.426  17.759  0.00  0.00    +0.000 C 
ATOM     24  O   UNL     1       7.275   8.196  16.921  0.00  0.00    +0.000 OA
ATOM     25  N   UNL     1       7.524   6.072  17.837  0.00  0.00    +0.000 N 
ATOM     26  H   UNL     1       7.853   5.648  18.692  0.00  0.00    +0.000 HD
BRANCH  23  28
ATOM     27  C   UNL     1       8.759   9.234  18.798  0.00  0.00    +0.000 C 
ATOM     28  O   UNL     1       8.469   7.833  18.823  0.00  0.00    +0.000 OA
ENDBRANCH  23  28
ENDBRANCH  17  25
ENDBRANCH  16  21
ENDBRANCH   1  16
TORSDOF 5
ENDMDL
MODEL 7
REMARK VINA RESULT:      -8.7      4.057      7.241
REMARK  Name = 
REMARK  6 active torsions:
REMARK  status: ('A' for Active; 'I' for Inactive)
REMARK    1  A    between atoms: C_1  and  O_2
REMARK    2  A    between atoms: O_2  and  C_3
REMARK    3  A    between atoms: N_5  and  C_6
REMARK    4  A    between atoms: C_10  and  C_11
REMARK    5  A    between atoms: C_11  and  N_12
REMARK    6  A    between atoms: C_14  and  C_15
REMARK                            x       y       z     vdW  Elec       q    Type
REMARK                         _______ _______ _______ _____ _____    ______ ____
ROOT
ATOM      1  N   UNL     1       3.154   3.903  17.993  0.00  0.00    +0.000 N 
ATOM      2  N   UNL     1       2.721   5.208  18.126  0.00  0.00    +0.000 NA
ATOM      3  C   UNL     1       2.577   5.681  19.325  0.00  0.00    +0.000 A 
ATOM      4  C   UNL     1       2.911   4.921  20.551  0.00  0.00    +0.000 A 
ATOM      5  C   UNL     1       3.269   3.647  20.398  0.00  0.00    +0.000 A 
ATOM      6  C   UNL     1       3.379   3.044  19.057  0.00  0.00    +0.000 A 
ATOM      7  O   UNL     1       3.692   1.860  18.967  0.00  0.00    +0.000 OA
ENDROOT
BRANCH   3   8
ATOM      8  C   UNL     1       2.067   7.076  19.490  0.00  0.00    +0.000 A 
ATOM      9  C   UNL     1       1.495   7.528  20.684  0.00  0.00    +0.000 A 
ATOM     10  C   UNL     1       1.018   8.833  20.772  0.00  0.00    +0.000 A 
ATOM     11  F   UNL     1       0.479   9.255  21.924  0.00  0.00    +0.000 F 
ATOM     12  C   UNL     1       1.081   9.699  19.691  0.00  0.00    +0.000 A 
ATOM     13  C   UNL     1       1.636   9.243  18.506  0.00  0.00    +0.000 A 
ATOM     14  F   UNL     1       1.699  10.065  17.451  0.00  0.00    +0.000 F 
ATOM     15  C   UNL     1       2.126   7.946  18.391  0.00  0.00    +0.000 A 
ENDBRANCH   3   8
BRANCH   1  16
ATOM     16  C   UNL     1       3.449   3.454  16.641  0.00  0.00    +0.000 C 
BRANCH  16  21
ATOM     17  C   UNL     1       6.640   5.553  16.377  0.00  0.00    +0.000 A 
ATOM     18  C   UNL     1       7.131   5.114  15.143  0.00  0.00    +0.000 A 
ATOM     19  C   UNL     1       6.465   4.123  14.424  0.00  0.00    +0.000 A 
ATOM     20  C   UNL     1       5.284   3.581  14.917  0.00  0.00    +0.000 A 
ATOM     21  C   UNL     1       4.762   4.018  16.142  0.00  0.00    +0.000 A 
ATOM     22  C   UNL     1       5.475   4.972  16.889  0.00  0.00    +0.000 A 
BRANCH  17  25
ATOM     23  C   UNL     1       7.839   6.427  18.358  0.00  0.00    +0.000 C 
ATOM     24  O   UNL     1       7.924   5.404  19.024  0.00  0.00    +0.000 OA
ATOM     25  N   UNL     1       7.267   6.570  17.121  0.00  0.00    +0.000 N 
ATOM     26  H   UNL     1       7.441   7.461  16.678  0.00  0.00    +0.000 HD
BRANCH  23  28
ATOM     27  C   UNL     1       8.057   8.691  17.858  0.00  0.00    +0.000 C 
ATOM     28  O   UNL     1       8.383   7.615  18.743  0.00  0.00    +0.000 OA
ENDBRANCH  23  28
ENDBRANCH  17  25
ENDBRANCH  16  21
ENDBRANCH   1  16
TORSDOF 5
ENDMDL
MODEL 8
REMARK VINA RESULT:      -8.6      3.963      7.012
REMARK  Name = 
REMARK  6 active torsions:
REMARK  status: ('A' for Active; 'I' for Inactive)
REMARK    1  A    between atoms: C_1  and  O_2
REMARK    2  A    between atoms: O_2  and  C_3
REMARK    3  A    between atoms: N_5  and  C_6
REMARK    4  A    between atoms: C_10  and  C_11
REMARK    5  A    between atoms: C_11  and  N_12
REMARK    6  A    between atoms: C_14  and  C_15
REMARK                            x       y       z     vdW  Elec       q    Type
REMARK                         _______ _______ _______ _____ _____    ______ ____
ROOT
ATOM      1  N   UNL     1       3.734   4.015  19.645  0.00  0.00    +0.000 N 
ATOM      2  N   UNL     1       3.447   5.365  19.618  0.00  0.00    +0.000 NA
ATOM      3  C   UNL     1       2.248   5.738  19.948  0.00  0.00    +0.000 A 
ATOM      4  C   UNL     1       1.199   4.802  20.411  0.00  0.00    +0.000 A 
ATOM      5  C   UNL     1       1.482   3.501  20.371  0.00  0.00    +0.000 A 
ATOM      6  C   UNL     1       2.808   3.026  19.936  0.00  0.00    +0.000 A 
ATOM      7  O   UNL     1       3.017   1.816  19.896  0.00  0.00    +0.000 OA
ENDROOT
BRANCH   3   8
ATOM      8  C   UNL     1       1.905   7.191  19.882  0.00  0.00    +0.000 A 
ATOM      9  C   UNL     1       1.323   7.872  20.957  0.00  0.00    +0.000 A 
ATOM     10  C   UNL     1       1.005   9.221  20.830  0.00  0.00    +0.000 A 
ATOM     11  F   UNL     1       0.454   9.862  21.869  0.00  0.00    +0.000 F 
ATOM     12  C   UNL     1       1.238   9.910  19.649  0.00  0.00    +0.000 A 
ATOM     13  C   UNL     1       1.803   9.228  18.583  0.00  0.00    +0.000 A 
ATOM     14  F   UNL     1       2.028   9.877  17.433  0.00  0.00    +0.000 F 
ATOM     15  C   UNL     1       2.136   7.881  18.683  0.00  0.00    +0.000 A 
ENDBRANCH   3   8
BRANCH   1  16
ATOM     16  C   UNL     1       5.123   3.645  19.418  0.00  0.00    +0.000 C 
BRANCH  16  21
ATOM     17  C   UNL     1       7.356   6.460  18.099  0.00  0.00    +0.000 A 
ATOM     18  C   UNL     1       6.990   6.463  16.749  0.00  0.00    +0.000 A 
ATOM     19  C   UNL     1       6.068   5.540  16.259  0.00  0.00    +0.000 A 
ATOM     20  C   UNL     1       5.477   4.624  17.122  0.00  0.00    +0.000 A 
ATOM     21  C   UNL     1       5.811   4.615  18.483  0.00  0.00    +0.000 A 
ATOM     22  C   UNL     1       6.791   5.507  18.953  0.00  0.00    +0.000 A 
BRANCH  17  25
ATOM     23  C   UNL     1       8.299   8.734  18.359  0.00  0.00    +0.000 C 
ATOM     24  O   UNL     1       7.553   9.360  17.618  0.00  0.00    +0.000 OA
ATOM     25  N   UNL     1       8.263   7.392  18.637  0.00  0.00    +0.000 N 
ATOM     26  H   UNL     1       8.868   7.104  19.393  0.00  0.00    +0.000 HD
BRANCH  23  28
ATOM     27  C   UNL     1       9.406  10.723  18.847  0.00  0.00    +0.000 C 
ATOM     28  O   UNL     1       9.282   9.320  19.096  0.00  0.00    +0.000 OA
ENDBRANCH  23  28
ENDBRANCH  17  25
ENDBRANCH  16  21
ENDBRANCH   1  16
TORSDOF 5
ENDMDL
MODEL 9
REMARK VINA RESULT:      -8.6      1.985      2.932
REMARK  Name = 
REMARK  6 active torsions:
REMARK  status: ('A' for Active; 'I' for Inactive)
REMARK    1  A    between atoms: C_1  and  O_2
REMARK    2  A    between atoms: O_2  and  C_3
REMARK    3  A    between atoms: N_5  and  C_6
REMARK    4  A    between atoms: C_10  and  C_11
REMARK    5  A    between atoms: C_11  and  N_12
REMARK    6  A    between atoms: C_14  and  C_15
REMARK                            x       y       z     vdW  Elec       q    Type
REMARK                         _______ _______ _______ _____ _____    ______ ____
ROOT
ATOM      1  N   UNL     1       4.308   5.169  17.803  0.00  0.00    +0.000 N 
ATOM      2  N   UNL     1       4.633   4.966  16.477  0.00  0.00    +0.000 NA
ATOM      3  C   UNL     1       5.877   4.738  16.184  0.00  0.00    +0.000 A 
ATOM      4  C   UNL     1       6.948   4.622  17.199  0.00  0.00    +0.000 A 
ATOM      5  C   UNL     1       6.619   4.881  18.465  0.00  0.00    +0.000 A 
ATOM      6  C   UNL     1       5.232   5.213  18.836  0.00  0.00    +0.000 A 
ATOM      7  O   UNL     1       4.979   5.465  20.011  0.00  0.00    +0.000 OA
ENDROOT
BRANCH   3   8
ATOM      8  C   UNL     1       6.256   4.561  14.750  0.00  0.00    +0.000 A 
ATOM      9  C   UNL     1       5.632   3.620  13.922  0.00  0.00    +0.000 A 
ATOM     10  C   UNL     1       6.042   3.485  12.599  0.00  0.00    +0.000 A 
ATOM     11  F   UNL     1       5.432   2.586  11.816  0.00  0.00    +0.000 F 
ATOM     12  C   UNL     1       7.073   4.253  12.080  0.00  0.00    +0.000 A 
ATOM     13  C   UNL     1       7.697   5.173  12.907  0.00  0.00    +0.000 A 
ATOM     14  F   UNL     1       8.698   5.919  12.423  0.00  0.00    +0.000 F 
ATOM     15  C   UNL     1       7.304   5.335  14.231  0.00  0.00    +0.000 A 
ENDBRANCH   3   8
BRANCH   1  16
ATOM     16  C   UNL     1       2.890   5.269  18.113  0.00  0.00    +0.000 C 
BRANCH  16  21
ATOM     17  C   UNL     1       1.412   8.276  19.964  0.00  0.00    +0.000 A 
ATOM     18  C   UNL     1       1.694   9.299  19.053  0.00  0.00    +0.000 A 
ATOM     19  C   UNL     1       2.390   9.032  17.875  0.00  0.00    +0.000 A 
ATOM     20  C   UNL     1       2.785   7.732  17.582  0.00  0.00    +0.000 A 
ATOM     21  C   UNL     1       2.497   6.686  18.470  0.00  0.00    +0.000 A 
ATOM     22  C   UNL     1       1.851   6.978  19.684  0.00  0.00    +0.000 A 
BRANCH  17  25
ATOM     23  C   UNL     1       1.172   9.084  22.291  0.00  0.00    +0.000 C 
ATOM     24  O   UNL     1       2.298   9.527  22.480  0.00  0.00    +0.000 OA
ATOM     25  N   UNL     1       0.688   8.500  21.150  0.00  0.00    +0.000 N 
ATOM     26  H   UNL     1      -0.311   8.346  21.148  0.00  0.00    +0.000 HD
BRANCH  23  28
ATOM     27  C   UNL     1      -0.730  10.249  22.957  0.00  0.00    +0.000 C 
ATOM     28  O   UNL     1       0.174   9.170  23.212  0.00  0.00    +0.000 OA
ENDBRANCH  23  28
ENDBRANCH  17  25
ENDBRANCH  16  21
ENDBRANCH   1  16
TORSDOF 5
ENDMDL
