MODEL 1
REMARK VINA RESULT:      -6.6      0.000      0.000
REMARK  Name = 
REMARK  4 active torsions:
REMARK  status: ('A' for Active; 'I' for Inactive)
REMARK    1  A    between atoms: C_7  and  N_8
REMARK    2  A    between atoms: N_14  and  C_15
REMARK    3  A    between atoms: C_15  and  C_16
REMARK    4  A    between atoms: C_16  and  O_17
REMARK                            x       y       z     vdW  Elec       q    Type
REMARK                         _______ _______ _______ _____ _____    ______ ____
ROOT
ATOM      1  O   UNL     1       1.550   4.614  17.700  0.00  0.00    +0.000 OA
ATOM      2  C   UNL     1       2.674   4.451  18.133  0.00  0.00    +0.000 C 
ATOM      3  C   UNL     1       3.774   5.363  17.844  0.00  0.00    +0.000 A 
ATOM      4  C   UNL     1       3.760   6.545  17.124  0.00  0.00    +0.000 A 
ATOM      5  C   UNL     1       4.965   7.245  17.004  0.00  0.00    +0.000 A 
ATOM      6  C   UNL     1       6.141   6.746  17.596  0.00  0.00    +0.000 A 
ATOM      7  C   UNL     1       6.102   5.539  18.315  0.00  0.00    +0.000 A 
ATOM      8  C   UNL     1       4.915   4.857  18.442  0.00  0.00    +0.000 A 
ATOM      9  C   UNL     1       4.522   3.641  19.149  0.00  0.00    +0.000 C 
ATOM     10  O   UNL     1       5.271   2.979  19.837  0.00  0.00    +0.000 OA
ATOM     11  N   UNL     1       3.180   3.456  18.919  0.00  0.00    +0.000 N 
ENDROOT
BRANCH   7  12
ATOM     12  N   UNL     1       7.320   5.030  18.892  0.00  0.00    +0.000 N 
ATOM     13  O   UNL     1       7.573   5.383  20.052  0.00  0.00    +0.000 OA
ATOM     14  O   UNL     1       8.057   4.366  18.155  0.00  0.00    +0.000 OA
ENDBRANCH   7  12
BRANCH  11  15
ATOM     15  C   UNL     1       2.452   2.314  19.465  0.00  0.00    +0.000 C 
BRANCH  15  16
ATOM     16  C   UNL     1       1.562   2.579  20.681  0.00  0.00    +0.000 C 
BRANCH  16  17
ATOM     17  O   UNL     1       0.444   3.391  20.334  0.00  0.00    +0.000 OA
ATOM     18  H   UNL     1      -0.243   2.769  20.010  0.00  0.00    +0.000 HD
ENDBRANCH  16  17
ENDBRANCH  15  16
ENDBRANCH  11  15
TORSDOF 4
ENDMDL
MODEL 2
REMARK VINA RESULT:      -6.6      2.169      4.737
REMARK  Name = 
REMARK  4 active torsions:
REMARK  status: ('A' for Active; 'I' for Inactive)
REMARK    1  A    between atoms: C_7  and  N_8
REMARK    2  A    between atoms: N_14  and  C_15
REMARK    3  A    between atoms: C_15  and  C_16
REMARK    4  A    between atoms: C_16  and  O_17
REMARK                            x       y       z     vdW  Elec       q    Type
REMARK                         _______ _______ _______ _____ _____    ______ ____
ROOT
ATOM      1  O   UNL     1       2.626   7.543  18.506  0.00  0.00    +0.000 OA
ATOM      2  C   UNL     1       3.131   6.438  18.468  0.00  0.00    +0.000 C 
ATOM      3  C   UNL     1       2.671   5.329  19.295  0.00  0.00    +0.000 A 
ATOM      4  C   UNL     1       1.608   5.284  20.181  0.00  0.00    +0.000 A 
ATOM      5  C   UNL     1       1.371   4.079  20.848  0.00  0.00    +0.000 A 
ATOM      6  C   UNL     1       2.198   2.962  20.619  0.00  0.00    +0.000 A 
ATOM      7  C   UNL     1       3.265   3.060  19.710  0.00  0.00    +0.000 A 
ATOM      8  C   UNL     1       3.491   4.243  19.047  0.00  0.00    +0.000 A 
ATOM      9  C   UNL     1       4.449   4.658  18.024  0.00  0.00    +0.000 C 
ATOM     10  O   UNL     1       5.276   3.923  17.526  0.00  0.00    +0.000 OA
ATOM     11  N   UNL     1       4.181   5.973  17.731  0.00  0.00    +0.000 N 
ENDROOT
BRANCH   7  12
ATOM     12  N   UNL     1       4.117   1.916  19.507  0.00  0.00    +0.000 N 
ATOM     13  O   UNL     1       3.793   1.140  18.599  0.00  0.00    +0.000 OA
ATOM     14  O   UNL     1       5.040   1.752  20.313  0.00  0.00    +0.000 OA
ENDBRANCH   7  12
BRANCH  11  15
ATOM     15  C   UNL     1       4.966   6.722  16.753  0.00  0.00    +0.000 C 
BRANCH  15  16
ATOM     16  C   UNL     1       6.415   7.039  17.129  0.00  0.00    +0.000 C 
BRANCH  16  17
ATOM     17  O   UNL     1       7.326   6.199  16.426  0.00  0.00    +0.000 OA
ATOM     18  H   UNL     1       7.806   6.791  15.806  0.00  0.00    +0.000 HD
ENDBRANCH  16  17
ENDBRANCH  15  16
ENDBRANCH  11  15
TORSDOF 4
ENDMDL
MODEL 3
REMARK VINA RESULT:      -6.4      1.946      2.044
REMARK  Name = 
REMARK  4 active torsions:
REMARK  status: ('A' for Active; 'I' for Inactive)
REMARK    1  A    between atoms: C_7  and  N_8
REMARK    2  A    between atoms: N_14  and  C_15
REMARK    3  A    between atoms: C_15  and  C_16
REMARK    4  A    between atoms: C_16  and  O_17
REMARK                            x       y       z     vdW  Elec       q    Type
REMARK                         _______ _______ _______ _____ _____    ______ ____
ROOT
ATOM      1  O   UNL     1       2.392   3.231  16.865  0.00  0.00    +0.000 OA
ATOM      2  C   UNL     1       3.332   3.781  17.406  0.00  0.00    +0.000 C 
ATOM      3  C   UNL     1       4.572   4.096  16.707  0.00  0.00    +0.000 A 
ATOM      4  C   UNL     1       4.895   3.906  15.375  0.00  0.00    +0.000 A 
ATOM      5  C   UNL     1       6.165   4.312  14.952  0.00  0.00    +0.000 A 
ATOM      6  C   UNL     1       7.071   4.884  15.865  0.00  0.00    +0.000 A 
ATOM      7  C   UNL     1       6.695   5.053  17.208  0.00  0.00    +0.000 A 
ATOM      8  C   UNL     1       5.442   4.664  17.621  0.00  0.00    +0.000 A 
ATOM      9  C   UNL     1       4.730   4.747  18.893  0.00  0.00    +0.000 C 
ATOM     10  O   UNL     1       5.182   5.257  19.897  0.00  0.00    +0.000 OA
ATOM     11  N   UNL     1       3.485   4.201  18.695  0.00  0.00    +0.000 N 
ENDROOT
BRANCH   7  12
ATOM     12  N   UNL     1       7.645   5.616  18.134  0.00  0.00    +0.000 N 
ATOM     13  O   UNL     1       8.217   4.822  18.892  0.00  0.00    +0.000 OA
ATOM     14  O   UNL     1       7.739   6.848  18.162  0.00  0.00    +0.000 OA
ENDBRANCH   7  12
BRANCH  11  15
ATOM     15  C   UNL     1       2.504   4.101  19.772  0.00  0.00    +0.000 C 
BRANCH  15  16
ATOM     16  C   UNL     1       2.697   2.966  20.779  0.00  0.00    +0.000 C 
BRANCH  16  17
ATOM     17  O   UNL     1       2.115   3.288  22.039  0.00  0.00    +0.000 OA
ATOM     18  H   UNL     1       2.265   2.501  22.607  0.00  0.00    +0.000 HD
ENDBRANCH  16  17
ENDBRANCH  15  16
ENDBRANCH  11  15
TORSDOF 4
ENDMDL
MODEL 4
REMARK VINA RESULT:      -6.4      1.930      2.002
REMARK  Name = 
REMARK  4 active torsions:
REMARK  status: ('A' for Active; 'I' for Inactive)
REMARK    1  A    between atoms: C_7  and  N_8
REMARK    2  A    between atoms: N_14  and  C_15
REMARK    3  A    between atoms: C_15  and  C_16
REMARK    4  A    between atoms: C_16  and  O_17
REMARK                            x       y       z     vdW  Elec       q    Type
REMARK                         _______ _______ _______ _____ _____    ______ ____
ROOT
ATOM      1  O   UNL     1       2.493   3.201  16.637  0.00  0.00    +0.000 OA
ATOM      2  C   UNL     1       3.384   3.760  17.246  0.00  0.00    +0.000 C 
ATOM      3  C   UNL     1       4.653   4.129  16.630  0.00  0.00    +0.000 A 
ATOM      4  C   UNL     1       5.057   3.987  15.314  0.00  0.00    +0.000 A 
ATOM      5  C   UNL     1       6.337   4.439  14.977  0.00  0.00    +0.000 A 
ATOM      6  C   UNL     1       7.173   5.008  15.956  0.00  0.00    +0.000 A 
ATOM      7  C   UNL     1       6.716   5.126  17.280  0.00  0.00    +0.000 A 
ATOM      8  C   UNL     1       5.453   4.692  17.608  0.00  0.00    +0.000 A 
ATOM      9  C   UNL     1       4.667   4.718  18.839  0.00  0.00    +0.000 C 
ATOM     10  O   UNL     1       5.047   5.209  19.882  0.00  0.00    +0.000 OA
ATOM     11  N   UNL     1       3.452   4.145  18.554  0.00  0.00    +0.000 N 
ENDROOT
BRANCH   7  12
ATOM     12  N   UNL     1       7.595   5.687  18.275  0.00  0.00    +0.000 N 
ATOM     13  O   UNL     1       7.759   6.913  18.239  0.00  0.00    +0.000 OA
ATOM     14  O   UNL     1       8.184   4.892  19.016  0.00  0.00    +0.000 OA
ENDBRANCH   7  12
BRANCH  11  15
ATOM     15  C   UNL     1       2.414   3.987  19.569  0.00  0.00    +0.000 C 
BRANCH  15  16
ATOM     16  C   UNL     1       2.212   2.581  20.137  0.00  0.00    +0.000 C 
BRANCH  16  17
ATOM     17  O   UNL     1       1.663   1.703  19.159  0.00  0.00    +0.000 OA
ATOM     18  H   UNL     1       0.733   1.992  19.038  0.00  0.00    +0.000 HD
ENDBRANCH  16  17
ENDBRANCH  15  16
ENDBRANCH  11  15
TORSDOF 4
ENDMDL
MODEL 5
REMARK VINA RESULT:      -6.4      2.278      4.775
REMARK  Name = 
REMARK  4 active torsions:
REMARK  status: ('A' for Active; 'I' for Inactive)
REMARK    1  A    between atoms: C_7  and  N_8
REMARK    2  A    between atoms: N_14  and  C_15
REMARK    3  A    between atoms: C_15  and  C_16
REMARK    4  A    between atoms: C_16  and  O_17
REMARK                            x       y       z     vdW  Elec       q    Type
REMARK                         _______ _______ _______ _____ _____    ______ ____
ROOT
ATOM      1  O   UNL     1       4.637   6.945  17.202  0.00  0.00    +0.000 OA
ATOM      2  C   UNL     1       4.308   5.910  17.746  0.00  0.00    +0.000 C 
ATOM      3  C   UNL     1       3.341   5.863  18.836  0.00  0.00    +0.000 A 
ATOM      4  C   UNL     1       2.608   6.894  19.398  0.00  0.00    +0.000 A 
ATOM      5  C   UNL     1       1.730   6.573  20.438  0.00  0.00    +0.000 A 
ATOM      6  C   UNL     1       1.615   5.245  20.890  0.00  0.00    +0.000 A 
ATOM      7  C   UNL     1       2.384   4.234  20.288  0.00  0.00    +0.000 A 
ATOM      8  C   UNL     1       3.239   4.548  19.257  0.00  0.00    +0.000 A 
ATOM      9  C   UNL     1       4.114   3.756  18.398  0.00  0.00    +0.000 C 
ATOM     10  O   UNL     1       4.214   2.548  18.453  0.00  0.00    +0.000 OA
ATOM     11  N   UNL     1       4.721   4.628  17.527  0.00  0.00    +0.000 N 
ENDROOT
BRANCH   7  12
ATOM     12  N   UNL     1       2.272   2.885  20.781  0.00  0.00    +0.000 N 
ATOM     13  O   UNL     1       1.521   2.127  20.153  0.00  0.00    +0.000 OA
ATOM     14  O   UNL     1       2.857   2.622  21.837  0.00  0.00    +0.000 OA
ENDBRANCH   7  12
BRANCH  11  15
ATOM     15  C   UNL     1       5.686   4.176  16.527  0.00  0.00    +0.000 C 
BRANCH  15  16
ATOM     16  C   UNL     1       7.139   4.613  16.724  0.00  0.00    +0.000 C 
BRANCH  16  17
ATOM     17  O   UNL     1       7.395   5.858  16.081  0.00  0.00    +0.000 OA
ATOM     18  H   UNL     1       7.735   6.453  16.784  0.00  0.00    +0.000 HD
ENDBRANCH  16  17
ENDBRANCH  15  16
ENDBRANCH  11  15
TORSDOF 4
ENDMDL
MODEL 6
REMARK VINA RESULT:      -6.3      0.744      1.124
REMARK  Name = 
REMARK  4 active torsions:
REMARK  status: ('A' for Active; 'I' for Inactive)
REMARK    1  A    between atoms: C_7  and  N_8
REMARK    2  A    between atoms: N_14  and  C_15
REMARK    3  A    between atoms: C_15  and  C_16
REMARK    4  A    between atoms: C_16  and  O_17
REMARK                            x       y       z     vdW  Elec       q    Type
REMARK                         _______ _______ _______ _____ _____    ______ ____
ROOT
ATOM      1  O   UNL     1       1.738   5.098  17.758  0.00  0.00    +0.000 OA
ATOM      2  C   UNL     1       2.870   4.834  18.113  0.00  0.00    +0.000 C 
ATOM      3  C   UNL     1       4.031   5.616  17.704  0.00  0.00    +0.000 A 
ATOM      4  C   UNL     1       4.080   6.766  16.936  0.00  0.00    +0.000 A 
ATOM      5  C   UNL     1       5.337   7.332  16.696  0.00  0.00    +0.000 A 
ATOM      6  C   UNL     1       6.499   6.734  17.220  0.00  0.00    +0.000 A 
ATOM      7  C   UNL     1       6.395   5.564  17.991  0.00  0.00    +0.000 A 
ATOM      8  C   UNL     1       5.158   5.015  18.236  0.00  0.00    +0.000 A 
ATOM      9  C   UNL     1       4.701   3.872  19.022  0.00  0.00    +0.000 C 
ATOM     10  O   UNL     1       5.430   3.159  19.679  0.00  0.00    +0.000 OA
ATOM     11  N   UNL     1       3.333   3.820  18.901  0.00  0.00    +0.000 N 
ENDROOT
BRANCH   7  12
ATOM     12  N   UNL     1       7.597   4.951  18.497  0.00  0.00    +0.000 N 
ATOM     13  O   UNL     1       8.162   4.142  17.750  0.00  0.00    +0.000 OA
ATOM     14  O   UNL     1       7.910   5.208  19.665  0.00  0.00    +0.000 OA
ENDBRANCH   7  12
BRANCH  11  15
ATOM     15  C   UNL     1       2.538   2.780  19.548  0.00  0.00    +0.000 C 
BRANCH  15  16
ATOM     16  C   UNL     1       1.679   1.900  18.638  0.00  0.00    +0.000 C 
BRANCH  16  17
ATOM     17  O   UNL     1       0.348   2.399  18.545  0.00  0.00    +0.000 OA
ATOM     18  H   UNL     1       0.411   3.358  18.746  0.00  0.00    +0.000 HD
ENDBRANCH  16  17
ENDBRANCH  15  16
ENDBRANCH  11  15
TORSDOF 4
ENDMDL
MODEL 7
REMARK VINA RESULT:      -6.3      2.310      5.058
REMARK  Name = 
REMARK  4 active torsions:
REMARK  status: ('A' for Active; 'I' for Inactive)
REMARK    1  A    between atoms: C_7  and  N_8
REMARK    2  A    between atoms: N_14  and  C_15
REMARK    3  A    between atoms: C_15  and  C_16
REMARK    4  A    between atoms: C_16  and  O_17
REMARK                            x       y       z     vdW  Elec       q    Type
REMARK                         _______ _______ _______ _____ _____    ______ ____
ROOT
ATOM      1  O   UNL     1       4.821   6.949  17.481  0.00  0.00    +0.000 OA
ATOM      2  C   UNL     1       4.210   5.911  17.643  0.00  0.00    +0.000 C 
ATOM      3  C   UNL     1       3.190   5.745  18.671  0.00  0.00    +0.000 A 
ATOM      4  C   UNL     1       2.697   6.676  19.568  0.00  0.00    +0.000 A 
ATOM      5  C   UNL     1       1.698   6.257  20.453  0.00  0.00    +0.000 A 
ATOM      6  C   UNL     1       1.229   4.930  20.422  0.00  0.00    +0.000 A 
ATOM      7  C   UNL     1       1.765   4.022  19.494  0.00  0.00    +0.000 A 
ATOM      8  C   UNL     1       2.739   4.438  18.616  0.00  0.00    +0.000 A 
ATOM      9  C   UNL     1       3.449   3.788  17.517  0.00  0.00    +0.000 C 
ATOM     10  O   UNL     1       3.245   2.649  17.151  0.00  0.00    +0.000 OA
ATOM     11  N   UNL     1       4.310   4.718  16.987  0.00  0.00    +0.000 N 
ENDROOT
BRANCH   7  12
ATOM     12  N   UNL     1       1.292   2.662  19.494  0.00  0.00    +0.000 N 
ATOM     13  O   UNL     1       1.954   1.846  20.148  0.00  0.00    +0.000 OA
ATOM     14  O   UNL     1       0.326   2.402  18.767  0.00  0.00    +0.000 OA
ENDBRANCH   7  12
BRANCH  11  15
ATOM     15  C   UNL     1       5.200   4.402  15.873  0.00  0.00    +0.000 C 
BRANCH  15  16
ATOM     16  C   UNL     1       6.703   4.441  16.157  0.00  0.00    +0.000 C 
BRANCH  16  17
ATOM     17  O   UNL     1       7.252   5.719  15.854  0.00  0.00    +0.000 OA
ATOM     18  H   UNL     1       6.657   6.371  16.285  0.00  0.00    +0.000 HD
ENDBRANCH  16  17
ENDBRANCH  15  16
ENDBRANCH  11  15
TORSDOF 4
ENDMDL
MODEL 8
REMARK VINA RESULT:      -6.3      2.418      5.099
REMARK  Name = 
REMARK  4 active torsions:
REMARK  status: ('A' for Active; 'I' for Inactive)
REMARK    1  A    between atoms: C_7  and  N_8
REMARK    2  A    between atoms: N_14  and  C_15
REMARK    3  A    between atoms: C_15  and  C_16
REMARK    4  A    between atoms: C_16  and  O_17
REMARK                            x       y       z     vdW  Elec       q    Type
REMARK                         _______ _______ _______ _____ _____    ______ ____
ROOT
ATOM      1  O   UNL     1       6.161   7.084  16.189  0.00  0.00    +0.000 OA
ATOM      2  C   UNL     1       5.438   6.180  16.561  0.00  0.00    +0.000 C 
ATOM      3  C   UNL     1       4.212   6.408  17.316  0.00  0.00    +0.000 A 
ATOM      4  C   UNL     1       3.627   7.605  17.689  0.00  0.00    +0.000 A 
ATOM      5  C   UNL     1       2.430   7.545  18.410  0.00  0.00    +0.000 A 
ATOM      6  C   UNL     1       1.859   6.301  18.740  0.00  0.00    +0.000 A 
ATOM      7  C   UNL     1       2.494   5.113  18.340  0.00  0.00    +0.000 A 
ATOM      8  C   UNL     1       3.666   5.174  17.622  0.00  0.00    +0.000 A 
ATOM      9  C   UNL     1       4.530   4.163  17.018  0.00  0.00    +0.000 C 
ATOM     10  O   UNL     1       4.305   2.971  17.039  0.00  0.00    +0.000 OA
ATOM     11  N   UNL     1       5.565   4.830  16.408  0.00  0.00    +0.000 N 
ENDROOT
BRANCH   7  12
ATOM     12  N   UNL     1       1.910   3.849  18.710  0.00  0.00    +0.000 N 
ATOM     13  O   UNL     1       1.093   3.364  17.916  0.00  0.00    +0.000 OA
ATOM     14  O   UNL     1       2.197   3.402  19.826  0.00  0.00    +0.000 OA
ENDBRANCH   7  12
BRANCH  11  15
ATOM     15  C   UNL     1       6.638   4.123  15.713  0.00  0.00    +0.000 C 
BRANCH  15  16
ATOM     16  C   UNL     1       6.842   4.460  14.235  0.00  0.00    +0.000 C 
BRANCH  16  17
ATOM     17  O   UNL     1       7.783   5.517  14.072  0.00  0.00    +0.000 OA
ATOM     18  H   UNL     1       7.884   5.632  13.102  0.00  0.00    +0.000 HD
ENDBRANCH  16  17
ENDBRANCH  15  16
ENDBRANCH  11  15
TORSDOF 4
ENDMDL
MODEL 9
REMARK VINA RESULT:      -6.1      1.641      1.886
REMARK  Name = 
REMARK  4 active torsions:
REMARK  status: ('A' for Active; 'I' for Inactive)
REMARK    1  A    between atoms: C_7  and  N_8
REMARK    2  A    between atoms: N_14  and  C_15
REMARK    3  A    between atoms: C_15  and  C_16
REMARK    4  A    between atoms: C_16  and  O_17
REMARK                            x       y       z     vdW  Elec       q    Type
REMARK                         _______ _______ _______ _____ _____    ______ ____
ROOT
ATOM      1  O   UNL     1       1.483   6.051  20.653  0.00  0.00    +0.000 OA
ATOM      2  C   UNL     1       2.417   5.477  20.127  0.00  0.00    +0.000 C 
ATOM      3  C   UNL     1       3.132   6.017  18.978  0.00  0.00    +0.000 A 
ATOM      4  C   UNL     1       2.955   7.228  18.331  0.00  0.00    +0.000 A 
ATOM      5  C   UNL     1       3.792   7.513  17.248  0.00  0.00    +0.000 A 
ATOM      6  C   UNL     1       4.770   6.585  16.839  0.00  0.00    +0.000 A 
ATOM      7  C   UNL     1       4.907   5.368  17.528  0.00  0.00    +0.000 A 
ATOM      8  C   UNL     1       4.091   5.094  18.601  0.00  0.00    +0.000 A 
ATOM      9  C   UNL     1       4.009   3.984  19.546  0.00  0.00    +0.000 C 
ATOM     10  O   UNL     1       4.756   3.027  19.543  0.00  0.00    +0.000 OA
ATOM     11  N   UNL     1       2.990   4.274  20.421  0.00  0.00    +0.000 N 
ENDROOT
BRANCH   7  12
ATOM     12  N   UNL     1       5.895   4.420  17.081  0.00  0.00    +0.000 N 
ATOM     13  O   UNL     1       7.017   4.504  17.597  0.00  0.00    +0.000 OA
ATOM     14  O   UNL     1       5.573   3.667  16.155  0.00  0.00    +0.000 OA
ENDBRANCH   7  12
BRANCH  11  15
ATOM     15  C   UNL     1       2.614   3.362  21.499  0.00  0.00    +0.000 C 
BRANCH  15  16
ATOM     16  C   UNL     1       1.340   2.540  21.293  0.00  0.00    +0.000 C 
BRANCH  16  17
ATOM     17  O   UNL     1       0.456   3.178  20.375  0.00  0.00    +0.000 OA
ATOM     18  H   UNL     1      -0.442   2.859  20.610  0.00  0.00    +0.000 HD
ENDBRANCH  16  17
ENDBRANCH  15  16
ENDBRANCH  11  15
TORSDOF 4
ENDMDL
