MODEL 1
REMARK VINA RESULT:      -7.3      0.000      0.000
REMARK  Name = 
REMARK  11 active torsions:
REMARK  status: ('A' for Active; 'I' for Inactive)
REMARK    1  A    between atoms: O_1  and  C_2
REMARK    2  A    between atoms: C_8  and  C_9
REMARK    3  A    between atoms: N_10  and  C_11
REMARK    4  A    between atoms: C_11  and  C_12
REMARK    5  A    between atoms: C_12  and  C_13
REMARK    6  A    between atoms: C_13  and  C_14
REMARK    7  A    between atoms: C_14  and  C_15
REMARK    8  A    between atoms: C_15  and  C_16
REMARK    9  A    between atoms: C_16  and  N_17
REMARK   10  A    between atoms: C_18  and  C_19
REMARK   11  A    between atoms: C_25  and  O_26
REMARK                            x       y       z     vdW  Elec       q    Type
REMARK                         _______ _______ _______ _____ _____    ______ ____
ROOT
ATOM      1  C   UNL     1       1.091   4.314  20.679  0.00  0.00    +0.000 C 
ENDROOT
BRANCH   1   2
ATOM      2  C   UNL     1       2.572   4.665  20.571  0.00  0.00    +0.000 C 
BRANCH   2   3
ATOM      3  C   UNL     1       2.822   5.890  19.687  0.00  0.00    +0.000 C 
BRANCH   3   5
ATOM      4  C   UNL     1       2.018   8.082  19.619  0.00  0.00    +0.000 C 
ATOM      5  N   UNL     1       1.834   6.892  20.079  0.00  0.00    +0.000 NA
BRANCH   4  12
ATOM      6  C   UNL     1       0.668  10.110  19.017  0.00  0.00    +0.000 A 
ATOM      7  C   UNL     1      -0.230  11.119  19.372  0.00  0.00    +0.000 A 
ATOM      8  C   UNL     1      -0.731  11.176  20.677  0.00  0.00    +0.000 A 
ATOM      9  C   UNL     1      -0.333  10.230  21.618  0.00  0.00    +0.000 A 
ATOM     10 CL   UNL     1      -0.950  10.305  23.222  0.00  0.00    +0.000 Cl
ATOM     11  C   UNL     1       0.562   9.223  21.269  0.00  0.00    +0.000 A 
ATOM     12  C   UNL     1       1.067   9.161  19.963  0.00  0.00    +0.000 A 
BRANCH   6  13
ATOM     13  O   UNL     1       1.155  10.056  17.741  0.00  0.00    +0.000 OA
ATOM     14  H   UNL     1       0.445   9.781  17.138  0.00  0.00    +0.000 HD
ENDBRANCH   6  13
ENDBRANCH   4  12
ENDBRANCH   3   5
ENDBRANCH   2   3
ENDBRANCH   1   2
BRANCH   1  15
ATOM     15  C   UNL     1       0.758   3.078  19.836  0.00  0.00    +0.000 C 
BRANCH  15  16
ATOM     16  C   UNL     1       2.009   2.251  19.562  0.00  0.00    +0.000 C 
BRANCH  16  17
ATOM     17  C   UNL     1       2.223   1.994  18.070  0.00  0.00    +0.000 C 
BRANCH  17  18
ATOM     18  N   UNL     1       3.604   2.367  17.770  0.00  0.00    +0.000 NA
ATOM     19  C   UNL     1       3.749   3.504  17.182  0.00  0.00    +0.000 C 
BRANCH  19  20
ATOM     20  C   UNL     1       5.095   3.976  16.792  0.00  0.00    +0.000 A 
ATOM     21  C   UNL     1       5.397   4.131  15.433  0.00  0.00    +0.000 A 
ATOM     22  C   UNL     1       6.645   4.615  15.053  0.00  0.00    +0.000 A 
ATOM     23 CL   UNL     1       7.013   4.820  13.386  0.00  0.00    +0.000 Cl
ATOM     24  C   UNL     1       7.597   4.944  16.018  0.00  0.00    +0.000 A 
ATOM     25  C   UNL     1       7.303   4.781  17.375  0.00  0.00    +0.000 A 
ATOM     26  C   UNL     1       6.052   4.298  17.760  0.00  0.00    +0.000 A 
BRANCH  26  27
ATOM     27  O   UNL     1       5.761   4.148  19.087  0.00  0.00    +0.000 OA
ATOM     28  H   UNL     1       5.489   5.007  19.455  0.00  0.00    +0.000 HD
ENDBRANCH  26  27
ENDBRANCH  19  20
ENDBRANCH  17  18
ENDBRANCH  16  17
ENDBRANCH  15  16
ENDBRANCH   1  15
TORSDOF 11
ENDMDL
MODEL 2
REMARK VINA RESULT:      -6.9      2.300      2.855
REMARK  Name = 
REMARK  11 active torsions:
REMARK  status: ('A' for Active; 'I' for Inactive)
REMARK    1  A    between atoms: O_1  and  C_2
REMARK    2  A    between atoms: C_8  and  C_9
REMARK    3  A    between atoms: N_10  and  C_11
REMARK    4  A    between atoms: C_11  and  C_12
REMARK    5  A    between atoms: C_12  and  C_13
REMARK    6  A    between atoms: C_13  and  C_14
REMARK    7  A    between atoms: C_14  and  C_15
REMARK    8  A    between atoms: C_15  and  C_16
REMARK    9  A    between atoms: C_16  and  N_17
REMARK   10  A    between atoms: C_18  and  C_19
REMARK   11  A    between atoms: C_25  and  O_26
REMARK                            x       y       z     vdW  Elec       q    Type
REMARK                         _______ _______ _______ _____ _____    ______ ____
ROOT
ATOM      1  C   UNL     1       1.261   3.188  19.490  0.00  0.00    +0.000 C 
ENDROOT
BRANCH   1   2
ATOM      2  C   UNL     1       2.346   3.383  20.544  0.00  0.00    +0.000 C 
BRANCH   2   3
ATOM      3  C   UNL     1       2.144   4.658  21.366  0.00  0.00    +0.000 C 
BRANCH   3   5
ATOM      4  C   UNL     1       1.908   6.923  20.848  0.00  0.00    +0.000 C 
ATOM      5  N   UNL     1       1.803   5.714  20.415  0.00  0.00    +0.000 NA
BRANCH   4  12
ATOM      6  C   UNL     1       2.105   8.136  18.660  0.00  0.00    +0.000 A 
ATOM      7  C   UNL     1       1.781   9.219  17.839  0.00  0.00    +0.000 A 
ATOM      8  C   UNL     1       0.933  10.224  18.316  0.00  0.00    +0.000 A 
ATOM      9  C   UNL     1       0.415  10.143  19.607  0.00  0.00    +0.000 A 
ATOM     10 CL   UNL     1      -0.627  11.382  20.191  0.00  0.00    +0.000 Cl
ATOM     11  C   UNL     1       0.734   9.066  20.428  0.00  0.00    +0.000 A 
ATOM     12  C   UNL     1       1.583   8.057  19.954  0.00  0.00    +0.000 A 
BRANCH   6  13
ATOM     13  O   UNL     1       2.933   7.155  18.190  0.00  0.00    +0.000 OA
ATOM     14  H   UNL     1       3.264   7.407  17.312  0.00  0.00    +0.000 HD
ENDBRANCH   6  13
ENDBRANCH   4  12
ENDBRANCH   3   5
ENDBRANCH   2   3
ENDBRANCH   1   2
BRANCH   1  15
ATOM     15  C   UNL     1       1.573   1.980  18.599  0.00  0.00    +0.000 C 
BRANCH  15  16
ATOM     16  C   UNL     1       2.799   2.244  17.731  0.00  0.00    +0.000 C 
BRANCH  16  17
ATOM     17  C   UNL     1       2.651   3.506  16.881  0.00  0.00    +0.000 C 
BRANCH  17  18
ATOM     18  N   UNL     1       3.596   4.487  17.410  0.00  0.00    +0.000 NA
ATOM     19  C   UNL     1       4.802   4.378  16.971  0.00  0.00    +0.000 C 
BRANCH  19  20
ATOM     20  C   UNL     1       5.860   5.289  17.460  0.00  0.00    +0.000 A 
ATOM     21  C   UNL     1       6.588   4.940  18.604  0.00  0.00    +0.000 A 
ATOM     22  C   UNL     1       7.613   5.766  19.050  0.00  0.00    +0.000 A 
ATOM     23 CL   UNL     1       8.518   5.332  20.446  0.00  0.00    +0.000 Cl
ATOM     24  C   UNL     1       7.919   6.943  18.366  0.00  0.00    +0.000 A 
ATOM     25  C   UNL     1       7.188   7.301  17.229  0.00  0.00    +0.000 A 
ATOM     26  C   UNL     1       6.159   6.473  16.777  0.00  0.00    +0.000 A 
BRANCH  26  27
ATOM     27  O   UNL     1       5.452   6.818  15.660  0.00  0.00    +0.000 OA
ATOM     28  H   UNL     1       5.943   6.536  14.869  0.00  0.00    +0.000 HD
ENDBRANCH  26  27
ENDBRANCH  19  20
ENDBRANCH  17  18
ENDBRANCH  16  17
ENDBRANCH  15  16
ENDBRANCH   1  15
TORSDOF 11
ENDMDL
MODEL 3
REMARK VINA RESULT:      -6.8      2.531      3.120
REMARK  Name = 
REMARK  11 active torsions:
REMARK  status: ('A' for Active; 'I' for Inactive)
REMARK    1  A    between atoms: O_1  and  C_2
REMARK    2  A    between atoms: C_8  and  C_9
REMARK    3  A    between atoms: N_10  and  C_11
REMARK    4  A    between atoms: C_11  and  C_12
REMARK    5  A    between atoms: C_12  and  C_13
REMARK    6  A    between atoms: C_13  and  C_14
REMARK    7  A    between atoms: C_14  and  C_15
REMARK    8  A    between atoms: C_15  and  C_16
REMARK    9  A    between atoms: C_16  and  N_17
REMARK   10  A    between atoms: C_18  and  C_19
REMARK   11  A    between atoms: C_25  and  O_26
REMARK                            x       y       z     vdW  Elec       q    Type
REMARK                         _______ _______ _______ _____ _____    ______ ____
ROOT
ATOM      1  C   UNL     1       1.858   6.196  20.938  0.00  0.00    +0.000 C 
ENDROOT
BRANCH   1   2
ATOM      2  C   UNL     1       1.736   7.516  20.183  0.00  0.00    +0.000 C 
BRANCH   2   3
ATOM      3  C   UNL     1       1.274   8.666  21.081  0.00  0.00    +0.000 C 
BRANCH   3   5
ATOM      4  C   UNL     1       0.177   9.807  19.364  0.00  0.00    +0.000 C 
ATOM      5  N   UNL     1       0.047   9.189  20.486  0.00  0.00    +0.000 NA
BRANCH   4  12
ATOM      6  C   UNL     1      -1.782  11.373  19.287  0.00  0.00    +0.000 A 
ATOM      7  C   UNL     1      -2.902  11.884  18.626  0.00  0.00    +0.000 A 
ATOM      8  C   UNL     1      -3.249  11.392  17.364  0.00  0.00    +0.000 A 
ATOM      9  C   UNL     1      -2.480  10.393  16.770  0.00  0.00    +0.000 A 
ATOM     10 CL   UNL     1      -2.913   9.789  15.218  0.00  0.00    +0.000 Cl
ATOM     11  C   UNL     1      -1.365   9.881  17.424  0.00  0.00    +0.000 A 
ATOM     12  C   UNL     1      -1.013  10.371  18.689  0.00  0.00    +0.000 A 
BRANCH   6  13
ATOM     13  O   UNL     1      -1.445  11.857  20.520  0.00  0.00    +0.000 OA
ATOM     14  H   UNL     1      -2.008  12.619  20.731  0.00  0.00    +0.000 HD
ENDBRANCH   6  13
ENDBRANCH   4  12
ENDBRANCH   3   5
ENDBRANCH   2   3
ENDBRANCH   1   2
BRANCH   1  15
ATOM     15  C   UNL     1       1.476   5.013  20.041  0.00  0.00    +0.000 C 
BRANCH  15  16
ATOM     16  C   UNL     1       1.536   3.700  20.815  0.00  0.00    +0.000 C 
BRANCH  16  17
ATOM     17  C   UNL     1       2.716   2.826  20.391  0.00  0.00    +0.000 C 
BRANCH  17  18
ATOM     18  N   UNL     1       3.375   3.512  19.281  0.00  0.00    +0.000 NA
ATOM     19  C   UNL     1       4.662   3.472  19.299  0.00  0.00    +0.000 C 
BRANCH  19  20
ATOM     20  C   UNL     1       5.445   4.161  18.251  0.00  0.00    +0.000 A 
ATOM     21  C   UNL     1       5.147   3.917  16.904  0.00  0.00    +0.000 A 
ATOM     22  C   UNL     1       5.847   4.590  15.909  0.00  0.00    +0.000 A 
ATOM     23 CL   UNL     1       5.473   4.302  14.255  0.00  0.00    +0.000 Cl
ATOM     24  C   UNL     1       6.845   5.504  16.243  0.00  0.00    +0.000 A 
ATOM     25  C   UNL     1       7.153   5.743  17.586  0.00  0.00    +0.000 A 
ATOM     26  C   UNL     1       6.452   5.071  18.588  0.00  0.00    +0.000 A 
BRANCH  26  27
ATOM     27  O   UNL     1       6.746   5.313  19.901  0.00  0.00    +0.000 OA
ATOM     28  H   UNL     1       7.678   5.582  19.977  0.00  0.00    +0.000 HD
ENDBRANCH  26  27
ENDBRANCH  19  20
ENDBRANCH  17  18
ENDBRANCH  16  17
ENDBRANCH  15  16
ENDBRANCH   1  15
TORSDOF 11
ENDMDL
MODEL 4
REMARK VINA RESULT:      -6.7      2.562      4.494
REMARK  Name = 
REMARK  11 active torsions:
REMARK  status: ('A' for Active; 'I' for Inactive)
REMARK    1  A    between atoms: O_1  and  C_2
REMARK    2  A    between atoms: C_8  and  C_9
REMARK    3  A    between atoms: N_10  and  C_11
REMARK    4  A    between atoms: C_11  and  C_12
REMARK    5  A    between atoms: C_12  and  C_13
REMARK    6  A    between atoms: C_13  and  C_14
REMARK    7  A    between atoms: C_14  and  C_15
REMARK    8  A    between atoms: C_15  and  C_16
REMARK    9  A    between atoms: C_16  and  N_17
REMARK   10  A    between atoms: C_18  and  C_19
REMARK   11  A    between atoms: C_25  and  O_26
REMARK                            x       y       z     vdW  Elec       q    Type
REMARK                         _______ _______ _______ _____ _____    ______ ____
ROOT
ATOM      1  C   UNL     1       4.898   6.933  16.482  0.00  0.00    +0.000 C 
ENDROOT
BRANCH   1   2
ATOM      2  C   UNL     1       4.041   7.212  17.713  0.00  0.00    +0.000 C 
BRANCH   2   3
ATOM      3  C   UNL     1       2.674   7.799  17.356  0.00  0.00    +0.000 C 
BRANCH   3   5
ATOM      4  C   UNL     1       1.355   9.450  18.351  0.00  0.00    +0.000 C 
ATOM      5  N   UNL     1       2.197   8.495  18.549  0.00  0.00    +0.000 NA
BRANCH   4  12
ATOM      6  C   UNL     1       0.446  11.552  19.376  0.00  0.00    +0.000 A 
ATOM      7  C   UNL     1      -0.056  12.245  20.480  0.00  0.00    +0.000 A 
ATOM      8  C   UNL     1      -0.186  11.593  21.710  0.00  0.00    +0.000 A 
ATOM      9  C   UNL     1       0.187  10.256  21.832  0.00  0.00    +0.000 A 
ATOM     10 CL   UNL     1       0.027   9.458  23.348  0.00  0.00    +0.000 Cl
ATOM     11  C   UNL     1       0.687   9.562  20.736  0.00  0.00    +0.000 A 
ATOM     12  C   UNL     1       0.819  10.210  19.501  0.00  0.00    +0.000 A 
BRANCH   6  13
ATOM     13  O   UNL     1       0.570  12.192  18.174  0.00  0.00    +0.000 OA
ATOM     14  H   UNL     1       0.554  13.152  18.319  0.00  0.00    +0.000 HD
ENDBRANCH   6  13
ENDBRANCH   4  12
ENDBRANCH   3   5
ENDBRANCH   2   3
ENDBRANCH   1   2
BRANCH   1  15
ATOM     15  C   UNL     1       6.371   6.756  16.868  0.00  0.00    +0.000 C 
BRANCH  15  16
ATOM     16  C   UNL     1       6.844   5.335  16.578  0.00  0.00    +0.000 C 
BRANCH  16  17
ATOM     17  C   UNL     1       7.515   4.685  17.788  0.00  0.00    +0.000 C 
BRANCH  17  18
ATOM     18  N   UNL     1       6.504   4.605  18.841  0.00  0.00    +0.000 NA
ATOM     19  C   UNL     1       5.477   3.880  18.561  0.00  0.00    +0.000 C 
BRANCH  19  20
ATOM     20  C   UNL     1       4.368   3.751  19.531  0.00  0.00    +0.000 A 
ATOM     21  C   UNL     1       3.504   4.835  19.729  0.00  0.00    +0.000 A 
ATOM     22  C   UNL     1       2.432   4.712  20.606  0.00  0.00    +0.000 A 
ATOM     23 CL   UNL     1       1.362   6.038  20.841  0.00  0.00    +0.000 Cl
ATOM     24  C   UNL     1       2.214   3.517  21.291  0.00  0.00    +0.000 A 
ATOM     25  C   UNL     1       3.079   2.436  21.104  0.00  0.00    +0.000 A 
ATOM     26  C   UNL     1       4.155   2.554  20.222  0.00  0.00    +0.000 A 
BRANCH  26  27
ATOM     27  O   UNL     1       4.996   1.493  20.032  0.00  0.00    +0.000 OA
ATOM     28  H   UNL     1       5.650   1.721  19.349  0.00  0.00    +0.000 HD
ENDBRANCH  26  27
ENDBRANCH  19  20
ENDBRANCH  17  18
ENDBRANCH  16  17
ENDBRANCH  15  16
ENDBRANCH   1  15
TORSDOF 11
ENDMDL
MODEL 5
REMARK VINA RESULT:      -6.7      2.222      2.634
REMARK  Name = 
REMARK  11 active torsions:
REMARK  status: ('A' for Active; 'I' for Inactive)
REMARK    1  A    between atoms: O_1  and  C_2
REMARK    2  A    between atoms: C_8  and  C_9
REMARK    3  A    between atoms: N_10  and  C_11
REMARK    4  A    between atoms: C_11  and  C_12
REMARK    5  A    between atoms: C_12  and  C_13
REMARK    6  A    between atoms: C_13  and  C_14
REMARK    7  A    between atoms: C_14  and  C_15
REMARK    8  A    between atoms: C_15  and  C_16
REMARK    9  A    between atoms: C_16  and  N_17
REMARK   10  A    between atoms: C_18  and  C_19
REMARK   11  A    between atoms: C_25  and  O_26
REMARK                            x       y       z     vdW  Elec       q    Type
REMARK                         _______ _______ _______ _____ _____    ______ ____
ROOT
ATOM      1  C   UNL     1       0.919   4.496  20.295  0.00  0.00    +0.000 C 
ENDROOT
BRANCH   1   2
ATOM      2  C   UNL     1       1.785   5.551  20.976  0.00  0.00    +0.000 C 
BRANCH   2   3
ATOM      3  C   UNL     1       2.459   6.493  19.976  0.00  0.00    +0.000 C 
BRANCH   3   5
ATOM      4  C   UNL     1       1.288   8.196  21.062  0.00  0.00    +0.000 C 
ATOM      5  N   UNL     1       1.639   7.701  19.926  0.00  0.00    +0.000 NA
BRANCH   4  12
ATOM      6  C   UNL     1       0.160  10.052  22.320  0.00  0.00    +0.000 A 
ATOM      7  C   UNL     1      -0.629  11.205  22.333  0.00  0.00    +0.000 A 
ATOM      8  C   UNL     1      -1.120  11.725  21.131  0.00  0.00    +0.000 A 
ATOM      9  C   UNL     1      -0.823  11.092  19.925  0.00  0.00    +0.000 A 
ATOM     10 CL   UNL     1      -1.431  11.734  18.449  0.00  0.00    +0.000 Cl
ATOM     11  C   UNL     1      -0.038   9.944  19.908  0.00  0.00    +0.000 A 
ATOM     12  C   UNL     1       0.456   9.419  21.109  0.00  0.00    +0.000 A 
BRANCH   6  13
ATOM     13  O   UNL     1       0.639   9.547  23.496  0.00  0.00    +0.000 OA
ATOM     14  H   UNL     1       0.475   8.590  23.526  0.00  0.00    +0.000 HD
ENDBRANCH   6  13
ENDBRANCH   4  12
ENDBRANCH   3   5
ENDBRANCH   2   3
ENDBRANCH   1   2
BRANCH   1  15
ATOM     15  C   UNL     1       1.285   3.089  20.782  0.00  0.00    +0.000 C 
BRANCH  15  16
ATOM     16  C   UNL     1       2.128   2.354  19.744  0.00  0.00    +0.000 C 
BRANCH  16  17
ATOM     17  C   UNL     1       3.624   2.432  20.046  0.00  0.00    +0.000 C 
BRANCH  17  18
ATOM     18  N   UNL     1       4.254   3.085  18.901  0.00  0.00    +0.000 NA
ATOM     19  C   UNL     1       5.158   3.955  19.194  0.00  0.00    +0.000 C 
BRANCH  19  20
ATOM     20  C   UNL     1       5.843   4.711  18.123  0.00  0.00    +0.000 A 
ATOM     21  C   UNL     1       6.461   5.929  18.435  0.00  0.00    +0.000 A 
ATOM     22  C   UNL     1       7.145   6.628  17.447  0.00  0.00    +0.000 A 
ATOM     23 CL   UNL     1       7.916   8.116  17.830  0.00  0.00    +0.000 Cl
ATOM     24  C   UNL     1       7.217   6.125  16.148  0.00  0.00    +0.000 A 
ATOM     25  C   UNL     1       6.593   4.915  15.830  0.00  0.00    +0.000 A 
ATOM     26  C   UNL     1       5.907   4.209  16.820  0.00  0.00    +0.000 A 
BRANCH  26  27
ATOM     27  O   UNL     1       5.306   3.021  16.512  0.00  0.00    +0.000 OA
ATOM     28  H   UNL     1       4.378   3.045  16.803  0.00  0.00    +0.000 HD
ENDBRANCH  26  27
ENDBRANCH  19  20
ENDBRANCH  17  18
ENDBRANCH  16  17
ENDBRANCH  15  16
ENDBRANCH   1  15
TORSDOF 11
ENDMDL
MODEL 6
REMARK VINA RESULT:      -6.7      6.424      7.814
REMARK  Name = 
REMARK  11 active torsions:
REMARK  status: ('A' for Active; 'I' for Inactive)
REMARK    1  A    between atoms: O_1  and  C_2
REMARK    2  A    between atoms: C_8  and  C_9
REMARK    3  A    between atoms: N_10  and  C_11
REMARK    4  A    between atoms: C_11  and  C_12
REMARK    5  A    between atoms: C_12  and  C_13
REMARK    6  A    between atoms: C_13  and  C_14
REMARK    7  A    between atoms: C_14  and  C_15
REMARK    8  A    between atoms: C_15  and  C_16
REMARK    9  A    between atoms: C_16  and  N_17
REMARK   10  A    between atoms: C_18  and  C_19
REMARK   11  A    between atoms: C_25  and  O_26
REMARK                            x       y       z     vdW  Elec       q    Type
REMARK                         _______ _______ _______ _____ _____    ______ ____
ROOT
ATOM      1  C   UNL     1       7.149   6.115  17.477  0.00  0.00    +0.000 C 
ENDROOT
BRANCH   1   2
ATOM      2  C   UNL     1       6.171   6.956  16.662  0.00  0.00    +0.000 C 
BRANCH   2   3
ATOM      3  C   UNL     1       4.739   6.420  16.728  0.00  0.00    +0.000 C 
BRANCH   3   5
ATOM      4  C   UNL     1       2.972   6.867  18.188  0.00  0.00    +0.000 C 
ATOM      5  N   UNL     1       3.984   7.355  17.557  0.00  0.00    +0.000 NA
BRANCH   4  12
ATOM      6  C   UNL     1       1.845   7.384  20.370  0.00  0.00    +0.000 A 
ATOM      7  C   UNL     1       1.065   8.230  21.161  0.00  0.00    +0.000 A 
ATOM      8  C   UNL     1       0.589   9.434  20.633  0.00  0.00    +0.000 A 
ATOM      9  C   UNL     1       0.893   9.787  19.320  0.00  0.00    +0.000 A 
ATOM     10 CL   UNL     1       0.305  11.269  18.674  0.00  0.00    +0.000 Cl
ATOM     11  C   UNL     1       1.670   8.949  18.528  0.00  0.00    +0.000 A 
ATOM     12  C   UNL     1       2.149   7.741  19.052  0.00  0.00    +0.000 A 
BRANCH   6  13
ATOM     13  O   UNL     1       2.309   6.208  20.889  0.00  0.00    +0.000 OA
ATOM     14  H   UNL     1       2.789   5.720  20.200  0.00  0.00    +0.000 HD
ENDBRANCH   6  13
ENDBRANCH   4  12
ENDBRANCH   3   5
ENDBRANCH   2   3
ENDBRANCH   1   2
BRANCH   1  15
ATOM     15  C   UNL     1       7.956   6.993  18.439  0.00  0.00    +0.000 C 
BRANCH  15  16
ATOM     16  C   UNL     1       8.118   8.405  17.885  0.00  0.00    +0.000 C 
BRANCH  16  17
ATOM     17  C   UNL     1       8.768   9.356  18.890  0.00  0.00    +0.000 C 
BRANCH  17  18
ATOM     18  N   UNL     1       9.253  10.507  18.131  0.00  0.00    +0.000 NA
ATOM     19  C   UNL     1       9.670  11.496  18.844  0.00  0.00    +0.000 C 
BRANCH  19  20
ATOM     20  C   UNL     1      10.150  12.734  18.194  0.00  0.00    +0.000 A 
ATOM     21  C   UNL     1       9.407  13.914  18.335  0.00  0.00    +0.000 A 
ATOM     22  C   UNL     1       9.870  15.094  17.765  0.00  0.00    +0.000 A 
ATOM     23 CL   UNL     1       8.967  16.546  17.950  0.00  0.00    +0.000 Cl
ATOM     24  C   UNL     1      11.068  15.110  17.051  0.00  0.00    +0.000 A 
ATOM     25  C   UNL     1      11.807  13.934  16.898  0.00  0.00    +0.000 A 
ATOM     26  C   UNL     1      11.347  12.748  17.471  0.00  0.00    +0.000 A 
BRANCH  26  27
ATOM     27  O   UNL     1      12.076  11.600  17.330  0.00  0.00    +0.000 OA
ATOM     28  H   UNL     1      11.649  10.884  17.833  0.00  0.00    +0.000 HD
ENDBRANCH  26  27
ENDBRANCH  19  20
ENDBRANCH  17  18
ENDBRANCH  16  17
ENDBRANCH  15  16
ENDBRANCH   1  15
TORSDOF 11
ENDMDL
MODEL 7
REMARK VINA RESULT:      -6.6      2.228      7.629
REMARK  Name = 
REMARK  11 active torsions:
REMARK  status: ('A' for Active; 'I' for Inactive)
REMARK    1  A    between atoms: O_1  and  C_2
REMARK    2  A    between atoms: C_8  and  C_9
REMARK    3  A    between atoms: N_10  and  C_11
REMARK    4  A    between atoms: C_11  and  C_12
REMARK    5  A    between atoms: C_12  and  C_13
REMARK    6  A    between atoms: C_13  and  C_14
REMARK    7  A    between atoms: C_14  and  C_15
REMARK    8  A    between atoms: C_15  and  C_16
REMARK    9  A    between atoms: C_16  and  N_17
REMARK   10  A    between atoms: C_18  and  C_19
REMARK   11  A    between atoms: C_25  and  O_26
REMARK                            x       y       z     vdW  Elec       q    Type
REMARK                         _______ _______ _______ _____ _____    ______ ____
ROOT
ATOM      1  C   UNL     1       1.835   2.527  21.070  0.00  0.00    +0.000 C 
ENDROOT
BRANCH   1   2
ATOM      2  C   UNL     1       2.639   2.192  19.817  0.00  0.00    +0.000 C 
BRANCH   2   3
ATOM      3  C   UNL     1       4.147   2.160  20.078  0.00  0.00    +0.000 C 
BRANCH   3   5
ATOM      4  C   UNL     1       5.328   4.136  19.688  0.00  0.00    +0.000 C 
ATOM      5  N   UNL     1       4.748   3.118  19.153  0.00  0.00    +0.000 NA
BRANCH   4  12
ATOM      6  C   UNL     1       7.187   5.742  19.174  0.00  0.00    +0.000 A 
ATOM      7  C   UNL     1       7.763   6.705  18.343  0.00  0.00    +0.000 A 
ATOM      8  C   UNL     1       7.113   7.085  17.164  0.00  0.00    +0.000 A 
ATOM      9  C   UNL     1       5.895   6.502  16.822  0.00  0.00    +0.000 A 
ATOM     10 CL   UNL     1       5.099   6.973  15.371  0.00  0.00    +0.000 Cl
ATOM     11  C   UNL     1       5.317   5.542  17.646  0.00  0.00    +0.000 A 
ATOM     12  C   UNL     1       5.964   5.159  18.828  0.00  0.00    +0.000 A 
BRANCH   6  13
ATOM     13  O   UNL     1       7.825   5.372  20.325  0.00  0.00    +0.000 OA
ATOM     14  H   UNL     1       7.414   5.826  21.079  0.00  0.00    +0.000 HD
ENDBRANCH   6  13
ENDBRANCH   4  12
ENDBRANCH   3   5
ENDBRANCH   2   3
ENDBRANCH   1   2
BRANCH   1  15
ATOM     15  C   UNL     1       2.019   3.997  21.463  0.00  0.00    +0.000 C 
BRANCH  15  16
ATOM     16  C   UNL     1       1.406   4.922  20.416  0.00  0.00    +0.000 C 
BRANCH  16  17
ATOM     17  C   UNL     1       2.325   6.090  20.059  0.00  0.00    +0.000 C 
BRANCH  17  18
ATOM     18  N   UNL     1       1.625   7.313  20.446  0.00  0.00    +0.000 NA
ATOM     19  C   UNL     1       1.594   8.235  19.546  0.00  0.00    +0.000 C 
BRANCH  19  20
ATOM     20  C   UNL     1       0.948   9.534  19.830  0.00  0.00    +0.000 A 
ATOM     21  C   UNL     1       1.296  10.653  19.061  0.00  0.00    +0.000 A 
ATOM     22  C   UNL     1       0.665  11.870  19.289  0.00  0.00    +0.000 A 
ATOM     23 CL   UNL     1       1.081  13.241  18.338  0.00  0.00    +0.000 Cl
ATOM     24  C   UNL     1      -0.310  11.985  20.279  0.00  0.00    +0.000 A 
ATOM     25  C   UNL     1      -0.654  10.874  21.055  0.00  0.00    +0.000 A 
ATOM     26  C   UNL     1      -0.024   9.649  20.828  0.00  0.00    +0.000 A 
BRANCH  26  27
ATOM     27  O   UNL     1      -0.367   8.561  21.580  0.00  0.00    +0.000 OA
ATOM     28  H   UNL     1      -1.335   8.465  21.585  0.00  0.00    +0.000 HD
ENDBRANCH  26  27
ENDBRANCH  19  20
ENDBRANCH  17  18
ENDBRANCH  16  17
ENDBRANCH  15  16
ENDBRANCH   1  15
TORSDOF 11
ENDMDL
MODEL 8
REMARK VINA RESULT:      -6.6      2.379      2.982
REMARK  Name = 
REMARK  11 active torsions:
REMARK  status: ('A' for Active; 'I' for Inactive)
REMARK    1  A    between atoms: O_1  and  C_2
REMARK    2  A    between atoms: C_8  and  C_9
REMARK    3  A    between atoms: N_10  and  C_11
REMARK    4  A    between atoms: C_11  and  C_12
REMARK    5  A    between atoms: C_12  and  C_13
REMARK    6  A    between atoms: C_13  and  C_14
REMARK    7  A    between atoms: C_14  and  C_15
REMARK    8  A    between atoms: C_15  and  C_16
REMARK    9  A    between atoms: C_16  and  N_17
REMARK   10  A    between atoms: C_18  and  C_19
REMARK   11  A    between atoms: C_25  and  O_26
REMARK                            x       y       z     vdW  Elec       q    Type
REMARK                         _______ _______ _______ _____ _____    ______ ____
ROOT
ATOM      1  C   UNL     1       2.140   6.672  19.900  0.00  0.00    +0.000 C 
ENDROOT
BRANCH   1   2
ATOM      2  C   UNL     1       2.464   6.903  18.428  0.00  0.00    +0.000 C 
BRANCH   2   3
ATOM      3  C   UNL     1       2.630   8.387  18.089  0.00  0.00    +0.000 C 
BRANCH   3   5
ATOM      4  C   UNL     1       0.847   9.795  18.630  0.00  0.00    +0.000 C 
ATOM      5  N   UNL     1       1.291   8.901  17.814  0.00  0.00    +0.000 NA
BRANCH   4  12
ATOM      6  C   UNL     1      -1.045  11.282  19.341  0.00  0.00    +0.000 A 
ATOM      7  C   UNL     1      -2.320  11.810  19.125  0.00  0.00    +0.000 A 
ATOM      8  C   UNL     1      -3.050  11.428  17.995  0.00  0.00    +0.000 A 
ATOM      9  C   UNL     1      -2.505  10.521  17.089  0.00  0.00    +0.000 A 
ATOM     10 CL   UNL     1      -3.407  10.052  15.700  0.00  0.00    +0.000 Cl
ATOM     11  C   UNL     1      -1.235   9.992  17.298  0.00  0.00    +0.000 A 
ATOM     12  C   UNL     1      -0.500  10.373  18.429  0.00  0.00    +0.000 A 
BRANCH   6  13
ATOM     13  O   UNL     1      -0.334  11.659  20.446  0.00  0.00    +0.000 OA
ATOM     14  H   UNL     1      -0.718  11.240  21.233  0.00  0.00    +0.000 HD
ENDBRANCH   6  13
ENDBRANCH   4  12
ENDBRANCH   3   5
ENDBRANCH   2   3
ENDBRANCH   1   2
BRANCH   1  15
ATOM     15  C   UNL     1       1.534   5.280  20.116  0.00  0.00    +0.000 C 
BRANCH  15  16
ATOM     16  C   UNL     1       2.446   4.417  20.982  0.00  0.00    +0.000 C 
BRANCH  16  17
ATOM     17  C   UNL     1       2.646   3.017  20.404  0.00  0.00    +0.000 C 
BRANCH  17  18
ATOM     18  N   UNL     1       3.574   3.150  19.282  0.00  0.00    +0.000 NA
ATOM     19  C   UNL     1       4.424   4.113  19.385  0.00  0.00    +0.000 C 
BRANCH  19  20
ATOM     20  C   UNL     1       5.392   4.374  18.298  0.00  0.00    +0.000 A 
ATOM     21  C   UNL     1       4.996   4.175  16.969  0.00  0.00    +0.000 A 
ATOM     22  C   UNL     1       5.882   4.457  15.935  0.00  0.00    +0.000 A 
ATOM     23 CL   UNL     1       5.394   4.227  14.302  0.00  0.00    +0.000 Cl
ATOM     24  C   UNL     1       7.163   4.934  16.214  0.00  0.00    +0.000 A 
ATOM     25  C   UNL     1       7.565   5.125  17.539  0.00  0.00    +0.000 A 
ATOM     26  C   UNL     1       6.678   4.845  18.579  0.00  0.00    +0.000 A 
BRANCH  26  27
ATOM     27  O   UNL     1       7.068   5.041  19.875  0.00  0.00    +0.000 OA
ATOM     28  H   UNL     1       8.020   5.236  19.898  0.00  0.00    +0.000 HD
ENDBRANCH  26  27
ENDBRANCH  19  20
ENDBRANCH  17  18
ENDBRANCH  16  17
ENDBRANCH  15  16
ENDBRANCH   1  15
TORSDOF 11
ENDMDL
MODEL 9
REMARK VINA RESULT:      -6.6      1.613      8.017
REMARK  Name = 
REMARK  11 active torsions:
REMARK  status: ('A' for Active; 'I' for Inactive)
REMARK    1  A    between atoms: O_1  and  C_2
REMARK    2  A    between atoms: C_8  and  C_9
REMARK    3  A    between atoms: N_10  and  C_11
REMARK    4  A    between atoms: C_11  and  C_12
REMARK    5  A    between atoms: C_12  and  C_13
REMARK    6  A    between atoms: C_13  and  C_14
REMARK    7  A    between atoms: C_14  and  C_15
REMARK    8  A    between atoms: C_15  and  C_16
REMARK    9  A    between atoms: C_16  and  N_17
REMARK   10  A    between atoms: C_18  and  C_19
REMARK   11  A    between atoms: C_25  and  O_26
REMARK                            x       y       z     vdW  Elec       q    Type
REMARK                         _______ _______ _______ _____ _____    ______ ____
ROOT
ATOM      1  C   UNL     1       0.944   2.864  20.023  0.00  0.00    +0.000 C 
ENDROOT
BRANCH   1   2
ATOM      2  C   UNL     1       1.916   2.323  18.979  0.00  0.00    +0.000 C 
BRANCH   2   3
ATOM      3  C   UNL     1       3.374   2.400  19.438  0.00  0.00    +0.000 C 
BRANCH   3   5
ATOM      4  C   UNL     1       5.110   3.832  18.814  0.00  0.00    +0.000 C 
ATOM      5  N   UNL     1       4.092   3.152  18.412  0.00  0.00    +0.000 NA
BRANCH   4  12
ATOM      6  C   UNL     1       6.123   4.165  16.542  0.00  0.00    +0.000 A 
ATOM      7  C   UNL     1       6.872   4.935  15.649  0.00  0.00    +0.000 A 
ATOM      8  C   UNL     1       7.395   6.166  16.059  0.00  0.00    +0.000 A 
ATOM      9  C   UNL     1       7.169   6.620  17.357  0.00  0.00    +0.000 A 
ATOM     10 CL   UNL     1       7.815   8.134  17.858  0.00  0.00    +0.000 Cl
ATOM     11  C   UNL     1       6.424   5.857  18.250  0.00  0.00    +0.000 A 
ATOM     12  C   UNL     1       5.898   4.624  17.844  0.00  0.00    +0.000 A 
BRANCH   6  13
ATOM     13  O   UNL     1       5.613   2.964  16.138  0.00  0.00    +0.000 OA
ATOM     14  H   UNL     1       4.645   2.982  16.218  0.00  0.00    +0.000 HD
ENDBRANCH   6  13
ENDBRANCH   4  12
ENDBRANCH   3   5
ENDBRANCH   2   3
ENDBRANCH   1   2
BRANCH   1  15
ATOM     15  C   UNL     1       1.648   3.838  20.974  0.00  0.00    +0.000 C 
BRANCH  15  16
ATOM     16  C   UNL     1       1.330   5.285  20.608  0.00  0.00    +0.000 C 
BRANCH  16  17
ATOM     17  C   UNL     1       2.560   6.045  20.114  0.00  0.00    +0.000 C 
BRANCH  17  18
ATOM     18  N   UNL     1       2.149   7.433  19.915  0.00  0.00    +0.000 NA
ATOM     19  C   UNL     1       1.197   7.839  20.683  0.00  0.00    +0.000 C 
BRANCH  19  20
ATOM     20  C   UNL     1       0.667   9.213  20.553  0.00  0.00    +0.000 A 
ATOM     21  C   UNL     1       0.118   9.842  21.678  0.00  0.00    +0.000 A 
ATOM     22  C   UNL     1      -0.345  11.150  21.580  0.00  0.00    +0.000 A 
ATOM     23 CL   UNL     1      -1.007  11.929  22.963  0.00  0.00    +0.000 Cl
ATOM     24  C   UNL     1      -0.268  11.837  20.369  0.00  0.00    +0.000 A 
ATOM     25  C   UNL     1       0.269  11.209  19.241  0.00  0.00    +0.000 A 
ATOM     26  C   UNL     1       0.737   9.898  19.336  0.00  0.00    +0.000 A 
BRANCH  26  27
ATOM     27  O   UNL     1       1.272   9.287  18.236  0.00  0.00    +0.000 OA
ATOM     28  H   UNL     1       0.558   8.882  17.714  0.00  0.00    +0.000 HD
ENDBRANCH  26  27
ENDBRANCH  19  20
ENDBRANCH  17  18
ENDBRANCH  16  17
ENDBRANCH  15  16
ENDBRANCH   1  15
TORSDOF 11
ENDMDL
