MODEL 1
REMARK VINA RESULT:      -6.5      0.000      0.000
REMARK  Name = 
REMARK  13 active torsions:
REMARK  status: ('A' for Active; 'I' for Inactive)
REMARK    1  A    between atoms: C_1  and  O_2
REMARK    2  A    between atoms: O_2  and  C_3
REMARK    3  A    between atoms: C_5  and  C_6
REMARK    4  A    between atoms: C_7  and  C_8
REMARK    5  A    between atoms: C_8  and  O_10
REMARK    6  A    between atoms: C_12  and  S_13
REMARK    7  A    between atoms: S_13  and  N_16
REMARK    8  A    between atoms: N_16  and  C_17
REMARK    9  A    between atoms: C_17  and  C_18
REMARK   10  A    between atoms: C_18  and  C_19
REMARK   11  A    between atoms: C_19  and  O_20
REMARK   12  A    between atoms: C_21  and  O_22
REMARK   13  A    between atoms: O_22  and  C_23
REMARK                            x       y       z     vdW  Elec       q    Type
REMARK                         _______ _______ _______ _____ _____    ______ ____
ROOT
ATOM      1  C   UNL     1       2.493   4.806  18.753  0.00  0.00    +0.000 A 
ATOM      2  C   UNL     1       2.078   6.149  18.653  0.00  0.00    +0.000 A 
ATOM      3  C   UNL     1       2.935   7.133  18.159  0.00  0.00    +0.000 A 
ATOM      4  C   UNL     1       4.263   6.792  17.912  0.00  0.00    +0.000 A 
ATOM      5  C   UNL     1       4.702   5.466  18.054  0.00  0.00    +0.000 A 
ATOM      6  C   UNL     1       3.831   4.451  18.486  0.00  0.00    +0.000 A 
ENDROOT
BRANCH   5   7
ATOM      7  S   UNL     1       6.339   5.113  17.459  0.00  0.00    +0.000 S 
ATOM      8  O   UNL     1       6.834   6.269  16.749  0.00  0.00    +0.000 OA
ATOM      9  O   UNL     1       7.110   4.550  18.551  0.00  0.00    +0.000 OA
BRANCH   7  10
ATOM     10  N   UNL     1       6.134   3.889  16.321  0.00  0.00    +0.000 NA
ATOM     11  H   UNL     1       5.912   3.013  16.794  0.00  0.00    +0.000 HD
BRANCH  10  12
ATOM     12  C   UNL     1       5.431   4.207  15.074  0.00  0.00    +0.000 C 
BRANCH  12  13
ATOM     13  C   UNL     1       6.266   3.765  13.877  0.00  0.00    +0.000 C 
BRANCH  13  14
ATOM     14  C   UNL     1       7.089   4.897  13.280  0.00  0.00    +0.000 C 
BRANCH  14  15
ATOM     15  O   UNL     1       7.962   5.424  14.272  0.00  0.00    +0.000 OA
ATOM     16  H   UNL     1       8.858   5.442  13.894  0.00  0.00    +0.000 HD
ENDBRANCH  14  15
ENDBRANCH  13  14
ENDBRANCH  12  13
ENDBRANCH  10  12
ENDBRANCH   7  10
ENDBRANCH   5   7
BRANCH   1  18
ATOM     17  C   UNL     1       1.043   3.915  20.407  0.00  0.00    +0.000 C 
ATOM     18  O   UNL     1       1.581   3.833  19.082  0.00  0.00    +0.000 OA
ENDBRANCH   1  18
BRANCH   3  19
ATOM     19  C   UNL     1       2.396   8.461  17.824  0.00  0.00    +0.000 C 
ATOM     20  C   UNL     1       1.590   9.140  18.660  0.00  0.00    +0.000 C 
BRANCH  20  21
ATOM     21  C   UNL     1       1.175  10.518  18.344  0.00  0.00    +0.000 C 
ATOM     22  O   UNL     1       1.892  11.495  18.442  0.00  0.00    +0.000 OA
BRANCH  21  23
ATOM     23  O   UNL     1      -0.113  10.574  17.947  0.00  0.00    +0.000 OA
ATOM     24  H   UNL     1      -0.723   9.951  18.382  0.00  0.00    +0.000 HD
ENDBRANCH  21  23
ENDBRANCH  20  21
ENDBRANCH   3  19
BRANCH   6  25
ATOM     25  O   UNL     1       4.377   3.200  18.552  0.00  0.00    +0.000 OA
ATOM     26  C   UNL     1       4.492   2.540  19.803  0.00  0.00    +0.000 C 
ENDBRANCH   6  25
TORSDOF 11
ENDMDL
MODEL 2
REMARK VINA RESULT:      -6.5      1.070      1.247
REMARK  Name = 
REMARK  13 active torsions:
REMARK  status: ('A' for Active; 'I' for Inactive)
REMARK    1  A    between atoms: C_1  and  O_2
REMARK    2  A    between atoms: O_2  and  C_3
REMARK    3  A    between atoms: C_5  and  C_6
REMARK    4  A    between atoms: C_7  and  C_8
REMARK    5  A    between atoms: C_8  and  O_10
REMARK    6  A    between atoms: C_12  and  S_13
REMARK    7  A    between atoms: S_13  and  N_16
REMARK    8  A    between atoms: N_16  and  C_17
REMARK    9  A    between atoms: C_17  and  C_18
REMARK   10  A    between atoms: C_18  and  C_19
REMARK   11  A    between atoms: C_19  and  O_20
REMARK   12  A    between atoms: C_21  and  O_22
REMARK   13  A    between atoms: O_22  and  C_23
REMARK                            x       y       z     vdW  Elec       q    Type
REMARK                         _______ _______ _______ _____ _____    ______ ____
ROOT
ATOM      1  C   UNL     1       2.484   4.829  18.533  0.00  0.00    +0.000 A 
ATOM      2  C   UNL     1       2.126   6.192  18.511  0.00  0.00    +0.000 A 
ATOM      3  C   UNL     1       3.017   7.165  18.056  0.00  0.00    +0.000 A 
ATOM      4  C   UNL     1       4.326   6.780  17.769  0.00  0.00    +0.000 A 
ATOM      5  C   UNL     1       4.709   5.432  17.833  0.00  0.00    +0.000 A 
ATOM      6  C   UNL     1       3.802   4.433  18.225  0.00  0.00    +0.000 A 
ENDROOT
BRANCH   5   7
ATOM      7  S   UNL     1       6.320   5.042  17.192  0.00  0.00    +0.000 S 
ATOM      8  O   UNL     1       6.831   6.195  16.488  0.00  0.00    +0.000 OA
ATOM      9  O   UNL     1       7.101   4.442  18.257  0.00  0.00    +0.000 OA
BRANCH   7  10
ATOM     10  N   UNL     1       6.053   3.842  16.042  0.00  0.00    +0.000 NA
ATOM     11  H   UNL     1       5.081   3.535  16.085  0.00  0.00    +0.000 HD
BRANCH  10  12
ATOM     12  C   UNL     1       6.683   3.985  14.727  0.00  0.00    +0.000 C 
BRANCH  12  13
ATOM     13  C   UNL     1       5.639   3.827  13.627  0.00  0.00    +0.000 C 
BRANCH  13  14
ATOM     14  C   UNL     1       6.249   3.477  12.278  0.00  0.00    +0.000 C 
BRANCH  14  15
ATOM     15  O   UNL     1       6.078   2.087  12.025  0.00  0.00    +0.000 OA
ATOM     16  H   UNL     1       5.275   1.984  11.485  0.00  0.00    +0.000 HD
ENDBRANCH  14  15
ENDBRANCH  13  14
ENDBRANCH  12  13
ENDBRANCH  10  12
ENDBRANCH   7  10
ENDBRANCH   5   7
BRANCH   1  18
ATOM     17  C   UNL     1       1.017   3.917  20.159  0.00  0.00    +0.000 C 
ATOM     18  O   UNL     1       1.536   3.880  18.826  0.00  0.00    +0.000 OA
ENDBRANCH   1  18
BRANCH   3  19
ATOM     19  C   UNL     1       2.532   8.530  17.801  0.00  0.00    +0.000 C 
ATOM     20  C   UNL     1       1.597   9.114  18.571  0.00  0.00    +0.000 C 
BRANCH  20  21
ATOM     21  C   UNL     1       1.230  10.526  18.361  0.00  0.00    +0.000 C 
ATOM     22  O   UNL     1       0.172  11.021  18.697  0.00  0.00    +0.000 OA
BRANCH  21  23
ATOM     23  O   UNL     1       2.206  11.208  17.726  0.00  0.00    +0.000 OA
ATOM     24  H   UNL     1       3.120  10.975  17.971  0.00  0.00    +0.000 HD
ENDBRANCH  21  23
ENDBRANCH  20  21
ENDBRANCH   3  19
BRANCH   6  25
ATOM     25  O   UNL     1       4.294   3.158  18.215  0.00  0.00    +0.000 OA
ATOM     26  C   UNL     1       4.424   2.438  19.431  0.00  0.00    +0.000 C 
ENDBRANCH   6  25
TORSDOF 11
ENDMDL
MODEL 3
REMARK VINA RESULT:      -6.4      1.027      1.149
REMARK  Name = 
REMARK  13 active torsions:
REMARK  status: ('A' for Active; 'I' for Inactive)
REMARK    1  A    between atoms: C_1  and  O_2
REMARK    2  A    between atoms: O_2  and  C_3
REMARK    3  A    between atoms: C_5  and  C_6
REMARK    4  A    between atoms: C_7  and  C_8
REMARK    5  A    between atoms: C_8  and  O_10
REMARK    6  A    between atoms: C_12  and  S_13
REMARK    7  A    between atoms: S_13  and  N_16
REMARK    8  A    between atoms: N_16  and  C_17
REMARK    9  A    between atoms: C_17  and  C_18
REMARK   10  A    between atoms: C_18  and  C_19
REMARK   11  A    between atoms: C_19  and  O_20
REMARK   12  A    between atoms: C_21  and  O_22
REMARK   13  A    between atoms: O_22  and  C_23
REMARK                            x       y       z     vdW  Elec       q    Type
REMARK                         _______ _______ _______ _____ _____    ______ ____
ROOT
ATOM      1  C   UNL     1       2.532   4.655  18.325  0.00  0.00    +0.000 A 
ATOM      2  C   UNL     1       2.023   5.965  18.227  0.00  0.00    +0.000 A 
ATOM      3  C   UNL     1       2.875   7.069  18.187  0.00  0.00    +0.000 A 
ATOM      4  C   UNL     1       4.236   6.863  18.404  0.00  0.00    +0.000 A 
ATOM      5  C   UNL     1       4.751   5.566  18.551  0.00  0.00    +0.000 A 
ATOM      6  C   UNL     1       3.912   4.440  18.525  0.00  0.00    +0.000 A 
ENDROOT
BRANCH   5   7
ATOM      7  S   UNL     1       6.523   5.420  18.556  0.00  0.00    +0.000 S 
ATOM      8  O   UNL     1       7.088   6.621  17.987  0.00  0.00    +0.000 OA
ATOM      9  O   UNL     1       6.940   4.978  19.873  0.00  0.00    +0.000 OA
BRANCH   7  10
ATOM     10  N   UNL     1       6.859   4.165  17.486  0.00  0.00    +0.000 NA
ATOM     11  H   UNL     1       6.129   3.455  17.548  0.00  0.00    +0.000 HD
BRANCH  10  12
ATOM     12  C   UNL     1       7.398   4.500  16.165  0.00  0.00    +0.000 C 
BRANCH  12  13
ATOM     13  C   UNL     1       6.395   4.123  15.081  0.00  0.00    +0.000 C 
BRANCH  13  14
ATOM     14  C   UNL     1       5.262   5.130  14.947  0.00  0.00    +0.000 C 
BRANCH  14  15
ATOM     15  O   UNL     1       5.741   6.430  15.274  0.00  0.00    +0.000 OA
ATOM     16  H   UNL     1       6.690   6.455  15.059  0.00  0.00    +0.000 HD
ENDBRANCH  14  15
ENDBRANCH  13  14
ENDBRANCH  12  13
ENDBRANCH  10  12
ENDBRANCH   7  10
ENDBRANCH   5   7
BRANCH   1  18
ATOM     17  C   UNL     1       0.969   3.214  19.378  0.00  0.00    +0.000 C 
ATOM     18  O   UNL     1       1.686   3.582  18.195  0.00  0.00    +0.000 OA
ENDBRANCH   1  18
BRANCH   3  19
ATOM     19  C   UNL     1       2.335   8.389  17.824  0.00  0.00    +0.000 C 
ATOM     20  C   UNL     1       1.473   9.053  18.615  0.00  0.00    +0.000 C 
BRANCH  20  21
ATOM     21  C   UNL     1       1.054  10.425  18.279  0.00  0.00    +0.000 C 
ATOM     22  O   UNL     1       1.761  11.408  18.383  0.00  0.00    +0.000 OA
BRANCH  21  23
ATOM     23  O   UNL     1      -0.226  10.467  17.856  0.00  0.00    +0.000 OA
ATOM     24  H   UNL     1      -0.568   9.655  17.439  0.00  0.00    +0.000 HD
ENDBRANCH  21  23
ENDBRANCH  20  21
ENDBRANCH   3  19
BRANCH   6  25
ATOM     25  O   UNL     1       4.544   3.234  18.650  0.00  0.00    +0.000 OA
ATOM     26  C   UNL     1       4.450   2.504  19.863  0.00  0.00    +0.000 C 
ENDBRANCH   6  25
TORSDOF 11
ENDMDL
MODEL 4
REMARK VINA RESULT:      -6.4      1.150      1.220
REMARK  Name = 
REMARK  13 active torsions:
REMARK  status: ('A' for Active; 'I' for Inactive)
REMARK    1  A    between atoms: C_1  and  O_2
REMARK    2  A    between atoms: O_2  and  C_3
REMARK    3  A    between atoms: C_5  and  C_6
REMARK    4  A    between atoms: C_7  and  C_8
REMARK    5  A    between atoms: C_8  and  O_10
REMARK    6  A    between atoms: C_12  and  S_13
REMARK    7  A    between atoms: S_13  and  N_16
REMARK    8  A    between atoms: N_16  and  C_17
REMARK    9  A    between atoms: C_17  and  C_18
REMARK   10  A    between atoms: C_18  and  C_19
REMARK   11  A    between atoms: C_19  and  O_20
REMARK   12  A    between atoms: C_21  and  O_22
REMARK   13  A    between atoms: O_22  and  C_23
REMARK                            x       y       z     vdW  Elec       q    Type
REMARK                         _______ _______ _______ _____ _____    ______ ____
ROOT
ATOM      1  C   UNL     1       2.243   4.140  19.912  0.00  0.00    +0.000 A 
ATOM      2  C   UNL     1       1.708   5.426  20.122  0.00  0.00    +0.000 A 
ATOM      3  C   UNL     1       2.407   6.570  19.735  0.00  0.00    +0.000 A 
ATOM      4  C   UNL     1       3.715   6.423  19.279  0.00  0.00    +0.000 A 
ATOM      5  C   UNL     1       4.278   5.149  19.110  0.00  0.00    +0.000 A 
ATOM      6  C   UNL     1       3.560   3.985  19.431  0.00  0.00    +0.000 A 
ENDROOT
BRANCH   5   7
ATOM      7  S   UNL     1       5.847   5.088  18.276  0.00  0.00    +0.000 S 
ATOM      8  O   UNL     1       6.043   6.329  17.565  0.00  0.00    +0.000 OA
ATOM      9  O   UNL     1       6.848   4.630  19.221  0.00  0.00    +0.000 OA
BRANCH   7  10
ATOM     10  N   UNL     1       5.677   3.879  17.116  0.00  0.00    +0.000 NA
ATOM     11  H   UNL     1       5.382   3.011  17.565  0.00  0.00    +0.000 HD
BRANCH  10  12
ATOM     12  C   UNL     1       5.085   4.233  15.823  0.00  0.00    +0.000 C 
BRANCH  12  13
ATOM     13  C   UNL     1       6.010   3.799  14.690  0.00  0.00    +0.000 C 
BRANCH  13  14
ATOM     14  C   UNL     1       6.877   4.935  14.167  0.00  0.00    +0.000 C 
BRANCH  14  15
ATOM     15  O   UNL     1       7.666   5.458  15.230  0.00  0.00    +0.000 OA
ATOM     16  H   UNL     1       8.414   4.850  15.366  0.00  0.00    +0.000 HD
ENDBRANCH  14  15
ENDBRANCH  13  14
ENDBRANCH  12  13
ENDBRANCH  10  12
ENDBRANCH   7  10
ENDBRANCH   5   7
BRANCH   1  18
ATOM     17  C   UNL     1       0.807   2.486  18.999  0.00  0.00    +0.000 C 
ATOM     18  O   UNL     1       1.467   3.031  20.147  0.00  0.00    +0.000 OA
ENDBRANCH   1  18
BRANCH   3  19
ATOM     19  C   UNL     1       1.720   7.871  19.728  0.00  0.00    +0.000 C 
ATOM     20  C   UNL     1       1.797   8.717  18.685  0.00  0.00    +0.000 C 
BRANCH  20  21
ATOM     21  C   UNL     1       0.993   9.952  18.663  0.00  0.00    +0.000 C 
ATOM     22  O   UNL     1       1.080  10.846  19.481  0.00  0.00    +0.000 OA
BRANCH  21  23
ATOM     23  O   UNL     1       0.127   9.967  17.629  0.00  0.00    +0.000 OA
ATOM     24  H   UNL     1       0.481   9.677  16.768  0.00  0.00    +0.000 HD
ENDBRANCH  21  23
ENDBRANCH  20  21
ENDBRANCH   3  19
BRANCH   6  25
ATOM     25  O   UNL     1       4.212   2.808  19.191  0.00  0.00    +0.000 OA
ATOM     26  C   UNL     1       4.668   2.014  20.275  0.00  0.00    +0.000 C 
ENDBRANCH   6  25
TORSDOF 11
ENDMDL
MODEL 5
REMARK VINA RESULT:      -6.3      3.719      6.952
REMARK  Name = 
REMARK  13 active torsions:
REMARK  status: ('A' for Active; 'I' for Inactive)
REMARK    1  A    between atoms: C_1  and  O_2
REMARK    2  A    between atoms: O_2  and  C_3
REMARK    3  A    between atoms: C_5  and  C_6
REMARK    4  A    between atoms: C_7  and  C_8
REMARK    5  A    between atoms: C_8  and  O_10
REMARK    6  A    between atoms: C_12  and  S_13
REMARK    7  A    between atoms: S_13  and  N_16
REMARK    8  A    between atoms: N_16  and  C_17
REMARK    9  A    between atoms: C_17  and  C_18
REMARK   10  A    between atoms: C_18  and  C_19
REMARK   11  A    between atoms: C_19  and  O_20
REMARK   12  A    between atoms: C_21  and  O_22
REMARK   13  A    between atoms: O_22  and  C_23
REMARK                            x       y       z     vdW  Elec       q    Type
REMARK                         _______ _______ _______ _____ _____    ______ ____
ROOT
ATOM      1  C   UNL     1       7.139   5.871  17.123  0.00  0.00    +0.000 A 
ATOM      2  C   UNL     1       6.859   5.403  15.823  0.00  0.00    +0.000 A 
ATOM      3  C   UNL     1       5.820   4.501  15.589  0.00  0.00    +0.000 A 
ATOM      4  C   UNL     1       5.162   3.951  16.687  0.00  0.00    +0.000 A 
ATOM      5  C   UNL     1       5.464   4.373  17.991  0.00  0.00    +0.000 A 
ATOM      6  C   UNL     1       6.462   5.331  18.235  0.00  0.00    +0.000 A 
ENDROOT
BRANCH   5   7
ATOM      7  S   UNL     1       4.379   3.793  19.274  0.00  0.00    +0.000 S 
ATOM      8  O   UNL     1       5.051   2.750  20.014  0.00  0.00    +0.000 OA
ATOM      9  O   UNL     1       3.845   4.946  19.974  0.00  0.00    +0.000 OA
BRANCH   7  10
ATOM     10  N   UNL     1       3.093   3.070  18.464  0.00  0.00    +0.000 NA
ATOM     11  H   UNL     1       3.357   2.885  17.496  0.00  0.00    +0.000 HD
BRANCH  10  12
ATOM     12  C   UNL     1       2.297   2.066  19.176  0.00  0.00    +0.000 C 
BRANCH  12  13
ATOM     13  C   UNL     1       1.090   2.726  19.833  0.00  0.00    +0.000 C 
BRANCH  13  14
ATOM     14  C   UNL     1       1.281   2.954  21.326  0.00  0.00    +0.000 C 
BRANCH  14  15
ATOM     15  O   UNL     1       2.574   2.501  21.714  0.00  0.00    +0.000 OA
ATOM     16  H   UNL     1       2.975   3.196  22.264  0.00  0.00    +0.000 HD
ENDBRANCH  14  15
ENDBRANCH  13  14
ENDBRANCH  12  13
ENDBRANCH  10  12
ENDBRANCH   7  10
ENDBRANCH   5   7
BRANCH   1  18
ATOM     17  C   UNL     1       7.499   8.181  17.528  0.00  0.00    +0.000 C 
ATOM     18  O   UNL     1       8.052   6.880  17.303  0.00  0.00    +0.000 OA
ENDBRANCH   1  18
BRANCH   3  19
ATOM     19  C   UNL     1       5.389   4.236  14.208  0.00  0.00    +0.000 C 
ATOM     20  C   UNL     1       6.039   3.374  13.406  0.00  0.00    +0.000 C 
BRANCH  20  21
ATOM     21  C   UNL     1       5.503   3.040  12.075  0.00  0.00    +0.000 C 
ATOM     22  O   UNL     1       4.536   3.573  11.567  0.00  0.00    +0.000 OA
BRANCH  21  23
ATOM     23  O   UNL     1       6.206   2.050  11.486  0.00  0.00    +0.000 OA
ATOM     24  H   UNL     1       6.457   2.197  10.556  0.00  0.00    +0.000 HD
ENDBRANCH  21  23
ENDBRANCH  20  21
ENDBRANCH   3  19
BRANCH   6  25
ATOM     25  O   UNL     1       6.635   5.676  19.547  0.00  0.00    +0.000 OA
ATOM     26  C   UNL     1       7.886   5.457  20.180  0.00  0.00    +0.000 C 
ENDBRANCH   6  25
TORSDOF 11
ENDMDL
MODEL 6
REMARK VINA RESULT:      -6.2      2.076      4.896
REMARK  Name = 
REMARK  13 active torsions:
REMARK  status: ('A' for Active; 'I' for Inactive)
REMARK    1  A    between atoms: C_1  and  O_2
REMARK    2  A    between atoms: O_2  and  C_3
REMARK    3  A    between atoms: C_5  and  C_6
REMARK    4  A    between atoms: C_7  and  C_8
REMARK    5  A    between atoms: C_8  and  O_10
REMARK    6  A    between atoms: C_12  and  S_13
REMARK    7  A    between atoms: S_13  and  N_16
REMARK    8  A    between atoms: N_16  and  C_17
REMARK    9  A    between atoms: C_17  and  C_18
REMARK   10  A    between atoms: C_18  and  C_19
REMARK   11  A    between atoms: C_19  and  O_20
REMARK   12  A    between atoms: C_21  and  O_22
REMARK   13  A    between atoms: O_22  and  C_23
REMARK                            x       y       z     vdW  Elec       q    Type
REMARK                         _______ _______ _______ _____ _____    ______ ____
ROOT
ATOM      1  C   UNL     1       5.073   6.469  16.955  0.00  0.00    +0.000 A 
ATOM      2  C   UNL     1       4.177   7.484  17.345  0.00  0.00    +0.000 A 
ATOM      3  C   UNL     1       2.956   7.177  17.945  0.00  0.00    +0.000 A 
ATOM      4  C   UNL     1       2.569   5.840  18.010  0.00  0.00    +0.000 A 
ATOM      5  C   UNL     1       3.433   4.821  17.581  0.00  0.00    +0.000 A 
ATOM      6  C   UNL     1       4.694   5.114  17.038  0.00  0.00    +0.000 A 
ENDROOT
BRANCH   5   7
ATOM      7  S   UNL     1       2.934   3.157  17.960  0.00  0.00    +0.000 S 
ATOM      8  O   UNL     1       2.491   2.517  16.743  0.00  0.00    +0.000 OA
ATOM      9  O   UNL     1       3.973   2.541  18.763  0.00  0.00    +0.000 OA
BRANCH   7  10
ATOM     10  N   UNL     1       1.581   3.322  18.948  0.00  0.00    +0.000 NA
ATOM     11  H   UNL     1       0.806   3.710  18.409  0.00  0.00    +0.000 HD
BRANCH  10  12
ATOM     12  C   UNL     1       1.295   2.264  19.921  0.00  0.00    +0.000 C 
BRANCH  12  13
ATOM     13  C   UNL     1       1.226   2.851  21.326  0.00  0.00    +0.000 C 
BRANCH  13  14
ATOM     14  C   UNL     1       2.467   3.651  21.695  0.00  0.00    +0.000 C 
BRANCH  14  15
ATOM     15  O   UNL     1       2.274   5.015  21.339  0.00  0.00    +0.000 OA
ATOM     16  H   UNL     1       3.153   5.425  21.262  0.00  0.00    +0.000 HD
ENDBRANCH  14  15
ENDBRANCH  13  14
ENDBRANCH  12  13
ENDBRANCH  10  12
ENDBRANCH   7  10
ENDBRANCH   5   7
BRANCH   1  18
ATOM     17  C   UNL     1       7.313   6.979  17.552  0.00  0.00    +0.000 C 
ATOM     18  O   UNL     1       6.334   6.801  16.523  0.00  0.00    +0.000 OA
ENDBRANCH   1  18
BRANCH   3  19
ATOM     19  C   UNL     1       2.166   8.248  18.572  0.00  0.00    +0.000 C 
ATOM     20  C   UNL     1       1.528   9.186  17.849  0.00  0.00    +0.000 C 
BRANCH  20  21
ATOM     21  C   UNL     1       0.645  10.165  18.507  0.00  0.00    +0.000 C 
ATOM     22  O   UNL     1       0.847  10.648  19.604  0.00  0.00    +0.000 OA
BRANCH  21  23
ATOM     23  O   UNL     1      -0.435  10.452  17.751  0.00  0.00    +0.000 OA
ATOM     24  H   UNL     1      -0.475  10.020  16.879  0.00  0.00    +0.000 HD
ENDBRANCH  21  23
ENDBRANCH  20  21
ENDBRANCH   3  19
BRANCH   6  25
ATOM     25  O   UNL     1       5.449   4.029  16.688  0.00  0.00    +0.000 OA
ATOM     26  C   UNL     1       5.802   3.817  15.329  0.00  0.00    +0.000 C 
ENDBRANCH   6  25
TORSDOF 11
ENDMDL
MODEL 7
REMARK VINA RESULT:      -6.2      1.905      2.440
REMARK  Name = 
REMARK  13 active torsions:
REMARK  status: ('A' for Active; 'I' for Inactive)
REMARK    1  A    between atoms: C_1  and  O_2
REMARK    2  A    between atoms: O_2  and  C_3
REMARK    3  A    between atoms: C_5  and  C_6
REMARK    4  A    between atoms: C_7  and  C_8
REMARK    5  A    between atoms: C_8  and  O_10
REMARK    6  A    between atoms: C_12  and  S_13
REMARK    7  A    between atoms: S_13  and  N_16
REMARK    8  A    between atoms: N_16  and  C_17
REMARK    9  A    between atoms: C_17  and  C_18
REMARK   10  A    between atoms: C_18  and  C_19
REMARK   11  A    between atoms: C_19  and  O_20
REMARK   12  A    between atoms: C_21  and  O_22
REMARK   13  A    between atoms: O_22  and  C_23
REMARK                            x       y       z     vdW  Elec       q    Type
REMARK                         _______ _______ _______ _____ _____    ______ ____
ROOT
ATOM      1  C   UNL     1       2.493   4.612  20.348  0.00  0.00    +0.000 A 
ATOM      2  C   UNL     1       2.117   5.970  20.394  0.00  0.00    +0.000 A 
ATOM      3  C   UNL     1       2.517   6.864  19.400  0.00  0.00    +0.000 A 
ATOM      4  C   UNL     1       3.428   6.423  18.443  0.00  0.00    +0.000 A 
ATOM      5  C   UNL     1       3.849   5.085  18.414  0.00  0.00    +0.000 A 
ATOM      6  C   UNL     1       3.399   4.157  19.368  0.00  0.00    +0.000 A 
ENDROOT
BRANCH   5   7
ATOM      7  S   UNL     1       4.798   4.590  16.994  0.00  0.00    +0.000 S 
ATOM      8  O   UNL     1       4.106   3.513  16.326  0.00  0.00    +0.000 OA
ATOM      9  O   UNL     1       5.165   5.783  16.253  0.00  0.00    +0.000 OA
BRANCH   7  10
ATOM     10  N   UNL     1       6.220   3.945  17.623  0.00  0.00    +0.000 NA
ATOM     11  H   UNL     1       6.234   2.935  17.475  0.00  0.00    +0.000 HD
BRANCH  10  12
ATOM     12  C   UNL     1       7.465   4.695  17.443  0.00  0.00    +0.000 C 
BRANCH  12  13
ATOM     13  C   UNL     1       7.655   5.676  18.595  0.00  0.00    +0.000 C 
BRANCH  13  14
ATOM     14  C   UNL     1       7.813   7.115  18.127  0.00  0.00    +0.000 C 
BRANCH  14  15
ATOM     15  O   UNL     1       7.743   7.162  16.707  0.00  0.00    +0.000 OA
ATOM     16  H   UNL     1       8.251   6.408  16.362  0.00  0.00    +0.000 HD
ENDBRANCH  14  15
ENDBRANCH  13  14
ENDBRANCH  12  13
ENDBRANCH  10  12
ENDBRANCH   7  10
ENDBRANCH   5   7
BRANCH   1  18
ATOM     17  C   UNL     1       0.877   2.919  20.738  0.00  0.00    +0.000 C 
ATOM     18  O   UNL     1       1.950   3.723  21.241  0.00  0.00    +0.000 OA
ENDBRANCH   1  18
BRANCH   3  19
ATOM     19  C   UNL     1       1.901   8.198  19.335  0.00  0.00    +0.000 C 
ATOM     20  C   UNL     1       1.783   8.878  18.181  0.00  0.00    +0.000 C 
BRANCH  20  21
ATOM     21  C   UNL     1       1.048  10.154  18.136  0.00  0.00    +0.000 C 
ATOM     22  O   UNL     1      -0.151  10.266  18.305  0.00  0.00    +0.000 OA
BRANCH  21  23
ATOM     23  O   UNL     1       1.864  11.193  17.862  0.00  0.00    +0.000 OA
ATOM     24  H   UNL     1       1.438  11.986  17.490  0.00  0.00    +0.000 HD
ENDBRANCH  21  23
ENDBRANCH  20  21
ENDBRANCH   3  19
BRANCH   6  25
ATOM     25  O   UNL     1       3.861   2.881  19.208  0.00  0.00    +0.000 OA
ATOM     26  C   UNL     1       4.558   2.239  20.265  0.00  0.00    +0.000 C 
ENDBRANCH   6  25
TORSDOF 11
ENDMDL
MODEL 8
REMARK VINA RESULT:      -6.2      3.485      7.077
REMARK  Name = 
REMARK  13 active torsions:
REMARK  status: ('A' for Active; 'I' for Inactive)
REMARK    1  A    between atoms: C_1  and  O_2
REMARK    2  A    between atoms: O_2  and  C_3
REMARK    3  A    between atoms: C_5  and  C_6
REMARK    4  A    between atoms: C_7  and  C_8
REMARK    5  A    between atoms: C_8  and  O_10
REMARK    6  A    between atoms: C_12  and  S_13
REMARK    7  A    between atoms: S_13  and  N_16
REMARK    8  A    between atoms: N_16  and  C_17
REMARK    9  A    between atoms: C_17  and  C_18
REMARK   10  A    between atoms: C_18  and  C_19
REMARK   11  A    between atoms: C_19  and  O_20
REMARK   12  A    between atoms: C_21  and  O_22
REMARK   13  A    between atoms: O_22  and  C_23
REMARK                            x       y       z     vdW  Elec       q    Type
REMARK                         _______ _______ _______ _____ _____    ______ ____
ROOT
ATOM      1  C   UNL     1       7.044   5.782  16.866  0.00  0.00    +0.000 A 
ATOM      2  C   UNL     1       6.844   5.304  15.556  0.00  0.00    +0.000 A 
ATOM      3  C   UNL     1       5.857   4.359  15.275  0.00  0.00    +0.000 A 
ATOM      4  C   UNL     1       5.174   3.780  16.342  0.00  0.00    +0.000 A 
ATOM      5  C   UNL     1       5.397   4.212  17.658  0.00  0.00    +0.000 A 
ATOM      6  C   UNL     1       6.340   5.212  17.948  0.00  0.00    +0.000 A 
ENDROOT
BRANCH   5   7
ATOM      7  S   UNL     1       4.280   3.586  18.891  0.00  0.00    +0.000 S 
ATOM      8  O   UNL     1       3.140   2.996  18.227  0.00  0.00    +0.000 OA
ATOM      9  O   UNL     1       5.045   2.805  19.844  0.00  0.00    +0.000 OA
BRANCH   7  10
ATOM     10  N   UNL     1       3.722   4.949  19.706  0.00  0.00    +0.000 NA
ATOM     11  H   UNL     1       4.087   5.790  19.259  0.00  0.00    +0.000 HD
BRANCH  10  12
ATOM     12  C   UNL     1       2.336   4.956  20.184  0.00  0.00    +0.000 C 
BRANCH  12  13
ATOM     13  C   UNL     1       2.224   4.149  21.473  0.00  0.00    +0.000 C 
BRANCH  13  14
ATOM     14  C   UNL     1       1.314   2.938  21.335  0.00  0.00    +0.000 C 
BRANCH  14  15
ATOM     15  O   UNL     1       0.588   3.026  20.114  0.00  0.00    +0.000 OA
ATOM     16  H   UNL     1      -0.337   2.797  20.305  0.00  0.00    +0.000 HD
ENDBRANCH  14  15
ENDBRANCH  13  14
ENDBRANCH  12  13
ENDBRANCH  10  12
ENDBRANCH   7  10
ENDBRANCH   5   7
BRANCH   1  18
ATOM     17  C   UNL     1       7.285   8.092  17.350  0.00  0.00    +0.000 C 
ATOM     18  O   UNL     1       7.905   6.828  17.088  0.00  0.00    +0.000 OA
ENDBRANCH   1  18
BRANCH   3  19
ATOM     19  C   UNL     1       5.501   4.077  13.875  0.00  0.00    +0.000 C 
ATOM     20  C   UNL     1       6.062   3.071  13.182  0.00  0.00    +0.000 C 
BRANCH  20  21
ATOM     21  C   UNL     1       5.588   2.742  11.826  0.00  0.00    +0.000 C 
ATOM     22  O   UNL     1       6.096   1.909  11.100  0.00  0.00    +0.000 OA
BRANCH  21  23
ATOM     23  O   UNL     1       4.526   3.495  11.470  0.00  0.00    +0.000 OA
ATOM     24  H   UNL     1       3.652   3.154  11.733  0.00  0.00    +0.000 HD
ENDBRANCH  21  23
ENDBRANCH  20  21
ENDBRANCH   3  19
BRANCH   6  25
ATOM     25  O   UNL     1       6.438   5.562  19.265  0.00  0.00    +0.000 OA
ATOM     26  C   UNL     1       7.670   5.410  19.952  0.00  0.00    +0.000 C 
ENDBRANCH   6  25
TORSDOF 11
ENDMDL
MODEL 9
REMARK VINA RESULT:      -6.2      2.135      2.875
REMARK  Name = 
REMARK  13 active torsions:
REMARK  status: ('A' for Active; 'I' for Inactive)
REMARK    1  A    between atoms: C_1  and  O_2
REMARK    2  A    between atoms: O_2  and  C_3
REMARK    3  A    between atoms: C_5  and  C_6
REMARK    4  A    between atoms: C_7  and  C_8
REMARK    5  A    between atoms: C_8  and  O_10
REMARK    6  A    between atoms: C_12  and  S_13
REMARK    7  A    between atoms: S_13  and  N_16
REMARK    8  A    between atoms: N_16  and  C_17
REMARK    9  A    between atoms: C_17  and  C_18
REMARK   10  A    between atoms: C_18  and  C_19
REMARK   11  A    between atoms: C_19  and  O_20
REMARK   12  A    between atoms: C_21  and  O_22
REMARK   13  A    between atoms: O_22  and  C_23
REMARK                            x       y       z     vdW  Elec       q    Type
REMARK                         _______ _______ _______ _____ _____    ______ ____
ROOT
ATOM      1  C   UNL     1       3.018   5.762  19.621  0.00  0.00    +0.000 A 
ATOM      2  C   UNL     1       2.303   6.968  19.476  0.00  0.00    +0.000 A 
ATOM      3  C   UNL     1       2.469   7.774  18.349  0.00  0.00    +0.000 A 
ATOM      4  C   UNL     1       3.472   7.443  17.441  0.00  0.00    +0.000 A 
ATOM      5  C   UNL     1       4.225   6.269  17.599  0.00  0.00    +0.000 A 
ATOM      6  C   UNL     1       4.021   5.412  18.693  0.00  0.00    +0.000 A 
ENDROOT
BRANCH   5   7
ATOM      7  S   UNL     1       5.283   5.827  16.241  0.00  0.00    +0.000 S 
ATOM      8  O   UNL     1       5.024   4.452  15.879  0.00  0.00    +0.000 OA
ATOM      9  O   UNL     1       5.192   6.868  15.234  0.00  0.00    +0.000 OA
BRANCH   7  10
ATOM     10  N   UNL     1       6.844   5.884  16.868  0.00  0.00    +0.000 NA
ATOM     11  H   UNL     1       7.459   5.286  16.315  0.00  0.00    +0.000 HD
BRANCH  10  12
ATOM     12  C   UNL     1       7.360   7.173  17.338  0.00  0.00    +0.000 C 
BRANCH  12  13
ATOM     13  C   UNL     1       8.115   6.986  18.649  0.00  0.00    +0.000 C 
BRANCH  13  14
ATOM     14  C   UNL     1       8.107   5.545  19.137  0.00  0.00    +0.000 C 
BRANCH  14  15
ATOM     15  O   UNL     1       7.006   5.348  20.016  0.00  0.00    +0.000 OA
ATOM     16  H   UNL     1       6.202   5.290  19.472  0.00  0.00    +0.000 HD
ENDBRANCH  14  15
ENDBRANCH  13  14
ENDBRANCH  12  13
ENDBRANCH  10  12
ENDBRANCH   7  10
ENDBRANCH   5   7
BRANCH   1  18
ATOM     17  C   UNL     1       1.368   4.420  20.674  0.00  0.00    +0.000 C 
ATOM     18  O   UNL     1       2.714   4.908  20.652  0.00  0.00    +0.000 OA
ENDBRANCH   1  18
BRANCH   3  19
ATOM     19  C   UNL     1       1.529   8.879  18.105  0.00  0.00    +0.000 C 
ATOM     20  C   UNL     1       1.019   9.622  19.104  0.00  0.00    +0.000 C 
BRANCH  20  21
ATOM     21  C   UNL     1       0.182  10.798  18.810  0.00  0.00    +0.000 C 
ATOM     22  O   UNL     1      -0.805  10.782  18.100  0.00  0.00    +0.000 OA
BRANCH  21  23
ATOM     23  O   UNL     1       0.654  11.911  19.409  0.00  0.00    +0.000 OA
ATOM     24  H   UNL     1       1.360  12.386  18.935  0.00  0.00    +0.000 HD
ENDBRANCH  21  23
ENDBRANCH  20  21
ENDBRANCH   3  19
BRANCH   6  25
ATOM     25  O   UNL     1       4.798   4.288  18.711  0.00  0.00    +0.000 OA
ATOM     26  C   UNL     1       4.192   3.005  18.730  0.00  0.00    +0.000 C 
ENDBRANCH   6  25
TORSDOF 11
ENDMDL
