MODEL 1
REMARK VINA RESULT:      -7.5      0.000      0.000
REMARK  Name = 
REMARK  3 active torsions:
REMARK  status: ('A' for Active; 'I' for Inactive)
REMARK    1  A    between atoms: C_2  and  N_4
REMARK    2  A    between atoms: N_5  and  C_6
REMARK    3  A    between atoms: C_7  and  O_8
REMARK                            x       y       z     vdW  Elec       q    Type
REMARK                         _______ _______ _______ _____ _____    ______ ____
ROOT
ATOM      1  C   UNL     1       5.981   4.467  14.679  0.00  0.00    +0.000 A 
ATOM      2  C   UNL     1       7.175   5.158  14.655  0.00  0.00    +0.000 A 
ATOM      3  N   UNL     1       7.495   5.465  15.946  0.00  0.00    +0.000 N 
ATOM      4  C   UNL     1       6.549   4.960  16.813  0.00  0.00    +0.000 A 
ATOM      5  C   UNL     1       6.478   5.017  18.210  0.00  0.00    +0.000 A 
ATOM      6 BR   UNL     1       7.808   5.899  19.222  0.00  0.00    +0.000 Br
ATOM      7  C   UNL     1       5.402   4.402  18.848  0.00  0.00    +0.000 A 
ATOM      8  C   UNL     1       4.428   3.750  18.096  0.00  0.00    +0.000 A 
ATOM      9 BR   UNL     1       2.981   2.917  18.989  0.00  0.00    +0.000 Br
ATOM     10  C   UNL     1       4.494   3.696  16.697  0.00  0.00    +0.000 A 
ATOM     11  C   UNL     1       5.578   4.315  16.036  0.00  0.00    +0.000 A 
ATOM     12  H   UNL     1       8.323   5.970  16.223  0.00  0.00    +0.000 HD
ENDROOT
BRANCH   1  14
ATOM     13  N   UNL     1       6.042   3.329  12.780  0.00  0.00    +0.000 NA
ATOM     14  N   UNL     1       5.292   3.938  13.575  0.00  0.00    +0.000 NA
BRANCH  13  16
ATOM     15  N   UNL     1       5.917   1.524  11.397  0.00  0.00    +0.000 N 
ATOM     16  C   UNL     1       5.345   2.700  11.778  0.00  0.00    +0.000 C 
ATOM     17  O   UNL     1       4.292   3.063  11.264  0.00  0.00    +0.000 OA
ATOM     18  H   UNL     1       5.473   0.997  10.659  0.00  0.00    +0.000 HD
ATOM     19  H   UNL     1       6.796   1.223  11.788  0.00  0.00    +0.000 HD
ENDBRANCH  13  16
ENDBRANCH   1  14
BRANCH   2  20
ATOM     20  O   UNL     1       7.983   5.525  13.668  0.00  0.00    +0.000 OA
ATOM     21  H   UNL     1       7.944   4.803  13.012  0.00  0.00    +0.000 HD
ENDBRANCH   2  20
TORSDOF 3
ENDMDL
MODEL 2
REMARK VINA RESULT:      -6.5      3.390      4.774
REMARK  Name = 
REMARK  3 active torsions:
REMARK  status: ('A' for Active; 'I' for Inactive)
REMARK    1  A    between atoms: C_2  and  N_4
REMARK    2  A    between atoms: N_5  and  C_6
REMARK    3  A    between atoms: C_7  and  O_8
REMARK                            x       y       z     vdW  Elec       q    Type
REMARK                         _______ _______ _______ _____ _____    ______ ____
ROOT
ATOM      1  C   UNL     1       3.986   3.797  17.496  0.00  0.00    +0.000 A 
ATOM      2  C   UNL     1       3.899   2.467  17.848  0.00  0.00    +0.000 A 
ATOM      3  N   UNL     1       3.190   2.398  19.012  0.00  0.00    +0.000 N 
ATOM      4  C   UNL     1       2.786   3.655  19.409  0.00  0.00    +0.000 A 
ATOM      5  C   UNL     1       2.031   4.057  20.516  0.00  0.00    +0.000 A 
ATOM      6 BR   UNL     1       1.394   2.799  21.775  0.00  0.00    +0.000 Br
ATOM      7  C   UNL     1       1.750   5.413  20.675  0.00  0.00    +0.000 A 
ATOM      8  C   UNL     1       2.219   6.334  19.741  0.00  0.00    +0.000 A 
ATOM      9 BR   UNL     1       1.816   8.170  19.977  0.00  0.00    +0.000 Br
ATOM     10  C   UNL     1       2.978   5.935  18.633  0.00  0.00    +0.000 A 
ATOM     11  C   UNL     1       3.272   4.564  18.460  0.00  0.00    +0.000 A 
ATOM     12  H   UNL     1       2.973   1.541  19.498  0.00  0.00    +0.000 HD
ENDROOT
BRANCH   1  14
ATOM     13  N   UNL     1       5.784   3.917  16.208  0.00  0.00    +0.000 NA
ATOM     14  N   UNL     1       4.610   4.328  16.355  0.00  0.00    +0.000 NA
BRANCH  13  16
ATOM     15  N   UNL     1       7.339   5.239  15.198  0.00  0.00    +0.000 N 
ATOM     16  C   UNL     1       6.340   4.331  15.022  0.00  0.00    +0.000 C 
ATOM     17  O   UNL     1       6.061   3.938  13.894  0.00  0.00    +0.000 OA
ATOM     18  H   UNL     1       7.801   5.603  14.378  0.00  0.00    +0.000 HD
ATOM     19  H   UNL     1       7.564   5.593  16.115  0.00  0.00    +0.000 HD
ENDBRANCH  13  16
ENDBRANCH   1  14
BRANCH   2  20
ATOM     20  O   UNL     1       4.348   1.353  17.280  0.00  0.00    +0.000 OA
ATOM     21  H   UNL     1       5.291   1.294  17.524  0.00  0.00    +0.000 HD
ENDBRANCH   2  20
TORSDOF 3
ENDMDL
MODEL 3
REMARK VINA RESULT:      -6.3      4.664      6.460
REMARK  Name = 
REMARK  3 active torsions:
REMARK  status: ('A' for Active; 'I' for Inactive)
REMARK    1  A    between atoms: C_2  and  N_4
REMARK    2  A    between atoms: N_5  and  C_6
REMARK    3  A    between atoms: C_7  and  O_8
REMARK                            x       y       z     vdW  Elec       q    Type
REMARK                         _______ _______ _______ _____ _____    ______ ____
ROOT
ATOM      1  C   UNL     1       3.602   4.318  18.170  0.00  0.00    +0.000 A 
ATOM      2  C   UNL     1       3.187   3.346  17.285  0.00  0.00    +0.000 A 
ATOM      3  N   UNL     1       3.996   3.421  16.187  0.00  0.00    +0.000 N 
ATOM      4  C   UNL     1       4.949   4.403  16.354  0.00  0.00    +0.000 A 
ATOM      5  C   UNL     1       5.984   4.814  15.506  0.00  0.00    +0.000 A 
ATOM      6 BR   UNL     1       6.249   4.002  13.820  0.00  0.00    +0.000 Br
ATOM      7  C   UNL     1       6.827   5.839  15.933  0.00  0.00    +0.000 A 
ATOM      8  C   UNL     1       6.629   6.430  17.178  0.00  0.00    +0.000 A 
ATOM      9 BR   UNL     1       7.793   7.816  17.735  0.00  0.00    +0.000 Br
ATOM     10  C   UNL     1       5.590   6.023  18.027  0.00  0.00    +0.000 A 
ATOM     11  C   UNL     1       4.728   4.986  17.608  0.00  0.00    +0.000 A 
ATOM     12  H   UNL     1       3.917   2.822  15.379  0.00  0.00    +0.000 HD
ENDROOT
BRANCH   1  14
ATOM     13  N   UNL     1       2.674   3.552  20.029  0.00  0.00    +0.000 NA
ATOM     14  N   UNL     1       3.066   4.585  19.440  0.00  0.00    +0.000 NA
BRANCH  13  16
ATOM     15  N   UNL     1       2.198   5.133  21.598  0.00  0.00    +0.000 N 
ATOM     16  C   UNL     1       2.278   3.802  21.320  0.00  0.00    +0.000 C 
ATOM     17  O   UNL     1       1.964   2.978  22.174  0.00  0.00    +0.000 OA
ATOM     18  H   UNL     1       1.920   5.408  22.529  0.00  0.00    +0.000 HD
ATOM     19  H   UNL     1       2.478   5.823  20.919  0.00  0.00    +0.000 HD
ENDBRANCH  13  16
ENDBRANCH   1  14
BRANCH   2  20
ATOM     20  O   UNL     1       2.224   2.433  17.335  0.00  0.00    +0.000 OA
ATOM     21  H   UNL     1       1.442   2.852  16.929  0.00  0.00    +0.000 HD
ENDBRANCH   2  20
TORSDOF 3
ENDMDL
MODEL 4
REMARK VINA RESULT:      -6.2      5.791      7.213
REMARK  Name = 
REMARK  3 active torsions:
REMARK  status: ('A' for Active; 'I' for Inactive)
REMARK    1  A    between atoms: C_2  and  N_4
REMARK    2  A    between atoms: N_5  and  C_6
REMARK    3  A    between atoms: C_7  and  O_8
REMARK                            x       y       z     vdW  Elec       q    Type
REMARK                         _______ _______ _______ _____ _____    ______ ____
ROOT
ATOM      1  C   UNL     1       2.624   7.296  18.880  0.00  0.00    +0.000 A 
ATOM      2  C   UNL     1       2.240   6.774  20.098  0.00  0.00    +0.000 A 
ATOM      3  N   UNL     1       2.758   5.515  20.184  0.00  0.00    +0.000 N 
ATOM      4  C   UNL     1       3.499   5.217  19.061  0.00  0.00    +0.000 A 
ATOM      5  C   UNL     1       4.217   4.063  18.729  0.00  0.00    +0.000 A 
ATOM      6 BR   UNL     1       4.274   2.576  19.894  0.00  0.00    +0.000 Br
ATOM      7  C   UNL     1       4.900   4.030  17.514  0.00  0.00    +0.000 A 
ATOM      8  C   UNL     1       4.857   5.130  16.661  0.00  0.00    +0.000 A 
ATOM      9 BR   UNL     1       5.800   5.060  15.020  0.00  0.00    +0.000 Br
ATOM     10  C   UNL     1       4.135   6.285  16.990  0.00  0.00    +0.000 A 
ATOM     11  C   UNL     1       3.438   6.334  18.217  0.00  0.00    +0.000 A 
ATOM     12  H   UNL     1       2.633   4.900  20.975  0.00  0.00    +0.000 HD
ENDROOT
BRANCH   1  14
ATOM     13  N   UNL     1       1.361   9.114  18.962  0.00  0.00    +0.000 NA
ATOM     14  N   UNL     1       2.332   8.576  18.382  0.00  0.00    +0.000 NA
BRANCH  13  16
ATOM     15  N   UNL     1       2.162  10.873  17.758  0.00  0.00    +0.000 N 
ATOM     16  C   UNL     1       1.167  10.414  18.565  0.00  0.00    +0.000 C 
ATOM     17  O   UNL     1       0.207  11.134  18.824  0.00  0.00    +0.000 OA
ATOM     18  H   UNL     1       2.104  11.823  17.424  0.00  0.00    +0.000 HD
ATOM     19  H   UNL     1       2.971  10.305  17.557  0.00  0.00    +0.000 HD
ENDBRANCH  13  16
ENDBRANCH   1  14
BRANCH   2  20
ATOM     20  O   UNL     1       1.522   7.265  21.101  0.00  0.00    +0.000 OA
ATOM     21  H   UNL     1       1.941   6.926  21.916  0.00  0.00    +0.000 HD
ENDBRANCH   2  20
TORSDOF 3
ENDMDL
MODEL 5
REMARK VINA RESULT:      -6.2      4.614      5.698
REMARK  Name = 
REMARK  3 active torsions:
REMARK  status: ('A' for Active; 'I' for Inactive)
REMARK    1  A    between atoms: C_2  and  N_4
REMARK    2  A    between atoms: N_5  and  C_6
REMARK    3  A    between atoms: C_7  and  O_8
REMARK                            x       y       z     vdW  Elec       q    Type
REMARK                         _______ _______ _______ _____ _____    ______ ____
ROOT
ATOM      1  C   UNL     1       3.627   4.701  18.220  0.00  0.00    +0.000 A 
ATOM      2  C   UNL     1       3.910   5.607  19.220  0.00  0.00    +0.000 A 
ATOM      3  N   UNL     1       5.051   6.266  18.863  0.00  0.00    +0.000 N 
ATOM      4  C   UNL     1       5.499   5.829  17.634  0.00  0.00    +0.000 A 
ATOM      5  C   UNL     1       6.605   6.231  16.878  0.00  0.00    +0.000 A 
ATOM      6 BR   UNL     1       7.783   7.570  17.502  0.00  0.00    +0.000 Br
ATOM      7  C   UNL     1       6.824   5.624  15.642  0.00  0.00    +0.000 A 
ATOM      8  C   UNL     1       5.950   4.640  15.186  0.00  0.00    +0.000 A 
ATOM      9 BR   UNL     1       6.266   3.837  13.500  0.00  0.00    +0.000 Br
ATOM     10  C   UNL     1       4.843   4.233  15.944  0.00  0.00    +0.000 A 
ATOM     11  C   UNL     1       4.609   4.839  17.198  0.00  0.00    +0.000 A 
ATOM     12  H   UNL     1       5.487   6.989  19.414  0.00  0.00    +0.000 HD
ENDROOT
BRANCH   1  14
ATOM     13  N   UNL     1       2.179   3.411  19.290  0.00  0.00    +0.000 NA
ATOM     14  N   UNL     1       2.530   3.825  18.162  0.00  0.00    +0.000 NA
BRANCH  13  16
ATOM     15  N   UNL     1       0.356   2.654  20.425  0.00  0.00    +0.000 N 
ATOM     16  C   UNL     1       1.026   2.666  19.240  0.00  0.00    +0.000 C 
ATOM     17  O   UNL     1       0.557   2.087  18.265  0.00  0.00    +0.000 OA
ATOM     18  H   UNL     1      -0.501   2.124  20.481  0.00  0.00    +0.000 HD
ATOM     19  H   UNL     1       0.740   3.100  21.244  0.00  0.00    +0.000 HD
ENDBRANCH  13  16
ENDBRANCH   1  14
BRANCH   2  20
ATOM     20  O   UNL     1       3.299   5.912  20.359  0.00  0.00    +0.000 OA
ATOM     21  H   UNL     1       2.608   6.560  20.122  0.00  0.00    +0.000 HD
ENDBRANCH   2  20
TORSDOF 3
ENDMDL
MODEL 6
REMARK VINA RESULT:      -6.2      3.938      5.639
REMARK  Name = 
REMARK  3 active torsions:
REMARK  status: ('A' for Active; 'I' for Inactive)
REMARK    1  A    between atoms: C_2  and  N_4
REMARK    2  A    between atoms: N_5  and  C_6
REMARK    3  A    between atoms: C_7  and  O_8
REMARK                            x       y       z     vdW  Elec       q    Type
REMARK                         _______ _______ _______ _____ _____    ______ ____
ROOT
ATOM      1  C   UNL     1       4.811   5.235  17.703  0.00  0.00    +0.000 A 
ATOM      2  C   UNL     1       4.785   3.964  17.169  0.00  0.00    +0.000 A 
ATOM      3  N   UNL     1       3.697   3.325  17.690  0.00  0.00    +0.000 N 
ATOM      4  C   UNL     1       2.995   4.165  18.528  0.00  0.00    +0.000 A 
ATOM      5  C   UNL     1       1.820   3.945  19.255  0.00  0.00    +0.000 A 
ATOM      6 BR   UNL     1       0.932   2.279  19.200  0.00  0.00    +0.000 Br
ATOM      7  C   UNL     1       1.310   4.989  20.026  0.00  0.00    +0.000 A 
ATOM      8  C   UNL     1       1.967   6.216  20.060  0.00  0.00    +0.000 A 
ATOM      9 BR   UNL     1       1.247   7.617  21.110  0.00  0.00    +0.000 Br
ATOM     10  C   UNL     1       3.146   6.437  19.335  0.00  0.00    +0.000 A 
ATOM     11  C   UNL     1       3.676   5.389  18.550  0.00  0.00    +0.000 A 
ATOM     12  H   UNL     1       3.434   2.376  17.469  0.00  0.00    +0.000 HD
ENDROOT
BRANCH   1  14
ATOM     13  N   UNL     1       6.700   6.260  18.237  0.00  0.00    +0.000 NA
ATOM     14  N   UNL     1       5.746   6.246  17.427  0.00  0.00    +0.000 NA
BRANCH  13  16
ATOM     15  N   UNL     1       8.514   7.459  18.915  0.00  0.00    +0.000 N 
ATOM     16  C   UNL     1       7.677   7.158  17.884  0.00  0.00    +0.000 C 
ATOM     17  O   UNL     1       7.873   7.644  16.774  0.00  0.00    +0.000 OA
ATOM     18  H   UNL     1       9.259   8.118  18.746  0.00  0.00    +0.000 HD
ATOM     19  H   UNL     1       8.352   7.091  19.840  0.00  0.00    +0.000 HD
ENDBRANCH  13  16
ENDBRANCH   1  14
BRANCH   2  20
ATOM     20  O   UNL     1       5.573   3.333  16.307  0.00  0.00    +0.000 OA
ATOM     21  H   UNL     1       5.416   2.380  16.454  0.00  0.00    +0.000 HD
ENDBRANCH   2  20
TORSDOF 3
ENDMDL
MODEL 7
REMARK VINA RESULT:      -6.1      3.389      4.334
REMARK  Name = 
REMARK  3 active torsions:
REMARK  status: ('A' for Active; 'I' for Inactive)
REMARK    1  A    between atoms: C_2  and  N_4
REMARK    2  A    between atoms: N_5  and  C_6
REMARK    3  A    between atoms: C_7  and  O_8
REMARK                            x       y       z     vdW  Elec       q    Type
REMARK                         _______ _______ _______ _____ _____    ______ ____
ROOT
ATOM      1  C   UNL     1       4.615   4.956  16.807  0.00  0.00    +0.000 A 
ATOM      2  C   UNL     1       4.488   3.736  17.436  0.00  0.00    +0.000 A 
ATOM      3  N   UNL     1       3.659   3.912  18.506  0.00  0.00    +0.000 N 
ATOM      4  C   UNL     1       3.219   5.216  18.569  0.00  0.00    +0.000 A 
ATOM      5  C   UNL     1       2.351   5.837  19.475  0.00  0.00    +0.000 A 
ATOM      6 BR   UNL     1       1.582   4.877  20.909  0.00  0.00    +0.000 Br
ATOM      7  C   UNL     1       2.058   7.189  19.297  0.00  0.00    +0.000 A 
ATOM      8  C   UNL     1       2.625   7.890  18.236  0.00  0.00    +0.000 A 
ATOM      9 BR   UNL     1       2.204   9.723  18.014  0.00  0.00    +0.000 Br
ATOM     10  C   UNL     1       3.497   7.271  17.330  0.00  0.00    +0.000 A 
ATOM     11  C   UNL     1       3.804   5.902  17.497  0.00  0.00    +0.000 A 
ATOM     12  H   UNL     1       3.391   3.179  19.146  0.00  0.00    +0.000 HD
ENDROOT
BRANCH   1  14
ATOM     13  N   UNL     1       6.172   4.327  15.364  0.00  0.00    +0.000 NA
ATOM     14  N   UNL     1       5.358   5.234  15.648  0.00  0.00    +0.000 NA
BRANCH  13  16
ATOM     15  N   UNL     1       6.420   3.644  13.206  0.00  0.00    +0.000 N 
ATOM     16  C   UNL     1       6.797   4.540  14.160  0.00  0.00    +0.000 C 
ATOM     17  O   UNL     1       7.579   5.442  13.877  0.00  0.00    +0.000 OA
ATOM     18  H   UNL     1       6.836   3.723  12.289  0.00  0.00    +0.000 HD
ATOM     19  H   UNL     1       5.800   2.881  13.426  0.00  0.00    +0.000 HD
ENDBRANCH  13  16
ENDBRANCH   1  14
BRANCH   2  20
ATOM     20  O   UNL     1       4.992   2.534  17.180  0.00  0.00    +0.000 OA
ATOM     21  H   UNL     1       5.915   2.688  16.904  0.00  0.00    +0.000 HD
ENDBRANCH   2  20
TORSDOF 3
ENDMDL
MODEL 8
REMARK VINA RESULT:      -6.1      5.685      6.907
REMARK  Name = 
REMARK  3 active torsions:
REMARK  status: ('A' for Active; 'I' for Inactive)
REMARK    1  A    between atoms: C_2  and  N_4
REMARK    2  A    between atoms: N_5  and  C_6
REMARK    3  A    between atoms: C_7  and  O_8
REMARK                            x       y       z     vdW  Elec       q    Type
REMARK                         _______ _______ _______ _____ _____    ______ ____
ROOT
ATOM      1  C   UNL     1       4.212   2.812  20.124  0.00  0.00    +0.000 A 
ATOM      2  C   UNL     1       3.125   3.231  20.863  0.00  0.00    +0.000 A 
ATOM      3  N   UNL     1       2.770   4.466  20.402  0.00  0.00    +0.000 N 
ATOM      4  C   UNL     1       3.585   4.846  19.357  0.00  0.00    +0.000 A 
ATOM      5  C   UNL     1       3.576   6.009  18.578  0.00  0.00    +0.000 A 
ATOM      6 BR   UNL     1       2.316   7.383  18.885  0.00  0.00    +0.000 Br
ATOM      7  C   UNL     1       4.519   6.135  17.559  0.00  0.00    +0.000 A 
ATOM      8  C   UNL     1       5.442   5.116  17.335  0.00  0.00    +0.000 A 
ATOM      9 BR   UNL     1       6.707   5.311  15.939  0.00  0.00    +0.000 Br
ATOM     10  C   UNL     1       5.455   3.953  18.116  0.00  0.00    +0.000 A 
ATOM     11  C   UNL     1       4.506   3.811  19.153  0.00  0.00    +0.000 A 
ATOM     12  H   UNL     1       2.002   5.011  20.765  0.00  0.00    +0.000 HD
ENDROOT
BRANCH   1  14
ATOM     13  N   UNL     1       5.384   1.416  21.382  0.00  0.00    +0.000 NA
ATOM     14  N   UNL     1       4.890   1.588  20.245  0.00  0.00    +0.000 NA
BRANCH  13  16
ATOM     15  N   UNL     1       5.908  -0.562  20.383  0.00  0.00    +0.000 N 
ATOM     16  C   UNL     1       5.927   0.164  21.535  0.00  0.00    +0.000 C 
ATOM     17  O   UNL     1       6.439  -0.305  22.546  0.00  0.00    +0.000 OA
ATOM     18  H   UNL     1       6.282  -1.499  20.406  0.00  0.00    +0.000 HD
ATOM     19  H   UNL     1       5.468  -0.204  19.550  0.00  0.00    +0.000 HD
ENDBRANCH  13  16
ENDBRANCH   1  14
BRANCH   2  20
ATOM     20  O   UNL     1       2.435   2.670  21.849  0.00  0.00    +0.000 OA
ATOM     21  H   UNL     1       1.635   2.297  21.432  0.00  0.00    +0.000 HD
ENDBRANCH   2  20
TORSDOF 3
ENDMDL
MODEL 9
REMARK VINA RESULT:      -6.1      5.386      6.519
REMARK  Name = 
REMARK  3 active torsions:
REMARK  status: ('A' for Active; 'I' for Inactive)
REMARK    1  A    between atoms: C_2  and  N_4
REMARK    2  A    between atoms: N_5  and  C_6
REMARK    3  A    between atoms: C_7  and  O_8
REMARK                            x       y       z     vdW  Elec       q    Type
REMARK                         _______ _______ _______ _____ _____    ______ ____
ROOT
ATOM      1  C   UNL     1       3.624   3.863  19.261  0.00  0.00    +0.000 A 
ATOM      2  C   UNL     1       4.871   3.274  19.259  0.00  0.00    +0.000 A 
ATOM      3  N   UNL     1       5.740   4.161  18.691  0.00  0.00    +0.000 N 
ATOM      4  C   UNL     1       5.090   5.328  18.352  0.00  0.00    +0.000 A 
ATOM      5  C   UNL     1       5.580   6.502  17.769  0.00  0.00    +0.000 A 
ATOM      6 BR   UNL     1       7.403   6.674  17.300  0.00  0.00    +0.000 Br
ATOM      7  C   UNL     1       4.693   7.553  17.542  0.00  0.00    +0.000 A 
ATOM      8  C   UNL     1       3.352   7.421  17.893  0.00  0.00    +0.000 A 
ATOM      9 BR   UNL     1       2.172   8.868  17.580  0.00  0.00    +0.000 Br
ATOM     10  C   UNL     1       2.859   6.245  18.473  0.00  0.00    +0.000 A 
ATOM     11  C   UNL     1       3.745   5.170  18.709  0.00  0.00    +0.000 A 
ATOM     12  H   UNL     1       6.726   3.989  18.562  0.00  0.00    +0.000 HD
ENDROOT
BRANCH   1  14
ATOM     13  N   UNL     1       2.500   3.072  20.998  0.00  0.00    +0.000 NA
ATOM     14  N   UNL     1       2.435   3.317  19.772  0.00  0.00    +0.000 NA
BRANCH  13  16
ATOM     15  N   UNL     1       0.271   2.790  20.629  0.00  0.00    +0.000 N 
ATOM     16  C   UNL     1       1.295   2.666  21.517  0.00  0.00    +0.000 C 
ATOM     17  O   UNL     1       1.088   2.187  22.628  0.00  0.00    +0.000 OA
ATOM     18  H   UNL     1      -0.654   2.521  20.929  0.00  0.00    +0.000 HD
ATOM     19  H   UNL     1       0.417   3.207  19.722  0.00  0.00    +0.000 HD
ENDBRANCH  13  16
ENDBRANCH   1  14
BRANCH   2  20
ATOM     20  O   UNL     1       5.313   2.099  19.690  0.00  0.00    +0.000 OA
ATOM     21  H   UNL     1       4.582   1.470  19.538  0.00  0.00    +0.000 HD
ENDBRANCH   2  20
TORSDOF 3
ENDMDL
