MODEL 1
REMARK VINA RESULT:      -7.9      0.000      0.000
REMARK  Name = 
REMARK  5 active torsions:
REMARK  status: ('A' for Active; 'I' for Inactive)
REMARK    1  A    between atoms: N_3  and  C_4
REMARK    2  A    between atoms: C_6  and  N_7
REMARK    3  A    between atoms: N_12  and  C_13
REMARK    4  A    between atoms: C_22  and  C_23
REMARK    5  A    between atoms: C_23  and  O_24
REMARK                            x       y       z     vdW  Elec       q    Type
REMARK                         _______ _______ _______ _____ _____    ______ ____
ROOT
ATOM      1  N   UNL     1       2.774   6.438  18.916  0.00  0.00    +0.000 N 
ATOM      2  C   UNL     1       2.276   5.792  20.018  0.00  0.00    +0.000 A 
ATOM      3  N   UNL     1       1.594   6.597  20.806  0.00  0.00    +0.000 NA
ATOM      4  C   UNL     1       1.600   7.814  20.152  0.00  0.00    +0.000 A 
ATOM      5  C   UNL     1       1.015   9.054  20.467  0.00  0.00    +0.000 A 
ATOM      6  N   UNL     1       0.313   9.246  21.673  0.00  0.00    +0.000 N 
ATOM      7  N   UNL     1       1.187  10.066  19.574  0.00  0.00    +0.000 NA
ATOM      8  C   UNL     1       1.894   9.854  18.450  0.00  0.00    +0.000 A 
ATOM      9  N   UNL     1       2.013  10.934  17.597  0.00  0.00    +0.000 N 
ATOM     10  N   UNL     1       2.516   8.719  18.084  0.00  0.00    +0.000 NA
ATOM     11  C   UNL     1       2.317   7.730  18.969  0.00  0.00    +0.000 A 
ATOM     12  H   UNL     1       0.269   8.392  22.222  0.00  0.00    +0.000 HD
ATOM     13  H   UNL     1       1.847  11.791  18.106  0.00  0.00    +0.000 HD
ATOM     14  H   UNL     1       2.851  10.874  17.038  0.00  0.00    +0.000 HD
ENDROOT
BRANCH   1  17
ATOM     15  C   UNL     1       5.465   4.812  18.880  0.00  0.00    +0.000 C 
ATOM     16  C   UNL     1       5.087   6.011  18.036  0.00  0.00    +0.000 C 
ATOM     17  C   UNL     1       3.584   5.846  17.860  0.00  0.00    +0.000 C 
ATOM     18  O   UNL     1       3.345   4.417  17.838  0.00  0.00    +0.000 OA
ATOM     19  C   UNL     1       4.525   3.738  18.332  0.00  0.00    +0.000 C 
BRANCH  15  22
ATOM     20  N   UNL     1       7.676   4.573  16.416  0.00  0.00    +0.000 NA
ATOM     21  N   UNL     1       7.284   4.506  17.478  0.00  0.00    +0.000 NA
ATOM     22  N   UNL     1       6.859   4.427  18.651  0.00  0.00    +0.000 NA
ENDBRANCH  15  22
BRANCH  19  23
ATOM     23  C   UNL     1       4.131   2.713  19.398  0.00  0.00    +0.000 C 
BRANCH  23  24
ATOM     24  O   UNL     1       5.276   2.012  19.877  0.00  0.00    +0.000 OA
ATOM     25  H   UNL     1       6.012   2.225  19.274  0.00  0.00    +0.000 HD
ENDBRANCH  23  24
ENDBRANCH  19  23
ENDBRANCH   1  17
BRANCH   6  26
ATOM     26  C   UNL     1      -0.722  10.266  21.799  0.00  0.00    +0.000 C 
ATOM     27  C   UNL     1      -1.221  10.760  23.131  0.00  0.00    +0.000 C 
ATOM     28  C   UNL     1      -0.354  11.644  22.285  0.00  0.00    +0.000 C 
ENDBRANCH   6  26
TORSDOF 5
ENDMDL
MODEL 2
REMARK VINA RESULT:      -7.7      2.308      3.888
REMARK  Name = 
REMARK  5 active torsions:
REMARK  status: ('A' for Active; 'I' for Inactive)
REMARK    1  A    between atoms: N_3  and  C_4
REMARK    2  A    between atoms: C_6  and  N_7
REMARK    3  A    between atoms: N_12  and  C_13
REMARK    4  A    between atoms: C_22  and  C_23
REMARK    5  A    between atoms: C_23  and  O_24
REMARK                            x       y       z     vdW  Elec       q    Type
REMARK                         _______ _______ _______ _____ _____    ______ ____
ROOT
ATOM      1  N   UNL     1       3.870   5.299  17.669  0.00  0.00    +0.000 N 
ATOM      2  C   UNL     1       3.886   6.592  17.210  0.00  0.00    +0.000 A 
ATOM      3  N   UNL     1       3.171   7.401  17.965  0.00  0.00    +0.000 NA
ATOM      4  C   UNL     1       2.718   6.605  18.999  0.00  0.00    +0.000 A 
ATOM      5  C   UNL     1       1.940   6.892  20.136  0.00  0.00    +0.000 A 
ATOM      6  N   UNL     1       1.410   8.178  20.353  0.00  0.00    +0.000 N 
ATOM      7  N   UNL     1       1.694   5.865  20.995  0.00  0.00    +0.000 NA
ATOM      8  C   UNL     1       2.188   4.641  20.734  0.00  0.00    +0.000 A 
ATOM      9  N   UNL     1       1.895   3.661  21.662  0.00  0.00    +0.000 N 
ATOM     10  N   UNL     1       2.908   4.267  19.661  0.00  0.00    +0.000 NA
ATOM     11  C   UNL     1       3.154   5.299  18.839  0.00  0.00    +0.000 A 
ATOM     12  H   UNL     1       1.693   8.829  19.627  0.00  0.00    +0.000 HD
ATOM     13  H   UNL     1       1.083   3.931  22.201  0.00  0.00    +0.000 HD
ATOM     14  H   UNL     1       1.898   2.742  21.244  0.00  0.00    +0.000 HD
ENDROOT
BRANCH   1  17
ATOM     15  C   UNL     1       6.021   4.988  15.398  0.00  0.00    +0.000 C 
ATOM     16  C   UNL     1       4.710   4.247  15.549  0.00  0.00    +0.000 C 
ATOM     17  C   UNL     1       4.539   4.158  17.060  0.00  0.00    +0.000 C 
ATOM     18  O   UNL     1       5.879   4.063  17.603  0.00  0.00    +0.000 OA
ATOM     19  C   UNL     1       6.828   4.436  16.573  0.00  0.00    +0.000 C 
BRANCH  15  22
ATOM     20  N   UNL     1       8.633   5.874  13.552  0.00  0.00    +0.000 NA
ATOM     21  N   UNL     1       7.702   5.291  13.832  0.00  0.00    +0.000 NA
ATOM     22  N   UNL     1       6.675   4.645  14.132  0.00  0.00    +0.000 NA
ENDBRANCH  15  22
BRANCH  19  23
ATOM     23  C   UNL     1       7.823   5.460  17.126  0.00  0.00    +0.000 C 
BRANCH  23  24
ATOM     24  O   UNL     1       7.677   6.716  16.468  0.00  0.00    +0.000 OA
ATOM     25  H   UNL     1       7.440   6.526  15.541  0.00  0.00    +0.000 HD
ENDBRANCH  23  24
ENDBRANCH  19  23
ENDBRANCH   1  17
BRANCH   6  26
ATOM     26  C   UNL     1       1.090   8.655  21.695  0.00  0.00    +0.000 C 
ATOM     27  C   UNL     1       0.571  10.042  21.964  0.00  0.00    +0.000 C 
ATOM     28  C   UNL     1      -0.350   8.866  22.086  0.00  0.00    +0.000 C 
ENDBRANCH   6  26
TORSDOF 5
ENDMDL
MODEL 3
REMARK VINA RESULT:      -7.6      2.058      3.518
REMARK  Name = 
REMARK  5 active torsions:
REMARK  status: ('A' for Active; 'I' for Inactive)
REMARK    1  A    between atoms: N_3  and  C_4
REMARK    2  A    between atoms: C_6  and  N_7
REMARK    3  A    between atoms: N_12  and  C_13
REMARK    4  A    between atoms: C_22  and  C_23
REMARK    5  A    between atoms: C_23  and  O_24
REMARK                            x       y       z     vdW  Elec       q    Type
REMARK                         _______ _______ _______ _____ _____    ______ ____
ROOT
ATOM      1  N   UNL     1       3.828   5.751  17.596  0.00  0.00    +0.000 N 
ATOM      2  C   UNL     1       3.832   7.072  17.228  0.00  0.00    +0.000 A 
ATOM      3  N   UNL     1       3.104   7.819  18.033  0.00  0.00    +0.000 NA
ATOM      4  C   UNL     1       2.654   6.948  19.005  0.00  0.00    +0.000 A 
ATOM      5  C   UNL     1       1.867   7.147  20.155  0.00  0.00    +0.000 A 
ATOM      6  N   UNL     1       1.322   8.410  20.458  0.00  0.00    +0.000 N 
ATOM      7  N   UNL     1       1.628   6.061  20.939  0.00  0.00    +0.000 NA
ATOM      8  C   UNL     1       2.137   4.863  20.598  0.00  0.00    +0.000 A 
ATOM      9  N   UNL     1       1.850   3.818  21.453  0.00  0.00    +0.000 N 
ATOM     10  N   UNL     1       2.866   4.572  19.506  0.00  0.00    +0.000 NA
ATOM     11  C   UNL     1       3.106   5.661  18.759  0.00  0.00    +0.000 A 
ATOM     12  H   UNL     1       1.601   9.113  19.780  0.00  0.00    +0.000 HD
ATOM     13  H   UNL     1       1.032   4.041  22.004  0.00  0.00    +0.000 HD
ATOM     14  H   UNL     1       1.865   2.931  20.973  0.00  0.00    +0.000 HD
ENDROOT
BRANCH   1  17
ATOM     15  C   UNL     1       6.563   5.512  16.064  0.00  0.00    +0.000 C 
ATOM     16  C   UNL     1       5.195   5.051  15.609  0.00  0.00    +0.000 C 
ATOM     17  C   UNL     1       4.513   4.661  16.913  0.00  0.00    +0.000 C 
ATOM     18  O   UNL     1       5.567   4.164  17.775  0.00  0.00    +0.000 OA
ATOM     19  C   UNL     1       6.847   4.551  17.218  0.00  0.00    +0.000 C 
BRANCH  15  22
ATOM     20  N   UNL     1       6.839   4.239  13.011  0.00  0.00    +0.000 NA
ATOM     21  N   UNL     1       7.176   4.760  13.960  0.00  0.00    +0.000 NA
ATOM     22  N   UNL     1       7.557   5.335  15.003  0.00  0.00    +0.000 NA
ENDBRANCH  15  22
BRANCH  19  23
ATOM     23  C   UNL     1       7.718   5.189  18.304  0.00  0.00    +0.000 C 
BRANCH  23  24
ATOM     24  O   UNL     1       7.014   5.264  19.540  0.00  0.00    +0.000 OA
ATOM     25  H   UNL     1       6.849   6.209  19.718  0.00  0.00    +0.000 HD
ENDBRANCH  23  24
ENDBRANCH  19  23
ENDBRANCH   1  17
BRANCH   6  26
ATOM     26  C   UNL     1       0.989   8.788  21.827  0.00  0.00    +0.000 C 
ATOM     27  C   UNL     1       0.368  10.115  22.177  0.00  0.00    +0.000 C 
ATOM     28  C   UNL     1      -0.456   8.864  22.248  0.00  0.00    +0.000 C 
ENDBRANCH   6  26
TORSDOF 5
ENDMDL
MODEL 4
REMARK VINA RESULT:      -7.6      1.478      1.627
REMARK  Name = 
REMARK  5 active torsions:
REMARK  status: ('A' for Active; 'I' for Inactive)
REMARK    1  A    between atoms: N_3  and  C_4
REMARK    2  A    between atoms: C_6  and  N_7
REMARK    3  A    between atoms: N_12  and  C_13
REMARK    4  A    between atoms: C_22  and  C_23
REMARK    5  A    between atoms: C_23  and  O_24
REMARK                            x       y       z     vdW  Elec       q    Type
REMARK                         _______ _______ _______ _____ _____    ______ ____
ROOT
ATOM      1  N   UNL     1       3.145   5.957  18.532  0.00  0.00    +0.000 N 
ATOM      2  C   UNL     1       2.838   5.234  19.656  0.00  0.00    +0.000 A 
ATOM      3  N   UNL     1       2.178   5.946  20.546  0.00  0.00    +0.000 NA
ATOM      4  C   UNL     1       1.997   7.176  19.945  0.00  0.00    +0.000 A 
ATOM      5  C   UNL     1       1.338   8.344  20.372  0.00  0.00    +0.000 A 
ATOM      6  N   UNL     1       0.764   8.432  21.655  0.00  0.00    +0.000 N 
ATOM      7  N   UNL     1       1.313   9.394  19.506  0.00  0.00    +0.000 NA
ATOM      8  C   UNL     1       1.904   9.284  18.303  0.00  0.00    +0.000 A 
ATOM      9  N   UNL     1       1.824  10.394  17.486  0.00  0.00    +0.000 N 
ATOM     10  N   UNL     1       2.583   8.225  17.825  0.00  0.00    +0.000 NA
ATOM     11  C   UNL     1       2.578   7.197  18.687  0.00  0.00    +0.000 A 
ATOM     12  H   UNL     1       0.862   7.562  22.171  0.00  0.00    +0.000 HD
ATOM     13  H   UNL     1       1.637  11.217  18.044  0.00  0.00    +0.000 HD
ATOM     14  H   UNL     1       2.594  10.432  16.835  0.00  0.00    +0.000 HD
ENDROOT
BRANCH   1  17
ATOM     15  C   UNL     1       6.116   6.261  17.552  0.00  0.00    +0.000 C 
ATOM     16  C   UNL     1       4.845   6.486  16.762  0.00  0.00    +0.000 C 
ATOM     17  C   UNL     1       3.881   5.478  17.370  0.00  0.00    +0.000 C 
ATOM     18  O   UNL     1       4.694   4.347  17.771  0.00  0.00    +0.000 OA
ATOM     19  C   UNL     1       6.086   4.748  17.767  0.00  0.00    +0.000 C 
BRANCH  15  22
ATOM     20  N   UNL     1       7.723   5.389  14.782  0.00  0.00    +0.000 NA
ATOM     21  N   UNL     1       7.516   5.980  15.727  0.00  0.00    +0.000 NA
ATOM     22  N   UNL     1       7.296   6.636  16.768  0.00  0.00    +0.000 NA
ENDBRANCH  15  22
BRANCH  19  23
ATOM     23  C   UNL     1       6.753   4.335  19.082  0.00  0.00    +0.000 C 
BRANCH  23  24
ATOM     24  O   UNL     1       7.087   5.479  19.863  0.00  0.00    +0.000 OA
ATOM     25  H   UNL     1       7.607   6.073  19.290  0.00  0.00    +0.000 HD
ENDBRANCH  23  24
ENDBRANCH  19  23
ENDBRANCH   1  17
BRANCH   6  26
ATOM     26  C   UNL     1      -0.341   9.343  21.935  0.00  0.00    +0.000 C 
ATOM     27  C   UNL     1      -0.645   9.853  23.318  0.00  0.00    +0.000 C 
ATOM     28  C   UNL     1      -0.050  10.776  22.298  0.00  0.00    +0.000 C 
ENDBRANCH   6  26
TORSDOF 5
ENDMDL
MODEL 5
REMARK VINA RESULT:      -7.6      4.460      6.491
REMARK  Name = 
REMARK  5 active torsions:
REMARK  status: ('A' for Active; 'I' for Inactive)
REMARK    1  A    between atoms: N_3  and  C_4
REMARK    2  A    between atoms: C_6  and  N_7
REMARK    3  A    between atoms: N_12  and  C_13
REMARK    4  A    between atoms: C_22  and  C_23
REMARK    5  A    between atoms: C_23  and  O_24
REMARK                            x       y       z     vdW  Elec       q    Type
REMARK                         _______ _______ _______ _____ _____    ______ ____
ROOT
ATOM      1  N   UNL     1       5.391   4.999  16.952  0.00  0.00    +0.000 N 
ATOM      2  C   UNL     1       5.056   5.986  16.060  0.00  0.00    +0.000 A 
ATOM      3  N   UNL     1       5.703   7.110  16.291  0.00  0.00    +0.000 NA
ATOM      4  C   UNL     1       6.543   6.820  17.348  0.00  0.00    +0.000 A 
ATOM      5  C   UNL     1       7.504   7.593  18.026  0.00  0.00    +0.000 A 
ATOM      6  N   UNL     1       7.707   8.949  17.708  0.00  0.00    +0.000 N 
ATOM      7  N   UNL     1       8.200   6.982  19.024  0.00  0.00    +0.000 NA
ATOM      8  C   UNL     1       7.952   5.694  19.322  0.00  0.00    +0.000 A 
ATOM      9  N   UNL     1       8.708   5.153  20.343  0.00  0.00    +0.000 N 
ATOM     10  N   UNL     1       7.033   4.892  18.755  0.00  0.00    +0.000 NA
ATOM     11  C   UNL     1       6.373   5.508  17.762  0.00  0.00    +0.000 A 
ATOM     12  H   UNL     1       7.116   9.248  16.937  0.00  0.00    +0.000 HD
ATOM     13  H   UNL     1       9.078   5.894  20.924  0.00  0.00    +0.000 HD
ATOM     14  H   UNL     1       8.226   4.394  20.800  0.00  0.00    +0.000 HD
ENDROOT
BRANCH   1  17
ATOM     15  C   UNL     1       3.656   3.399  19.028  0.00  0.00    +0.000 C 
ATOM     16  C   UNL     1       4.933   2.960  18.344  0.00  0.00    +0.000 C 
ATOM     17  C   UNL     1       4.849   3.647  16.989  0.00  0.00    +0.000 C 
ATOM     18  O   UNL     1       3.438   3.706  16.663  0.00  0.00    +0.000 OA
ATOM     19  C   UNL     1       2.670   3.427  17.860  0.00  0.00    +0.000 C 
BRANCH  15  22
ATOM     20  N   UNL     1       2.182   3.248  21.998  0.00  0.00    +0.000 NA
ATOM     21  N   UNL     1       2.680   2.855  21.058  0.00  0.00    +0.000 NA
ATOM     22  N   UNL     1       3.228   2.414  20.025  0.00  0.00    +0.000 NA
ENDBRANCH  15  22
BRANCH  19  23
ATOM     23  C   UNL     1       1.583   4.490  18.043  0.00  0.00    +0.000 C 
BRANCH  23  24
ATOM     24  O   UNL     1       1.552   4.958  19.389  0.00  0.00    +0.000 OA
ATOM     25  H   UNL     1       2.350   4.610  19.830  0.00  0.00    +0.000 HD
ENDBRANCH  23  24
ENDBRANCH  19  23
ENDBRANCH   1  17
BRANCH   6  26
ATOM     26  C   UNL     1       8.982   9.610  17.967  0.00  0.00    +0.000 C 
ATOM     27  C   UNL     1       9.125  11.108  18.026  0.00  0.00    +0.000 C 
ATOM     28  C   UNL     1       9.208  10.301  19.287  0.00  0.00    +0.000 C 
ENDBRANCH   6  26
TORSDOF 5
ENDMDL
MODEL 6
REMARK VINA RESULT:      -7.3      3.352      8.060
REMARK  Name = 
REMARK  5 active torsions:
REMARK  status: ('A' for Active; 'I' for Inactive)
REMARK    1  A    between atoms: N_3  and  C_4
REMARK    2  A    between atoms: C_6  and  N_7
REMARK    3  A    between atoms: N_12  and  C_13
REMARK    4  A    between atoms: C_22  and  C_23
REMARK    5  A    between atoms: C_23  and  O_24
REMARK                            x       y       z     vdW  Elec       q    Type
REMARK                         _______ _______ _______ _____ _____    ______ ____
ROOT
ATOM      1  N   UNL     1       1.160   9.221  19.162  0.00  0.00    +0.000 N 
ATOM      2  C   UNL     1       1.571   9.760  17.969  0.00  0.00    +0.000 A 
ATOM      3  N   UNL     1       2.506   9.037  17.388  0.00  0.00    +0.000 NA
ATOM      4  C   UNL     1       2.667   7.943  18.216  0.00  0.00    +0.000 A 
ATOM      5  C   UNL     1       3.489   6.804  18.122  0.00  0.00    +0.000 A 
ATOM      6  N   UNL     1       4.409   6.653  17.067  0.00  0.00    +0.000 N 
ATOM      7  N   UNL     1       3.379   5.876  19.111  0.00  0.00    +0.000 NA
ATOM      8  C   UNL     1       2.514   6.074  20.122  0.00  0.00    +0.000 A 
ATOM      9  N   UNL     1       2.464   5.079  21.078  0.00  0.00    +0.000 N 
ATOM     10  N   UNL     1       1.719   7.142  20.313  0.00  0.00    +0.000 NA
ATOM     11  C   UNL     1       1.829   8.033  19.316  0.00  0.00    +0.000 A 
ATOM     12  H   UNL     1       4.360   7.427  16.410  0.00  0.00    +0.000 HD
ATOM     13  H   UNL     1       3.316   4.535  21.052  0.00  0.00    +0.000 HD
ATOM     14  H   UNL     1       2.163   5.438  21.972  0.00  0.00    +0.000 HD
ENDROOT
BRANCH   1  17
ATOM     15  C   UNL     1       0.806  12.002  20.584  0.00  0.00    +0.000 C 
ATOM     16  C   UNL     1       0.716  10.622  21.198  0.00  0.00    +0.000 C 
ATOM     17  C   UNL     1       0.158   9.777  20.062  0.00  0.00    +0.000 C 
ATOM     18  O   UNL     1      -0.707  10.658  19.304  0.00  0.00    +0.000 OA
ATOM     19  C   UNL     1      -0.435  12.027  19.691  0.00  0.00    +0.000 C 
BRANCH  15  22
ATOM     20  N   UNL     1       2.635  14.399  21.971  0.00  0.00    +0.000 NA
ATOM     21  N   UNL     1       1.721  13.752  21.796  0.00  0.00    +0.000 NA
ATOM     22  N   UNL     1       0.709  13.042  21.612  0.00  0.00    +0.000 NA
ENDBRANCH  15  22
BRANCH  19  23
ATOM     23  C   UNL     1      -0.236  12.893  18.445  0.00  0.00    +0.000 C 
BRANCH  23  24
ATOM     24  O   UNL     1      -1.294  12.691  17.512  0.00  0.00    +0.000 OA
ATOM     25  H   UNL     1      -2.130  12.834  17.994  0.00  0.00    +0.000 HD
ENDBRANCH  23  24
ENDBRANCH  19  23
ENDBRANCH   1  17
BRANCH   6  26
ATOM     26  C   UNL     1       4.859   5.335  16.630  0.00  0.00    +0.000 C 
ATOM     27  C   UNL     1       5.587   5.112  15.332  0.00  0.00    +0.000 C 
ATOM     28  C   UNL     1       6.331   5.014  16.629  0.00  0.00    +0.000 C 
ENDBRANCH   6  26
TORSDOF 5
ENDMDL
MODEL 7
REMARK VINA RESULT:      -7.3      1.646      1.983
REMARK  Name = 
REMARK  5 active torsions:
REMARK  status: ('A' for Active; 'I' for Inactive)
REMARK    1  A    between atoms: N_3  and  C_4
REMARK    2  A    between atoms: C_6  and  N_7
REMARK    3  A    between atoms: N_12  and  C_13
REMARK    4  A    between atoms: C_22  and  C_23
REMARK    5  A    between atoms: C_23  and  O_24
REMARK                            x       y       z     vdW  Elec       q    Type
REMARK                         _______ _______ _______ _____ _____    ______ ____
ROOT
ATOM      1  N   UNL     1       2.383   6.988  19.303  0.00  0.00    +0.000 N 
ATOM      2  C   UNL     1       1.810   6.457  20.431  0.00  0.00    +0.000 A 
ATOM      3  N   UNL     1       1.155   7.360  21.132  0.00  0.00    +0.000 NA
ATOM      4  C   UNL     1       1.258   8.521  20.391  0.00  0.00    +0.000 A 
ATOM      5  C   UNL     1       0.741   9.814  20.592  0.00  0.00    +0.000 A 
ATOM      6  N   UNL     1       0.015  10.138  21.754  0.00  0.00    +0.000 N 
ATOM      7  N   UNL     1       1.004  10.743  19.633  0.00  0.00    +0.000 NA
ATOM      8  C   UNL     1       1.732  10.404  18.554  0.00  0.00    +0.000 A 
ATOM      9  N   UNL     1       1.945  11.407  17.629  0.00  0.00    +0.000 N 
ATOM     10  N   UNL     1       2.294   9.210  18.296  0.00  0.00    +0.000 NA
ATOM     11  C   UNL     1       2.005   8.305  19.244  0.00  0.00    +0.000 A 
ATOM     12  H   UNL     1      -0.100   9.333  22.363  0.00  0.00    +0.000 HD
ATOM     13  H   UNL     1       1.816  12.310  18.067  0.00  0.00    +0.000 HD
ATOM     14  H   UNL     1       2.795  11.255  17.106  0.00  0.00    +0.000 HD
ENDROOT
BRANCH   1  17
ATOM     15  C   UNL     1       3.912   4.241  19.325  0.00  0.00    +0.000 C 
ATOM     16  C   UNL     1       4.430   5.594  18.886  0.00  0.00    +0.000 C 
ATOM     17  C   UNL     1       3.187   6.270  18.323  0.00  0.00    +0.000 C 
ATOM     18  O   UNL     1       2.384   5.206  17.754  0.00  0.00    +0.000 OA
ATOM     19  C   UNL     1       2.881   3.935  18.240  0.00  0.00    +0.000 C 
BRANCH  15  22
ATOM     20  N   UNL     1       5.014   1.648  21.080  0.00  0.00    +0.000 NA
ATOM     21  N   UNL     1       4.994   2.406  20.237  0.00  0.00    +0.000 NA
ATOM     22  N   UNL     1       4.980   3.238  19.304  0.00  0.00    +0.000 NA
ENDBRANCH  15  22
BRANCH  19  23
ATOM     23  C   UNL     1       1.720   3.086  18.765  0.00  0.00    +0.000 C 
BRANCH  23  24
ATOM     24  O   UNL     1       2.191   2.075  19.652  0.00  0.00    +0.000 OA
ATOM     25  H   UNL     1       3.103   2.316  19.899  0.00  0.00    +0.000 HD
ENDBRANCH  23  24
ENDBRANCH  19  23
ENDBRANCH   1  17
BRANCH   6  26
ATOM     26  C   UNL     1      -0.959  11.225  21.767  0.00  0.00    +0.000 C 
ATOM     27  C   UNL     1      -1.769  11.578  22.985  0.00  0.00    +0.000 C 
ATOM     28  C   UNL     1      -0.660  12.483  22.541  0.00  0.00    +0.000 C 
ENDBRANCH   6  26
TORSDOF 5
ENDMDL
MODEL 8
REMARK VINA RESULT:      -7.3      2.407      3.640
REMARK  Name = 
REMARK  5 active torsions:
REMARK  status: ('A' for Active; 'I' for Inactive)
REMARK    1  A    between atoms: N_3  and  C_4
REMARK    2  A    between atoms: C_6  and  N_7
REMARK    3  A    between atoms: N_12  and  C_13
REMARK    4  A    between atoms: C_22  and  C_23
REMARK    5  A    between atoms: C_23  and  O_24
REMARK                            x       y       z     vdW  Elec       q    Type
REMARK                         _______ _______ _______ _____ _____    ______ ____
ROOT
ATOM      1  N   UNL     1       2.412   7.192  19.048  0.00  0.00    +0.000 N 
ATOM      2  C   UNL     1       2.715   7.757  17.835  0.00  0.00    +0.000 A 
ATOM      3  N   UNL     1       2.209   8.965  17.704  0.00  0.00    +0.000 NA
ATOM      4  C   UNL     1       1.596   9.221  18.915  0.00  0.00    +0.000 A 
ATOM      5  C   UNL     1       0.914  10.351  19.404  0.00  0.00    +0.000 A 
ATOM      6  N   UNL     1       0.691  11.478  18.591  0.00  0.00    +0.000 N 
ATOM      7  N   UNL     1       0.450  10.290  20.682  0.00  0.00    +0.000 NA
ATOM      8  C   UNL     1       0.652   9.181  21.416  0.00  0.00    +0.000 A 
ATOM      9  N   UNL     1       0.153   9.208  22.704  0.00  0.00    +0.000 N 
ATOM     10  N   UNL     1       1.258   8.046  21.023  0.00  0.00    +0.000 NA
ATOM     11  C   UNL     1       1.725   8.137  19.768  0.00  0.00    +0.000 A 
ATOM     12  H   UNL     1       1.107  11.367  17.671  0.00  0.00    +0.000 HD
ATOM     13  H   UNL     1      -0.572   9.910  22.775  0.00  0.00    +0.000 HD
ATOM     14  H   UNL     1      -0.056   8.280  23.040  0.00  0.00    +0.000 HD
ENDROOT
BRANCH   1  17
ATOM     15  C   UNL     1       2.556   4.368  17.676  0.00  0.00    +0.000 C 
ATOM     16  C   UNL     1       1.919   4.730  19.000  0.00  0.00    +0.000 C 
ATOM     17  C   UNL     1       2.800   5.865  19.505  0.00  0.00    +0.000 C 
ATOM     18  O   UNL     1       4.132   5.577  19.013  0.00  0.00    +0.000 OA
ATOM     19  C   UNL     1       4.041   4.565  17.980  0.00  0.00    +0.000 C 
BRANCH  15  22
ATOM     20  N   UNL     1       3.663   1.317  18.371  0.00  0.00    +0.000 NA
ATOM     21  N   UNL     1       3.013   2.105  17.880  0.00  0.00    +0.000 NA
ATOM     22  N   UNL     1       2.293   2.968  17.332  0.00  0.00    +0.000 NA
ENDBRANCH  15  22
BRANCH  19  23
ATOM     23  C   UNL     1       4.833   5.004  16.747  0.00  0.00    +0.000 C 
BRANCH  23  24
ATOM     24  O   UNL     1       4.898   3.954  15.785  0.00  0.00    +0.000 OA
ATOM     25  H   UNL     1       4.110   3.395  15.920  0.00  0.00    +0.000 HD
ENDBRANCH  23  24
ENDBRANCH  19  23
ENDBRANCH   1  17
BRANCH   6  26
ATOM     26  C   UNL     1       0.498  12.806  19.165  0.00  0.00    +0.000 C 
ATOM     27  C   UNL     1       1.213  14.027  18.650  0.00  0.00    +0.000 C 
ATOM     28  C   UNL     1      -0.252  13.854  18.383  0.00  0.00    +0.000 C 
ENDBRANCH   6  26
TORSDOF 5
ENDMDL
MODEL 9
REMARK VINA RESULT:      -7.2      1.874      2.114
REMARK  Name = 
REMARK  5 active torsions:
REMARK  status: ('A' for Active; 'I' for Inactive)
REMARK    1  A    between atoms: N_3  and  C_4
REMARK    2  A    between atoms: C_6  and  N_7
REMARK    3  A    between atoms: N_12  and  C_13
REMARK    4  A    between atoms: C_22  and  C_23
REMARK    5  A    between atoms: C_23  and  O_24
REMARK                            x       y       z     vdW  Elec       q    Type
REMARK                         _______ _______ _______ _____ _____    ______ ____
ROOT
ATOM      1  N   UNL     1       3.154   6.141  18.677  0.00  0.00    +0.000 N 
ATOM      2  C   UNL     1       2.792   5.403  19.776  0.00  0.00    +0.000 A 
ATOM      3  N   UNL     1       2.075   6.099  20.634  0.00  0.00    +0.000 NA
ATOM      4  C   UNL     1       1.914   7.333  20.034  0.00  0.00    +0.000 A 
ATOM      5  C   UNL     1       1.219   8.490  20.434  0.00  0.00    +0.000 A 
ATOM      6  N   UNL     1       0.572   8.558  21.683  0.00  0.00    +0.000 N 
ATOM      7  N   UNL     1       1.230   9.548  19.578  0.00  0.00    +0.000 NA
ATOM      8  C   UNL     1       1.890   9.456  18.409  0.00  0.00    +0.000 A 
ATOM      9  N   UNL     1       1.843  10.574  17.599  0.00  0.00    +0.000 N 
ATOM     10  N   UNL     1       2.607   8.410  17.961  0.00  0.00    +0.000 NA
ATOM     11  C   UNL     1       2.565   7.373  18.812  0.00  0.00    +0.000 A 
ATOM     12  H   UNL     1       0.651   7.685  22.196  0.00  0.00    +0.000 HD
ATOM     13  H   UNL     1       1.616  11.389  18.153  0.00  0.00    +0.000 HD
ATOM     14  H   UNL     1       2.648  10.626  16.994  0.00  0.00    +0.000 HD
ENDROOT
BRANCH   1  17
ATOM     15  C   UNL     1       6.061   6.783  17.669  0.00  0.00    +0.000 C 
ATOM     16  C   UNL     1       4.778   6.765  16.867  0.00  0.00    +0.000 C 
ATOM     17  C   UNL     1       3.959   5.681  17.554  0.00  0.00    +0.000 C 
ATOM     18  O   UNL     1       4.920   4.711  18.040  0.00  0.00    +0.000 OA
ATOM     19  C   UNL     1       6.242   5.302  18.002  0.00  0.00    +0.000 C 
BRANCH  15  22
ATOM     20  N   UNL     1       8.413   9.125  17.682  0.00  0.00    +0.000 NA
ATOM     21  N   UNL     1       7.826   8.237  17.292  0.00  0.00    +0.000 NA
ATOM     22  N   UNL     1       7.183   7.258  16.855  0.00  0.00    +0.000 NA
ENDBRANCH  15  22
BRANCH  19  23
ATOM     23  C   UNL     1       6.949   5.090  19.343  0.00  0.00    +0.000 C 
BRANCH  23  24
ATOM     24  O   UNL     1       7.973   6.061  19.535  0.00  0.00    +0.000 OA
ATOM     25  H   UNL     1       8.794   5.687  19.165  0.00  0.00    +0.000 HD
ENDBRANCH  23  24
ENDBRANCH  19  23
ENDBRANCH   1  17
BRANCH   6  26
ATOM     26  C   UNL     1      -0.557   9.455  21.909  0.00  0.00    +0.000 C 
ATOM     27  C   UNL     1      -0.868  10.049  23.257  0.00  0.00    +0.000 C 
ATOM     28  C   UNL     1      -0.306  10.917  22.171  0.00  0.00    +0.000 C 
ENDBRANCH   6  26
TORSDOF 5
ENDMDL
