MODEL 1
REMARK VINA RESULT:      -8.6      0.000      0.000
REMARK  Name = 
REMARK  5 active torsions:
REMARK  status: ('A' for Active; 'I' for Inactive)
REMARK    1  A    between atoms: C_4  and  C_5
REMARK    2  A    between atoms: C_5  and  N_6
REMARK    3  A    between atoms: C_10  and  C_11
REMARK    4  A    between atoms: C_14  and  C_15
REMARK    5  A    between atoms: C_15  and  N_16
REMARK                            x       y       z     vdW  Elec       q    Type
REMARK                         _______ _______ _______ _____ _____    ______ ____
ROOT
ATOM      1  N   UNL     1       5.819   4.057  16.344  0.00  0.00    +0.000 N 
ATOM      2  C   UNL     1       4.957   4.998  16.853  0.00  0.00    +0.000 A 
ATOM      3  N   UNL     1       5.264   6.265  16.949  0.00  0.00    +0.000 NA
ATOM      4  C   UNL     1       4.346   7.115  17.550  0.00  0.00    +0.000 A 
ATOM      5  C   UNL     1       3.118   6.767  17.998  0.00  0.00    +0.000 A 
ATOM      6  C   UNL     1       2.752   5.410  17.829  0.00  0.00    +0.000 A 
ATOM      7  N   UNL     1       1.665   4.723  18.114  0.00  0.00    +0.000 NA
ATOM      8  N   UNL     1       1.888   3.413  17.753  0.00  0.00    +0.000 NA
ATOM      9  C   UNL     1       3.106   3.338  17.268  0.00  0.00    +0.000 A 
ATOM     10  N   UNL     1       3.694   4.571  17.289  0.00  0.00    +0.000 N 
ATOM     11  H   UNL     1       5.519   3.093  16.248  0.00  0.00    +0.000 HD
ENDROOT
BRANCH   5  12
ATOM     12  C   UNL     1       2.307   7.739  18.756  0.00  0.00    +0.000 A 
ATOM     13  C   UNL     1       1.972   7.562  20.102  0.00  0.00    +0.000 A 
ATOM     14  C   UNL     1       1.140   8.489  20.753  0.00  0.00    +0.000 A 
ATOM     15  C   UNL     1       0.626   9.601  20.066  0.00  0.00    +0.000 A 
ATOM     16  C   UNL     1       1.034   9.810  18.743  0.00  0.00    +0.000 A 
ATOM     17  C   UNL     1       1.859   8.890  18.093  0.00  0.00    +0.000 A 
BRANCH  15  18
ATOM     18  C   UNL     1      -0.458  10.478  20.665  0.00  0.00    +0.000 C 
BRANCH  18  19
ATOM     19  N   UNL     1      -0.238  11.147  21.943  0.00  0.00    +0.000 NA
ATOM     20  C   UNL     1      -1.026  10.674  23.075  0.00  0.00    +0.000 C 
ATOM     21  C   UNL     1      -2.124  11.703  23.248  0.00  0.00    +0.000 C 
ATOM     22  C   UNL     1      -1.472  13.005  22.820  0.00  0.00    +0.000 C 
ATOM     23  C   UNL     1      -0.312  12.603  21.918  0.00  0.00    +0.000 C 
ENDBRANCH  18  19
ENDBRANCH  15  18
ENDBRANCH   5  12
BRANCH   1  24
ATOM     24  C   UNL     1       6.876   4.367  15.398  0.00  0.00    +0.000 C 
BRANCH  24  28
ATOM     25  C   UNL     1       6.192   3.653  11.805  0.00  0.00    +0.000 A 
ATOM     26  C   UNL     1       4.977   3.616  12.447  0.00  0.00    +0.000 A 
ATOM     27  O   UNL     1       5.130   3.879  13.769  0.00  0.00    +0.000 OA
ATOM     28  C   UNL     1       6.471   4.079  13.987  0.00  0.00    +0.000 A 
ATOM     29  C   UNL     1       7.157   3.952  12.799  0.00  0.00    +0.000 A 
ENDBRANCH  24  28
ENDBRANCH   1  24
TORSDOF 5
ENDMDL
MODEL 2
REMARK VINA RESULT:      -8.6      1.822      2.576
REMARK  Name = 
REMARK  5 active torsions:
REMARK  status: ('A' for Active; 'I' for Inactive)
REMARK    1  A    between atoms: C_4  and  C_5
REMARK    2  A    between atoms: C_5  and  N_6
REMARK    3  A    between atoms: C_10  and  C_11
REMARK    4  A    between atoms: C_14  and  C_15
REMARK    5  A    between atoms: C_15  and  N_16
REMARK                            x       y       z     vdW  Elec       q    Type
REMARK                         _______ _______ _______ _____ _____    ______ ____
ROOT
ATOM      1  N   UNL     1       6.395   4.388  18.229  0.00  0.00    +0.000 N 
ATOM      2  C   UNL     1       5.341   5.268  18.279  0.00  0.00    +0.000 A 
ATOM      3  N   UNL     1       5.427   6.503  17.856  0.00  0.00    +0.000 NA
ATOM      4  C   UNL     1       4.324   7.327  18.028  0.00  0.00    +0.000 A 
ATOM      5  C   UNL     1       3.128   6.957  18.540  0.00  0.00    +0.000 A 
ATOM      6  C   UNL     1       3.008   5.602  18.931  0.00  0.00    +0.000 A 
ATOM      7  N   UNL     1       2.023   4.889  19.438  0.00  0.00    +0.000 NA
ATOM      8  N   UNL     1       2.493   3.614  19.654  0.00  0.00    +0.000 NA
ATOM      9  C   UNL     1       3.752   3.588  19.281  0.00  0.00    +0.000 A 
ATOM     10  N   UNL     1       4.126   4.816  18.813  0.00  0.00    +0.000 N 
ATOM     11  H   UNL     1       6.268   3.427  18.527  0.00  0.00    +0.000 HD
ENDROOT
BRANCH   5  12
ATOM     12  C   UNL     1       2.093   7.975  18.806  0.00  0.00    +0.000 A 
ATOM     13  C   UNL     1       1.542   8.778  17.802  0.00  0.00    +0.000 A 
ATOM     14  C   UNL     1       0.609   9.777  18.126  0.00  0.00    +0.000 A 
ATOM     15  C   UNL     1       0.218   9.991  19.458  0.00  0.00    +0.000 A 
ATOM     16  C   UNL     1       0.715   9.128  20.443  0.00  0.00    +0.000 A 
ATOM     17  C   UNL     1       1.644   8.136  20.123  0.00  0.00    +0.000 A 
BRANCH  15  18
ATOM     18  C   UNL     1      -0.594  11.207  19.866  0.00  0.00    +0.000 C 
BRANCH  18  19
ATOM     19  N   UNL     1       0.063  12.495  20.065  0.00  0.00    +0.000 NA
ATOM     20  C   UNL     1       0.011  13.436  18.953  0.00  0.00    +0.000 C 
ATOM     21  C   UNL     1       1.378  13.358  18.306  0.00  0.00    +0.000 C 
ATOM     22  C   UNL     1       2.313  13.064  19.465  0.00  0.00    +0.000 C 
ATOM     23  C   UNL     1       1.440  12.437  20.544  0.00  0.00    +0.000 C 
ENDBRANCH  18  19
ENDBRANCH  15  18
ENDBRANCH   5  12
BRANCH   1  24
ATOM     24  C   UNL     1       7.482   4.493  17.273  0.00  0.00    +0.000 C 
BRANCH  24  28
ATOM     25  C   UNL     1       6.053   3.998  13.867  0.00  0.00    +0.000 A 
ATOM     26  C   UNL     1       7.056   4.929  13.736  0.00  0.00    +0.000 A 
ATOM     27  O   UNL     1       7.645   5.164  14.936  0.00  0.00    +0.000 OA
ATOM     28  C   UNL     1       7.003   4.378  15.860  0.00  0.00    +0.000 A 
ATOM     29  C   UNL     1       6.018   3.642  15.238  0.00  0.00    +0.000 A 
ENDBRANCH  24  28
ENDBRANCH   1  24
TORSDOF 5
ENDMDL
MODEL 3
REMARK VINA RESULT:      -8.5      1.706      2.265
REMARK  Name = 
REMARK  5 active torsions:
REMARK  status: ('A' for Active; 'I' for Inactive)
REMARK    1  A    between atoms: C_4  and  C_5
REMARK    2  A    between atoms: C_5  and  N_6
REMARK    3  A    between atoms: C_10  and  C_11
REMARK    4  A    between atoms: C_14  and  C_15
REMARK    5  A    between atoms: C_15  and  N_16
REMARK                            x       y       z     vdW  Elec       q    Type
REMARK                         _______ _______ _______ _____ _____    ______ ____
ROOT
ATOM      1  N   UNL     1       6.417   4.305  18.156  0.00  0.00    +0.000 N 
ATOM      2  C   UNL     1       5.383   5.207  18.234  0.00  0.00    +0.000 A 
ATOM      3  N   UNL     1       5.490   6.447  17.834  0.00  0.00    +0.000 NA
ATOM      4  C   UNL     1       4.407   7.291  18.033  0.00  0.00    +0.000 A 
ATOM      5  C   UNL     1       3.209   6.936  18.551  0.00  0.00    +0.000 A 
ATOM      6  C   UNL     1       3.064   5.576  18.918  0.00  0.00    +0.000 A 
ATOM      7  N   UNL     1       2.070   4.875  19.423  0.00  0.00    +0.000 NA
ATOM      8  N   UNL     1       2.516   3.586  19.609  0.00  0.00    +0.000 NA
ATOM      9  C   UNL     1       3.770   3.541  19.221  0.00  0.00    +0.000 A 
ATOM     10  N   UNL     1       4.164   4.770  18.773  0.00  0.00    +0.000 N 
ATOM     11  H   UNL     1       6.273   3.342  18.438  0.00  0.00    +0.000 HD
ENDROOT
BRANCH   5  12
ATOM     12  C   UNL     1       2.198   7.970  18.848  0.00  0.00    +0.000 A 
ATOM     13  C   UNL     1       1.690   8.187  20.132  0.00  0.00    +0.000 A 
ATOM     14  C   UNL     1       0.679   9.140  20.343  0.00  0.00    +0.000 A 
ATOM     15  C   UNL     1       0.159   9.885  19.272  0.00  0.00    +0.000 A 
ATOM     16  C   UNL     1       0.733   9.716  18.005  0.00  0.00    +0.000 A 
ATOM     17  C   UNL     1       1.736   8.768  17.794  0.00  0.00    +0.000 A 
BRANCH  15  18
ATOM     18  C   UNL     1      -1.087  10.738  19.423  0.00  0.00    +0.000 C 
BRANCH  18  19
ATOM     19  N   UNL     1      -0.968  12.172  19.674  0.00  0.00    +0.000 NA
ATOM     20  C   UNL     1      -0.773  13.027  18.509  0.00  0.00    +0.000 C 
ATOM     21  C   UNL     1       0.702  13.370  18.514  0.00  0.00    +0.000 C 
ATOM     22  C   UNL     1       1.062  13.408  19.988  0.00  0.00    +0.000 C 
ATOM     23  C   UNL     1       0.007  12.559  20.687  0.00  0.00    +0.000 C 
ENDBRANCH  18  19
ENDBRANCH  15  18
ENDBRANCH   5  12
BRANCH   1  24
ATOM     24  C   UNL     1       7.497   4.406  17.190  0.00  0.00    +0.000 C 
BRANCH  24  28
ATOM     25  C   UNL     1       6.019   4.035  13.789  0.00  0.00    +0.000 A 
ATOM     26  C   UNL     1       7.035   4.954  13.673  0.00  0.00    +0.000 A 
ATOM     27  O   UNL     1       7.641   5.145  14.872  0.00  0.00    +0.000 OA
ATOM     28  C   UNL     1       6.999   4.341  15.781  0.00  0.00    +0.000 A 
ATOM     29  C   UNL     1       5.996   3.638  15.149  0.00  0.00    +0.000 A 
ENDBRANCH  24  28
ENDBRANCH   1  24
TORSDOF 5
ENDMDL
MODEL 4
REMARK VINA RESULT:      -8.3      1.384      2.141
REMARK  Name = 
REMARK  5 active torsions:
REMARK  status: ('A' for Active; 'I' for Inactive)
REMARK    1  A    between atoms: C_4  and  C_5
REMARK    2  A    between atoms: C_5  and  N_6
REMARK    3  A    between atoms: C_10  and  C_11
REMARK    4  A    between atoms: C_14  and  C_15
REMARK    5  A    between atoms: C_15  and  N_16
REMARK                            x       y       z     vdW  Elec       q    Type
REMARK                         _______ _______ _______ _____ _____    ______ ____
ROOT
ATOM      1  N   UNL     1       6.042   4.481  16.719  0.00  0.00    +0.000 N 
ATOM      2  C   UNL     1       5.071   5.379  17.089  0.00  0.00    +0.000 A 
ATOM      3  N   UNL     1       5.300   6.660  17.219  0.00  0.00    +0.000 NA
ATOM      4  C   UNL     1       4.265   7.464  17.674  0.00  0.00    +0.000 A 
ATOM      5  C   UNL     1       3.003   7.058  17.940  0.00  0.00    +0.000 A 
ATOM      6  C   UNL     1       2.730   5.684  17.730  0.00  0.00    +0.000 A 
ATOM      7  N   UNL     1       1.647   4.945  17.859  0.00  0.00    +0.000 NA
ATOM      8  N   UNL     1       1.983   3.648  17.545  0.00  0.00    +0.000 NA
ATOM      9  C   UNL     1       3.262   3.632  17.243  0.00  0.00    +0.000 A 
ATOM     10  N   UNL     1       3.780   4.892  17.340  0.00  0.00    +0.000 N 
ATOM     11  H   UNL     1       5.806   3.503  16.588  0.00  0.00    +0.000 HD
ENDROOT
BRANCH   5  12
ATOM     12  C   UNL     1       2.044   7.990  18.564  0.00  0.00    +0.000 A 
ATOM     13  C   UNL     1       1.334   8.949  17.835  0.00  0.00    +0.000 A 
ATOM     14  C   UNL     1       0.484   9.854  18.493  0.00  0.00    +0.000 A 
ATOM     15  C   UNL     1       0.339   9.819  19.889  0.00  0.00    +0.000 A 
ATOM     16  C   UNL     1       0.992   8.803  20.599  0.00  0.00    +0.000 A 
ATOM     17  C   UNL     1       1.838   7.903  19.947  0.00  0.00    +0.000 A 
BRANCH  15  18
ATOM     18  C   UNL     1      -0.373  10.925  20.646  0.00  0.00    +0.000 C 
BRANCH  18  19
ATOM     19  N   UNL     1       0.189  12.272  20.678  0.00  0.00    +0.000 NA
ATOM     20  C   UNL     1      -0.449  13.268  19.826  0.00  0.00    +0.000 C 
ATOM     21  C   UNL     1       0.469  13.410  18.630  0.00  0.00    +0.000 C 
ATOM     22  C   UNL     1       1.854  13.165  19.203  0.00  0.00    +0.000 C 
ATOM     23  C   UNL     1       1.631  12.362  20.478  0.00  0.00    +0.000 C 
ENDBRANCH  18  19
ENDBRANCH  15  18
ENDBRANCH   5  12
BRANCH   1  24
ATOM     24  C   UNL     1       7.210   4.841  15.935  0.00  0.00    +0.000 C 
BRANCH  24  28
ATOM     25  C   UNL     1       6.490   3.927  12.395  0.00  0.00    +0.000 A 
ATOM     26  C   UNL     1       7.461   4.899  12.356  0.00  0.00    +0.000 A 
ATOM     27  O   UNL     1       7.796   5.287  13.612  0.00  0.00    +0.000 OA
ATOM     28  C   UNL     1       7.019   4.558  14.479  0.00  0.00    +0.000 A 
ATOM     29  C   UNL     1       6.204   3.707  13.765  0.00  0.00    +0.000 A 
ENDBRANCH  24  28
ENDBRANCH   1  24
TORSDOF 5
ENDMDL
MODEL 5
REMARK VINA RESULT:      -8.3      1.391      1.683
REMARK  Name = 
REMARK  5 active torsions:
REMARK  status: ('A' for Active; 'I' for Inactive)
REMARK    1  A    between atoms: C_4  and  C_5
REMARK    2  A    between atoms: C_5  and  N_6
REMARK    3  A    between atoms: C_10  and  C_11
REMARK    4  A    between atoms: C_14  and  C_15
REMARK    5  A    between atoms: C_15  and  N_16
REMARK                            x       y       z     vdW  Elec       q    Type
REMARK                         _______ _______ _______ _____ _____    ______ ____
ROOT
ATOM      1  N   UNL     1       6.398   4.304  18.148  0.00  0.00    +0.000 N 
ATOM      2  C   UNL     1       5.364   5.204  18.239  0.00  0.00    +0.000 A 
ATOM      3  N   UNL     1       5.471   6.450  17.858  0.00  0.00    +0.000 NA
ATOM      4  C   UNL     1       4.388   7.291  18.068  0.00  0.00    +0.000 A 
ATOM      5  C   UNL     1       3.189   6.928  18.579  0.00  0.00    +0.000 A 
ATOM      6  C   UNL     1       3.044   5.563  18.926  0.00  0.00    +0.000 A 
ATOM      7  N   UNL     1       2.049   4.855  19.419  0.00  0.00    +0.000 NA
ATOM      8  N   UNL     1       2.494   3.563  19.586  0.00  0.00    +0.000 NA
ATOM      9  C   UNL     1       3.749   3.524  19.199  0.00  0.00    +0.000 A 
ATOM     10  N   UNL     1       4.144   4.759  18.769  0.00  0.00    +0.000 N 
ATOM     11  H   UNL     1       6.253   3.336  18.416  0.00  0.00    +0.000 HD
ENDROOT
BRANCH   5  12
ATOM     12  C   UNL     1       2.178   7.958  18.890  0.00  0.00    +0.000 A 
ATOM     13  C   UNL     1       1.662   8.150  20.176  0.00  0.00    +0.000 A 
ATOM     14  C   UNL     1       0.652   9.101  20.399  0.00  0.00    +0.000 A 
ATOM     15  C   UNL     1       0.139   9.867  19.340  0.00  0.00    +0.000 A 
ATOM     16  C   UNL     1       0.721   9.723  18.073  0.00  0.00    +0.000 A 
ATOM     17  C   UNL     1       1.723   8.777  17.850  0.00  0.00    +0.000 A 
BRANCH  15  18
ATOM     18  C   UNL     1      -1.106  10.720  19.500  0.00  0.00    +0.000 C 
BRANCH  18  19
ATOM     19  N   UNL     1      -1.032  12.005  20.187  0.00  0.00    +0.000 NA
ATOM     20  C   UNL     1      -0.144  12.082  21.342  0.00  0.00    +0.000 C 
ATOM     21  C   UNL     1      -1.058  12.010  22.547  0.00  0.00    +0.000 C 
ATOM     22  C   UNL     1      -2.329  12.696  22.081  0.00  0.00    +0.000 C 
ATOM     23  C   UNL     1      -2.311  12.600  20.561  0.00  0.00    +0.000 C 
ENDBRANCH  18  19
ENDBRANCH  15  18
ENDBRANCH   5  12
BRANCH   1  24
ATOM     24  C   UNL     1       7.478   4.419  17.185  0.00  0.00    +0.000 C 
BRANCH  24  28
ATOM     25  C   UNL     1       6.011   4.030  13.781  0.00  0.00    +0.000 A 
ATOM     26  C   UNL     1       7.031   4.945  13.663  0.00  0.00    +0.000 A 
ATOM     27  O   UNL     1       7.634   5.142  14.863  0.00  0.00    +0.000 OA
ATOM     28  C   UNL     1       6.985   4.346  15.775  0.00  0.00    +0.000 A 
ATOM     29  C   UNL     1       5.982   3.643  15.144  0.00  0.00    +0.000 A 
ENDBRANCH  24  28
ENDBRANCH   1  24
TORSDOF 5
ENDMDL
MODEL 6
REMARK VINA RESULT:      -8.3      0.966      1.295
REMARK  Name = 
REMARK  5 active torsions:
REMARK  status: ('A' for Active; 'I' for Inactive)
REMARK    1  A    between atoms: C_4  and  C_5
REMARK    2  A    between atoms: C_5  and  N_6
REMARK    3  A    between atoms: C_10  and  C_11
REMARK    4  A    between atoms: C_14  and  C_15
REMARK    5  A    between atoms: C_15  and  N_16
REMARK                            x       y       z     vdW  Elec       q    Type
REMARK                         _______ _______ _______ _____ _____    ______ ____
ROOT
ATOM      1  N   UNL     1       5.689   3.975  16.258  0.00  0.00    +0.000 N 
ATOM      2  C   UNL     1       4.841   4.912  16.796  0.00  0.00    +0.000 A 
ATOM      3  N   UNL     1       5.146   6.181  16.880  0.00  0.00    +0.000 NA
ATOM      4  C   UNL     1       4.247   7.026  17.513  0.00  0.00    +0.000 A 
ATOM      5  C   UNL     1       3.037   6.674  18.006  0.00  0.00    +0.000 A 
ATOM      6  C   UNL     1       2.671   5.314  17.852  0.00  0.00    +0.000 A 
ATOM      7  N   UNL     1       1.599   4.622  18.177  0.00  0.00    +0.000 NA
ATOM      8  N   UNL     1       1.815   3.314  17.810  0.00  0.00    +0.000 NA
ATOM      9  C   UNL     1       3.015   3.244  17.281  0.00  0.00    +0.000 A 
ATOM     10  N   UNL     1       3.597   4.480  17.279  0.00  0.00    +0.000 N 
ATOM     11  H   UNL     1       5.390   3.009  16.173  0.00  0.00    +0.000 HD
ENDROOT
BRANCH   5  12
ATOM     12  C   UNL     1       2.250   7.643  18.792  0.00  0.00    +0.000 A 
ATOM     13  C   UNL     1       2.000   7.487  20.159  0.00  0.00    +0.000 A 
ATOM     14  C   UNL     1       1.187   8.407  20.841  0.00  0.00    +0.000 A 
ATOM     15  C   UNL     1       0.606   9.492  20.165  0.00  0.00    +0.000 A 
ATOM     16  C   UNL     1       0.929   9.683  18.815  0.00  0.00    +0.000 A 
ATOM     17  C   UNL     1       1.736   8.768  18.136  0.00  0.00    +0.000 A 
BRANCH  15  18
ATOM     18  C   UNL     1      -0.461  10.357  20.810  0.00  0.00    +0.000 C 
BRANCH  18  19
ATOM     19  N   UNL     1      -0.696  11.715  20.328  0.00  0.00    +0.000 NA
ATOM     20  C   UNL     1      -0.628  12.783  21.317  0.00  0.00    +0.000 C 
ATOM     21  C   UNL     1      -2.070  13.134  21.619  0.00  0.00    +0.000 C 
ATOM     22  C   UNL     1      -2.788  12.886  20.304  0.00  0.00    +0.000 C 
ATOM     23  C   UNL     1      -1.908  11.906  19.538  0.00  0.00    +0.000 C 
ENDBRANCH  18  19
ENDBRANCH  15  18
ENDBRANCH   5  12
BRANCH   1  24
ATOM     24  C   UNL     1       6.708   4.289  15.273  0.00  0.00    +0.000 C 
BRANCH  24  28
ATOM     25  C   UNL     1       5.333   3.369  11.934  0.00  0.00    +0.000 A 
ATOM     26  C   UNL     1       6.673   3.616  11.748  0.00  0.00    +0.000 A 
ATOM     27  O   UNL     1       7.262   3.950  12.924  0.00  0.00    +0.000 OA
ATOM     28  C   UNL     1       6.282   3.928  13.885  0.00  0.00    +0.000 A 
ATOM     29  C   UNL     1       5.080   3.570  13.314  0.00  0.00    +0.000 A 
ENDBRANCH  24  28
ENDBRANCH   1  24
TORSDOF 5
ENDMDL
MODEL 7
REMARK VINA RESULT:      -8.2      1.290      1.740
REMARK  Name = 
REMARK  5 active torsions:
REMARK  status: ('A' for Active; 'I' for Inactive)
REMARK    1  A    between atoms: C_4  and  C_5
REMARK    2  A    between atoms: C_5  and  N_6
REMARK    3  A    between atoms: C_10  and  C_11
REMARK    4  A    between atoms: C_14  and  C_15
REMARK    5  A    between atoms: C_15  and  N_16
REMARK                            x       y       z     vdW  Elec       q    Type
REMARK                         _______ _______ _______ _____ _____    ______ ____
ROOT
ATOM      1  N   UNL     1       6.048   4.306  16.228  0.00  0.00    +0.000 N 
ATOM      2  C   UNL     1       5.111   5.188  16.709  0.00  0.00    +0.000 A 
ATOM      3  N   UNL     1       5.193   6.480  16.526  0.00  0.00    +0.000 NA
ATOM      4  C   UNL     1       4.232   7.284  17.123  0.00  0.00    +0.000 A 
ATOM      5  C   UNL     1       3.166   6.852  17.834  0.00  0.00    +0.000 A 
ATOM      6  C   UNL     1       3.033   5.449  17.972  0.00  0.00    +0.000 A 
ATOM      7  N   UNL     1       2.142   4.677  18.560  0.00  0.00    +0.000 NA
ATOM      8  N   UNL     1       2.546   3.371  18.400  0.00  0.00    +0.000 NA
ATOM      9  C   UNL     1       3.675   3.386  17.728  0.00  0.00    +0.000 A 
ATOM     10  N   UNL     1       4.024   4.672  17.430  0.00  0.00    +0.000 N 
ATOM     11  H   UNL     1       5.919   3.308  16.357  0.00  0.00    +0.000 HD
ENDROOT
BRANCH   5  12
ATOM     12  C   UNL     1       2.309   7.823  18.541  0.00  0.00    +0.000 A 
ATOM     13  C   UNL     1       2.024   7.729  19.907  0.00  0.00    +0.000 A 
ATOM     14  C   UNL     1       1.146   8.645  20.513  0.00  0.00    +0.000 A 
ATOM     15  C   UNL     1       0.537   9.662  19.761  0.00  0.00    +0.000 A 
ATOM     16  C   UNL     1       0.894   9.796  18.412  0.00  0.00    +0.000 A 
ATOM     17  C   UNL     1       1.764   8.886  17.809  0.00  0.00    +0.000 A 
BRANCH  15  18
ATOM     18  C   UNL     1      -0.589  10.508  20.325  0.00  0.00    +0.000 C 
BRANCH  18  19
ATOM     19  N   UNL     1      -0.370  11.921  20.619  0.00  0.00    +0.000 NA
ATOM     20  C   UNL     1      -0.961  12.882  19.695  0.00  0.00    +0.000 C 
ATOM     21  C   UNL     1       0.189  13.356  18.831  0.00  0.00    +0.000 C 
ATOM     22  C   UNL     1       1.388  13.307  19.761  0.00  0.00    +0.000 C 
ATOM     23  C   UNL     1       1.016  12.312  20.853  0.00  0.00    +0.000 C 
ENDBRANCH  18  19
ENDBRANCH  15  18
ENDBRANCH   5  12
BRANCH   1  24
ATOM     24  C   UNL     1       6.883   4.574  15.071  0.00  0.00    +0.000 C 
BRANCH  24  28
ATOM     25  C   UNL     1       5.102   3.295  12.057  0.00  0.00    +0.000 A 
ATOM     26  C   UNL     1       6.446   3.201  11.784  0.00  0.00    +0.000 A 
ATOM     27  O   UNL     1       7.178   3.638  12.841  0.00  0.00    +0.000 OA
ATOM     28  C   UNL     1       6.289   4.032  13.810  0.00  0.00    +0.000 A 
ATOM     29  C   UNL     1       5.000   3.832  13.365  0.00  0.00    +0.000 A 
ENDBRANCH  24  28
ENDBRANCH   1  24
TORSDOF 5
ENDMDL
MODEL 8
REMARK VINA RESULT:      -8.1      1.769      2.363
REMARK  Name = 
REMARK  5 active torsions:
REMARK  status: ('A' for Active; 'I' for Inactive)
REMARK    1  A    between atoms: C_4  and  C_5
REMARK    2  A    between atoms: C_5  and  N_6
REMARK    3  A    between atoms: C_10  and  C_11
REMARK    4  A    between atoms: C_14  and  C_15
REMARK    5  A    between atoms: C_15  and  N_16
REMARK                            x       y       z     vdW  Elec       q    Type
REMARK                         _______ _______ _______ _____ _____    ______ ____
ROOT
ATOM      1  N   UNL     1       6.375   4.282  18.121  0.00  0.00    +0.000 N 
ATOM      2  C   UNL     1       5.337   5.175  18.230  0.00  0.00    +0.000 A 
ATOM      3  N   UNL     1       5.444   6.433  17.891  0.00  0.00    +0.000 NA
ATOM      4  C   UNL     1       4.355   7.263  18.116  0.00  0.00    +0.000 A 
ATOM      5  C   UNL     1       3.152   6.880  18.601  0.00  0.00    +0.000 A 
ATOM      6  C   UNL     1       3.008   5.504  18.901  0.00  0.00    +0.000 A 
ATOM      7  N   UNL     1       2.010   4.776  19.359  0.00  0.00    +0.000 NA
ATOM      8  N   UNL     1       2.458   3.482  19.489  0.00  0.00    +0.000 NA
ATOM      9  C   UNL     1       3.717   3.459  19.116  0.00  0.00    +0.000 A 
ATOM     10  N   UNL     1       4.113   4.709  18.731  0.00  0.00    +0.000 N 
ATOM     11  H   UNL     1       6.231   3.306  18.355  0.00  0.00    +0.000 HD
ENDROOT
BRANCH   5  12
ATOM     12  C   UNL     1       2.134   7.896  18.934  0.00  0.00    +0.000 A 
ATOM     13  C   UNL     1       1.634   8.805  17.997  0.00  0.00    +0.000 A 
ATOM     14  C   UNL     1       0.715   9.793  18.388  0.00  0.00    +0.000 A 
ATOM     15  C   UNL     1       0.289   9.891  19.723  0.00  0.00    +0.000 A 
ATOM     16  C   UNL     1       0.734   8.924  20.634  0.00  0.00    +0.000 A 
ATOM     17  C   UNL     1       1.648   7.943  20.247  0.00  0.00    +0.000 A 
BRANCH  15  18
ATOM     18  C   UNL     1      -0.506  11.083  20.222  0.00  0.00    +0.000 C 
BRANCH  18  19
ATOM     19  N   UNL     1      -1.280  11.893  19.287  0.00  0.00    +0.000 NA
ATOM     20  C   UNL     1      -1.872  13.117  19.814  0.00  0.00    +0.000 C 
ATOM     21  C   UNL     1      -3.336  12.787  20.023  0.00  0.00    +0.000 C 
ATOM     22  C   UNL     1      -3.646  11.792  18.919  0.00  0.00    +0.000 C 
ATOM     23  C   UNL     1      -2.305  11.183  18.530  0.00  0.00    +0.000 C 
ENDBRANCH  18  19
ENDBRANCH  15  18
ENDBRANCH   5  12
BRANCH   1  24
ATOM     24  C   UNL     1       7.466   4.432  17.175  0.00  0.00    +0.000 C 
BRANCH  24  28
ATOM     25  C   UNL     1       6.063   4.000  13.750  0.00  0.00    +0.000 A 
ATOM     26  C   UNL     1       7.066   4.934  13.644  0.00  0.00    +0.000 A 
ATOM     27  O   UNL     1       7.645   5.147  14.853  0.00  0.00    +0.000 OA
ATOM     28  C   UNL     1       6.998   4.343  15.757  0.00  0.00    +0.000 A 
ATOM     29  C   UNL     1       6.019   3.618  15.114  0.00  0.00    +0.000 A 
ENDBRANCH  24  28
ENDBRANCH   1  24
TORSDOF 5
ENDMDL
MODEL 9
REMARK VINA RESULT:      -8.1      0.966      1.562
REMARK  Name = 
REMARK  5 active torsions:
REMARK  status: ('A' for Active; 'I' for Inactive)
REMARK    1  A    between atoms: C_4  and  C_5
REMARK    2  A    between atoms: C_5  and  N_6
REMARK    3  A    between atoms: C_10  and  C_11
REMARK    4  A    between atoms: C_14  and  C_15
REMARK    5  A    between atoms: C_15  and  N_16
REMARK                            x       y       z     vdW  Elec       q    Type
REMARK                         _______ _______ _______ _____ _____    ______ ____
ROOT
ATOM      1  N   UNL     1       6.008   4.371  16.387  0.00  0.00    +0.000 N 
ATOM      2  C   UNL     1       5.072   5.245  16.885  0.00  0.00    +0.000 A 
ATOM      3  N   UNL     1       5.277   6.534  16.964  0.00  0.00    +0.000 NA
ATOM      4  C   UNL     1       4.293   7.314  17.555  0.00  0.00    +0.000 A 
ATOM      5  C   UNL     1       3.097   6.874  18.009  0.00  0.00    +0.000 A 
ATOM      6  C   UNL     1       2.842   5.490  17.858  0.00  0.00    +0.000 A 
ATOM      7  N   UNL     1       1.814   4.721  18.153  0.00  0.00    +0.000 NA
ATOM      8  N   UNL     1       2.142   3.429  17.809  0.00  0.00    +0.000 NA
ATOM      9  C   UNL     1       3.363   3.447  17.324  0.00  0.00    +0.000 A 
ATOM     10  N   UNL     1       3.848   4.723  17.328  0.00  0.00    +0.000 N 
ATOM     11  H   UNL     1       5.787   3.384  16.304  0.00  0.00    +0.000 HD
ENDROOT
BRANCH   5  12
ATOM     12  C   UNL     1       2.210   7.787  18.755  0.00  0.00    +0.000 A 
ATOM     13  C   UNL     1       1.603   8.903  18.169  0.00  0.00    +0.000 A 
ATOM     14  C   UNL     1       0.822   9.775  18.946  0.00  0.00    +0.000 A 
ATOM     15  C   UNL     1       0.642   9.548  20.320  0.00  0.00    +0.000 A 
ATOM     16  C   UNL     1       1.188   8.384  20.878  0.00  0.00    +0.000 A 
ATOM     17  C   UNL     1       1.966   7.518  20.108  0.00  0.00    +0.000 A 
BRANCH  15  18
ATOM     18  C   UNL     1       0.013  10.590  21.226  0.00  0.00    +0.000 C 
BRANCH  18  19
ATOM     19  N   UNL     1      -0.362  11.896  20.693  0.00  0.00    +0.000 NA
ATOM     20  C   UNL     1       0.545  13.004  20.972  0.00  0.00    +0.000 C 
ATOM     21  C   UNL     1      -0.117  13.782  22.090  0.00  0.00    +0.000 C 
ATOM     22  C   UNL     1      -1.602  13.606  21.827  0.00  0.00    +0.000 C 
ATOM     23  C   UNL     1      -1.720  12.337  20.992  0.00  0.00    +0.000 C 
ENDBRANCH  18  19
ENDBRANCH  15  18
ENDBRANCH   5  12
BRANCH   1  24
ATOM     24  C   UNL     1       7.036   4.753  15.436  0.00  0.00    +0.000 C 
BRANCH  24  28
ATOM     25  C   UNL     1       5.957   3.488  12.101  0.00  0.00    +0.000 A 
ATOM     26  C   UNL     1       7.067   4.269  11.880  0.00  0.00    +0.000 A 
ATOM     27  O   UNL     1       7.538   4.767  13.052  0.00  0.00    +0.000 OA
ATOM     28  C   UNL     1       6.711   4.306  14.046  0.00  0.00    +0.000 A 
ATOM     29  C   UNL     1       5.727   3.511  13.499  0.00  0.00    +0.000 A 
ENDBRANCH  24  28
ENDBRANCH   1  24
TORSDOF 5
ENDMDL
