MODEL 1
REMARK VINA RESULT:      -8.5      0.000      0.000
REMARK  Name = 
REMARK  9 active torsions:
REMARK  status: ('A' for Active; 'I' for Inactive)
REMARK    1  A    between atoms: C_1  and  S_2
REMARK    2  A    between atoms: S_2  and  C_3
REMARK    3  A    between atoms: C_6  and  O_7
REMARK    4  A    between atoms: O_7  and  C_8
REMARK    5  A    between atoms: C_10  and  C_11
REMARK    6  A    between atoms: C_14  and  C_15
REMARK    7  A    between atoms: N_16  and  O_17
REMARK    8  A    between atoms: N_18  and  C_19
REMARK    9  A    between atoms: C_25  and  C_26
REMARK                            x       y       z     vdW  Elec       q    Type
REMARK                         _______ _______ _______ _____ _____    ______ ____
ROOT
ATOM      1  C   UNL     1       3.141   4.726  18.297  0.00  0.00    +0.000 A 
ATOM      2  N   UNL     1       1.892   4.183  18.366  0.00  0.00    +0.000 NA
ATOM      3  C   UNL     1       1.775   2.859  18.617  0.00  0.00    +0.000 A 
ATOM      4  C   UNL     1       0.393   2.292  18.747  0.00  0.00    +0.000 C 
ATOM      5  C   UNL     1       2.875   2.029  18.752  0.00  0.00    +0.000 A 
ATOM      6  C   UNL     1       4.138   2.605  18.770  0.00  0.00    +0.000 A 
ATOM      7  C   UNL     1       4.289   3.989  18.615  0.00  0.00    +0.000 A 
ENDROOT
BRANCH   7   8
ATOM      8  C   UNL     1       5.697   4.521  18.700  0.00  0.00    +0.000 C 
ATOM      9  N   UNL     1       6.080   4.973  19.870  0.00  0.00    +0.000 NA
ATOM     10  N   UNL     1       6.568   4.500  17.634  0.00  0.00    +0.000 N 
ATOM     11  H   UNL     1       7.471   4.881  17.915  0.00  0.00    +0.000 HD
BRANCH  10  12
ATOM     12  C   UNL     1       6.202   4.742  16.259  0.00  0.00    +0.000 C 
ATOM     13  C   UNL     1       7.405   5.171  15.440  0.00  0.00    +0.000 C 
ATOM     14  C   UNL     1       6.904   4.982  14.020  0.00  0.00    +0.000 C 
ATOM     15  C   UNL     1       6.025   3.732  14.072  0.00  0.00    +0.000 C 
ATOM     16  C   UNL     1       5.730   3.475  15.551  0.00  0.00    +0.000 C 
ENDBRANCH  10  12
BRANCH   9  17
ATOM     17  O   UNL     1       7.423   5.417  19.850  0.00  0.00    +0.000 OA
ATOM     18  H   UNL     1       7.867   4.711  20.342  0.00  0.00    +0.000 HD
ENDBRANCH   9  17
ENDBRANCH   7   8
BRANCH   1  19
ATOM     19  O   UNL     1       3.097   6.042  17.891  0.00  0.00    +0.000 OA
BRANCH  19  23
ATOM     20  C   UNL     1       1.149   8.987  20.128  0.00  0.00    +0.000 A 
ATOM     21  C   UNL     1       1.479   7.763  20.712  0.00  0.00    +0.000 A 
ATOM     22  C   UNL     1       2.289   6.854  20.054  0.00  0.00    +0.000 A 
ATOM     23  C   UNL     1       2.567   7.018  18.703  0.00  0.00    +0.000 A 
ATOM     24  C   UNL     1       2.238   8.235  18.092  0.00  0.00    +0.000 A 
ATOM     25  C   UNL     1       1.569   9.251  18.810  0.00  0.00    +0.000 A 
ATOM     26  C   UNL     1       1.364  10.597  18.171  0.00  0.00    +0.000 C 
BRANCH  20  28
ATOM     27  C   UNL     1       0.420   9.378  22.755  0.00  0.00    +0.000 C 
ATOM     28  S   UNL     1       0.237  10.162  21.125  0.00  0.00    +0.000 S 
ENDBRANCH  20  28
ENDBRANCH  19  23
ENDBRANCH   1  19
TORSDOF 6
ENDMDL
MODEL 2
REMARK VINA RESULT:      -8.3      0.925      1.592
REMARK  Name = 
REMARK  9 active torsions:
REMARK  status: ('A' for Active; 'I' for Inactive)
REMARK    1  A    between atoms: C_1  and  S_2
REMARK    2  A    between atoms: S_2  and  C_3
REMARK    3  A    between atoms: C_6  and  O_7
REMARK    4  A    between atoms: O_7  and  C_8
REMARK    5  A    between atoms: C_10  and  C_11
REMARK    6  A    between atoms: C_14  and  C_15
REMARK    7  A    between atoms: N_16  and  O_17
REMARK    8  A    between atoms: N_18  and  C_19
REMARK    9  A    between atoms: C_25  and  C_26
REMARK                            x       y       z     vdW  Elec       q    Type
REMARK                         _______ _______ _______ _____ _____    ______ ____
ROOT
ATOM      1  C   UNL     1       3.599   5.189  18.708  0.00  0.00    +0.000 A 
ATOM      2  N   UNL     1       2.321   4.792  18.966  0.00  0.00    +0.000 NA
ATOM      3  C   UNL     1       2.108   3.520  19.375  0.00  0.00    +0.000 A 
ATOM      4  C   UNL     1       0.702   3.120  19.710  0.00  0.00    +0.000 C 
ATOM      5  C   UNL     1       3.133   2.595  19.488  0.00  0.00    +0.000 A 
ATOM      6  C   UNL     1       4.438   3.033  19.311  0.00  0.00    +0.000 A 
ATOM      7  C   UNL     1       4.701   4.370  18.987  0.00  0.00    +0.000 A 
ENDROOT
BRANCH   7   8
ATOM      8  C   UNL     1       6.154   4.755  18.866  0.00  0.00    +0.000 C 
ATOM      9  N   UNL     1       6.727   5.216  19.952  0.00  0.00    +0.000 NA
ATOM     10  N   UNL     1       6.874   4.594  17.704  0.00  0.00    +0.000 N 
ATOM     11  H   UNL     1       7.838   4.891  17.848  0.00  0.00    +0.000 HD
BRANCH  10  12
ATOM     12  C   UNL     1       6.360   4.811  16.373  0.00  0.00    +0.000 C 
ATOM     13  C   UNL     1       7.482   5.088  15.390  0.00  0.00    +0.000 C 
ATOM     14  C   UNL     1       6.790   4.888  14.055  0.00  0.00    +0.000 C 
ATOM     15  C   UNL     1       5.816   3.730  14.283  0.00  0.00    +0.000 C 
ATOM     16  C   UNL     1       5.690   3.566  15.798  0.00  0.00    +0.000 C 
ENDBRANCH  10  12
BRANCH   9  17
ATOM     17  O   UNL     1       8.093   5.517  19.740  0.00  0.00    +0.000 OA
ATOM     18  H   UNL     1       8.073   6.484  19.694  0.00  0.00    +0.000 HD
ENDBRANCH   9  17
ENDBRANCH   7   8
BRANCH   1  19
ATOM     19  O   UNL     1       3.635   6.454  18.163  0.00  0.00    +0.000 OA
BRANCH  19  23
ATOM     20  C   UNL     1       1.023   9.478  19.389  0.00  0.00    +0.000 A 
ATOM     21  C   UNL     1       1.433   9.400  18.058  0.00  0.00    +0.000 A 
ATOM     22  C   UNL     1       2.137   8.304  17.591  0.00  0.00    +0.000 A 
ATOM     23  C   UNL     1       2.682   7.393  18.486  0.00  0.00    +0.000 A 
ATOM     24  C   UNL     1       2.293   7.456  19.831  0.00  0.00    +0.000 A 
ATOM     25  C   UNL     1       1.420   8.470  20.287  0.00  0.00    +0.000 A 
ATOM     26  C   UNL     1       0.905   8.422  21.700  0.00  0.00    +0.000 C 
BRANCH  20  28
ATOM     27  C   UNL     1       1.239  11.988  20.502  0.00  0.00    +0.000 C 
ATOM     28  S   UNL     1      -0.026  10.854  19.854  0.00  0.00    +0.000 S 
ENDBRANCH  20  28
ENDBRANCH  19  23
ENDBRANCH   1  19
TORSDOF 6
ENDMDL
MODEL 3
REMARK VINA RESULT:      -8.1      1.034      1.769
REMARK  Name = 
REMARK  9 active torsions:
REMARK  status: ('A' for Active; 'I' for Inactive)
REMARK    1  A    between atoms: C_1  and  S_2
REMARK    2  A    between atoms: S_2  and  C_3
REMARK    3  A    between atoms: C_6  and  O_7
REMARK    4  A    between atoms: O_7  and  C_8
REMARK    5  A    between atoms: C_10  and  C_11
REMARK    6  A    between atoms: C_14  and  C_15
REMARK    7  A    between atoms: N_16  and  O_17
REMARK    8  A    between atoms: N_18  and  C_19
REMARK    9  A    between atoms: C_25  and  C_26
REMARK                            x       y       z     vdW  Elec       q    Type
REMARK                         _______ _______ _______ _____ _____    ______ ____
ROOT
ATOM      1  C   UNL     1       3.367   4.894  19.161  0.00  0.00    +0.000 A 
ATOM      2  N   UNL     1       2.090   4.425  19.238  0.00  0.00    +0.000 NA
ATOM      3  C   UNL     1       1.790   3.260  18.618  0.00  0.00    +0.000 A 
ATOM      4  C   UNL     1       0.394   2.730  18.763  0.00  0.00    +0.000 C 
ATOM      5  C   UNL     1       2.717   2.560  17.865  0.00  0.00    +0.000 A 
ATOM      6  C   UNL     1       4.035   2.998  17.868  0.00  0.00    +0.000 A 
ATOM      7  C   UNL     1       4.400   4.144  18.585  0.00  0.00    +0.000 A 
ENDROOT
BRANCH   7   8
ATOM      8  C   UNL     1       5.864   4.507  18.565  0.00  0.00    +0.000 C 
ATOM      9  N   UNL     1       6.379   4.912  19.700  0.00  0.00    +0.000 NA
ATOM     10  N   UNL     1       6.648   4.379  17.441  0.00  0.00    +0.000 N 
ATOM     11  H   UNL     1       7.607   4.652  17.653  0.00  0.00    +0.000 HD
BRANCH  10  12
ATOM     12  C   UNL     1       6.217   4.660  16.092  0.00  0.00    +0.000 C 
ATOM     13  C   UNL     1       7.356   5.215  15.257  0.00  0.00    +0.000 C 
ATOM     14  C   UNL     1       6.818   5.058  13.847  0.00  0.00    +0.000 C 
ATOM     15  C   UNL     1       6.034   3.745  13.864  0.00  0.00    +0.000 C 
ATOM     16  C   UNL     1       5.811   3.397  15.337  0.00  0.00    +0.000 C 
ENDBRANCH  10  12
BRANCH   9  17
ATOM     17  O   UNL     1       7.761   5.195  19.581  0.00  0.00    +0.000 OA
ATOM     18  H   UNL     1       7.791   5.646  18.724  0.00  0.00    +0.000 HD
ENDBRANCH   9  17
ENDBRANCH   7   8
BRANCH   1  19
ATOM     19  O   UNL     1       3.477   6.152  19.713  0.00  0.00    +0.000 OA
BRANCH  19  23
ATOM     20  C   UNL     1       0.999   9.433  18.959  0.00  0.00    +0.000 A 
ATOM     21  C   UNL     1       1.794   8.904  17.942  0.00  0.00    +0.000 A 
ATOM     22  C   UNL     1       2.471   7.709  18.114  0.00  0.00    +0.000 A 
ATOM     23  C   UNL     1       2.592   7.153  19.381  0.00  0.00    +0.000 A 
ATOM     24  C   UNL     1       1.811   7.672  20.421  0.00  0.00    +0.000 A 
ATOM     25  C   UNL     1       0.969   8.787  20.210  0.00  0.00    +0.000 A 
ATOM     26  C   UNL     1       0.033   9.227  21.303  0.00  0.00    +0.000 C 
BRANCH  20  28
ATOM     27  C   UNL     1      -1.405  10.104  17.796  0.00  0.00    +0.000 C 
ATOM     28  S   UNL     1       0.033  10.893  18.582  0.00  0.00    +0.000 S 
ENDBRANCH  20  28
ENDBRANCH  19  23
ENDBRANCH   1  19
TORSDOF 6
ENDMDL
MODEL 4
REMARK VINA RESULT:      -8.0      0.988      1.894
REMARK  Name = 
REMARK  9 active torsions:
REMARK  status: ('A' for Active; 'I' for Inactive)
REMARK    1  A    between atoms: C_1  and  S_2
REMARK    2  A    between atoms: S_2  and  C_3
REMARK    3  A    between atoms: C_6  and  O_7
REMARK    4  A    between atoms: O_7  and  C_8
REMARK    5  A    between atoms: C_10  and  C_11
REMARK    6  A    between atoms: C_14  and  C_15
REMARK    7  A    between atoms: N_16  and  O_17
REMARK    8  A    between atoms: N_18  and  C_19
REMARK    9  A    between atoms: C_25  and  C_26
REMARK                            x       y       z     vdW  Elec       q    Type
REMARK                         _______ _______ _______ _____ _____    ______ ____
ROOT
ATOM      1  C   UNL     1       3.714   5.119  18.390  0.00  0.00    +0.000 A 
ATOM      2  N   UNL     1       2.418   4.700  18.368  0.00  0.00    +0.000 NA
ATOM      3  C   UNL     1       2.160   3.383  18.543  0.00  0.00    +0.000 A 
ATOM      4  C   UNL     1       0.725   2.950  18.575  0.00  0.00    +0.000 C 
ATOM      5  C   UNL     1       3.167   2.443  18.688  0.00  0.00    +0.000 A 
ATOM      6  C   UNL     1       4.476   2.891  18.800  0.00  0.00    +0.000 A 
ATOM      7  C   UNL     1       4.768   4.259  18.725  0.00  0.00    +0.000 A 
ENDROOT
BRANCH   7   8
ATOM      8  C   UNL     1       6.213   4.646  18.908  0.00  0.00    +0.000 C 
ATOM      9  N   UNL     1       6.540   5.146  20.075  0.00  0.00    +0.000 NA
ATOM     10  N   UNL     1       7.167   4.447  17.934  0.00  0.00    +0.000 N 
ATOM     11  H   UNL     1       8.079   4.753  18.273  0.00  0.00    +0.000 HD
BRANCH  10  12
ATOM     12  C   UNL     1       6.953   4.617  16.517  0.00  0.00    +0.000 C 
ATOM     13  C   UNL     1       5.947   3.611  15.990  0.00  0.00    +0.000 C 
ATOM     14  C   UNL     1       5.584   4.204  14.642  0.00  0.00    +0.000 C 
ATOM     15  C   UNL     1       5.582   5.718  14.861  0.00  0.00    +0.000 C 
ATOM     16  C   UNL     1       6.313   5.961  16.183  0.00  0.00    +0.000 C 
ENDBRANCH  10  12
BRANCH   9  17
ATOM     17  O   UNL     1       7.921   5.444  20.153  0.00  0.00    +0.000 OA
ATOM     18  H   UNL     1       8.314   4.623  19.821  0.00  0.00    +0.000 HD
ENDBRANCH   9  17
ENDBRANCH   7   8
BRANCH   1  19
ATOM     19  O   UNL     1       3.820   6.452  18.052  0.00  0.00    +0.000 OA
BRANCH  19  23
ATOM     20  C   UNL     1       1.037   9.341  19.225  0.00  0.00    +0.000 A 
ATOM     21  C   UNL     1       1.481   9.288  17.904  0.00  0.00    +0.000 A 
ATOM     22  C   UNL     1       2.248   8.230  17.450  0.00  0.00    +0.000 A 
ATOM     23  C   UNL     1       2.815   7.342  18.356  0.00  0.00    +0.000 A 
ATOM     24  C   UNL     1       2.392   7.380  19.690  0.00  0.00    +0.000 A 
ATOM     25  C   UNL     1       1.461   8.349  20.129  0.00  0.00    +0.000 A 
ATOM     26  C   UNL     1       0.915   8.270  21.529  0.00  0.00    +0.000 C 
BRANCH  20  28
ATOM     27  C   UNL     1      -1.386  10.381  18.428  0.00  0.00    +0.000 C 
ATOM     28  S   UNL     1      -0.087  10.663  19.670  0.00  0.00    +0.000 S 
ENDBRANCH  20  28
ENDBRANCH  19  23
ENDBRANCH   1  19
TORSDOF 6
ENDMDL
MODEL 5
REMARK VINA RESULT:      -7.9      2.005      3.141
REMARK  Name = 
REMARK  9 active torsions:
REMARK  status: ('A' for Active; 'I' for Inactive)
REMARK    1  A    between atoms: C_1  and  S_2
REMARK    2  A    between atoms: S_2  and  C_3
REMARK    3  A    between atoms: C_6  and  O_7
REMARK    4  A    between atoms: O_7  and  C_8
REMARK    5  A    between atoms: C_10  and  C_11
REMARK    6  A    between atoms: C_14  and  C_15
REMARK    7  A    between atoms: N_16  and  O_17
REMARK    8  A    between atoms: N_18  and  C_19
REMARK    9  A    between atoms: C_25  and  C_26
REMARK                            x       y       z     vdW  Elec       q    Type
REMARK                         _______ _______ _______ _____ _____    ______ ____
ROOT
ATOM      1  C   UNL     1       3.278   5.190  18.507  0.00  0.00    +0.000 A 
ATOM      2  N   UNL     1       2.476   4.714  19.501  0.00  0.00    +0.000 NA
ATOM      3  C   UNL     1       1.988   3.457  19.394  0.00  0.00    +0.000 A 
ATOM      4  C   UNL     1       1.156   2.931  20.524  0.00  0.00    +0.000 C 
ATOM      5  C   UNL     1       2.230   2.660  18.287  0.00  0.00    +0.000 A 
ATOM      6  C   UNL     1       3.120   3.118  17.325  0.00  0.00    +0.000 A 
ATOM      7  C   UNL     1       3.722   4.375  17.458  0.00  0.00    +0.000 A 
ENDROOT
BRANCH   7   8
ATOM      8  C   UNL     1       4.711   4.759  16.387  0.00  0.00    +0.000 C 
ATOM      9  N   UNL     1       4.679   4.052  15.283  0.00  0.00    +0.000 NA
ATOM     10  N   UNL     1       5.577   5.822  16.517  0.00  0.00    +0.000 N 
ATOM     11  H   UNL     1       6.136   5.921  15.670  0.00  0.00    +0.000 HD
BRANCH  10  12
ATOM     12  C   UNL     1       6.245   6.203  17.739  0.00  0.00    +0.000 C 
ATOM     13  C   UNL     1       7.157   5.096  18.233  0.00  0.00    +0.000 C 
ATOM     14  C   UNL     1       8.022   5.826  19.242  0.00  0.00    +0.000 C 
ATOM     15  C   UNL     1       8.240   7.218  18.646  0.00  0.00    +0.000 C 
ATOM     16  C   UNL     1       7.197   7.379  17.538  0.00  0.00    +0.000 C 
ENDBRANCH  10  12
BRANCH   9  17
ATOM     17  O   UNL     1       5.621   4.514  14.333  0.00  0.00    +0.000 OA
ATOM     18  H   UNL     1       5.819   5.398  14.673  0.00  0.00    +0.000 HD
ENDBRANCH   9  17
ENDBRANCH   7   8
BRANCH   1  19
ATOM     19  O   UNL     1       3.570   6.525  18.690  0.00  0.00    +0.000 OA
BRANCH  19  23
ATOM     20  C   UNL     1       0.778   9.591  19.211  0.00  0.00    +0.000 A 
ATOM     21  C   UNL     1       1.333   9.352  17.954  0.00  0.00    +0.000 A 
ATOM     22  C   UNL     1       2.107   8.230  17.717  0.00  0.00    +0.000 A 
ATOM     23  C   UNL     1       2.568   7.464  18.780  0.00  0.00    +0.000 A 
ATOM     24  C   UNL     1       2.032   7.690  20.055  0.00  0.00    +0.000 A 
ATOM     25  C   UNL     1       1.094   8.724  20.275  0.00  0.00    +0.000 A 
ATOM     26  C   UNL     1       0.427   8.845  21.618  0.00  0.00    +0.000 C 
BRANCH  20  28
ATOM     27  C   UNL     1      -1.590  10.500  18.138  0.00  0.00    +0.000 C 
ATOM     28  S   UNL     1      -0.344  10.978  19.373  0.00  0.00    +0.000 S 
ENDBRANCH  20  28
ENDBRANCH  19  23
ENDBRANCH   1  19
TORSDOF 6
ENDMDL
MODEL 6
REMARK VINA RESULT:      -7.7      1.846      2.656
REMARK  Name = 
REMARK  9 active torsions:
REMARK  status: ('A' for Active; 'I' for Inactive)
REMARK    1  A    between atoms: C_1  and  S_2
REMARK    2  A    between atoms: S_2  and  C_3
REMARK    3  A    between atoms: C_6  and  O_7
REMARK    4  A    between atoms: O_7  and  C_8
REMARK    5  A    between atoms: C_10  and  C_11
REMARK    6  A    between atoms: C_14  and  C_15
REMARK    7  A    between atoms: N_16  and  O_17
REMARK    8  A    between atoms: N_18  and  C_19
REMARK    9  A    between atoms: C_25  and  C_26
REMARK                            x       y       z     vdW  Elec       q    Type
REMARK                         _______ _______ _______ _____ _____    ______ ____
ROOT
ATOM      1  C   UNL     1       3.000   5.242  17.847  0.00  0.00    +0.000 A 
ATOM      2  N   UNL     1       2.137   4.865  18.832  0.00  0.00    +0.000 NA
ATOM      3  C   UNL     1       2.036   3.550  19.137  0.00  0.00    +0.000 A 
ATOM      4  C   UNL     1       1.124   3.161  20.261  0.00  0.00    +0.000 C 
ATOM      5  C   UNL     1       2.736   2.573  18.449  0.00  0.00    +0.000 A 
ATOM      6  C   UNL     1       3.679   2.974  17.512  0.00  0.00    +0.000 A 
ATOM      7  C   UNL     1       3.882   4.334  17.245  0.00  0.00    +0.000 A 
ENDROOT
BRANCH   7   8
ATOM      8  C   UNL     1       4.963   4.667  16.249  0.00  0.00    +0.000 C 
ATOM      9  N   UNL     1       5.030   3.903  15.185  0.00  0.00    +0.000 NA
ATOM     10  N   UNL     1       5.813   5.739  16.401  0.00  0.00    +0.000 N 
ATOM     11  H   UNL     1       6.446   5.797  15.603  0.00  0.00    +0.000 HD
BRANCH  10  12
ATOM     12  C   UNL     1       6.367   6.187  17.656  0.00  0.00    +0.000 C 
ATOM     13  C   UNL     1       7.271   5.130  18.263  0.00  0.00    +0.000 C 
ATOM     14  C   UNL     1       8.029   5.926  19.309  0.00  0.00    +0.000 C 
ATOM     15  C   UNL     1       8.250   7.302  18.678  0.00  0.00    +0.000 C 
ATOM     16  C   UNL     1       7.295   7.387  17.486  0.00  0.00    +0.000 C 
ENDBRANCH  10  12
BRANCH   9  17
ATOM     17  O   UNL     1       6.054   4.319  14.301  0.00  0.00    +0.000 OA
ATOM     18  H   UNL     1       6.180   5.240  14.572  0.00  0.00    +0.000 HD
ENDBRANCH   9  17
ENDBRANCH   7   8
BRANCH   1  19
ATOM     19  O   UNL     1       2.880   6.584  17.557  0.00  0.00    +0.000 OA
BRANCH  19  23
ATOM     20  C   UNL     1       1.034   9.232  20.211  0.00  0.00    +0.000 A 
ATOM     21  C   UNL     1       1.564   8.028  20.674  0.00  0.00    +0.000 A 
ATOM     22  C   UNL     1       2.344   7.230  19.856  0.00  0.00    +0.000 A 
ATOM     23  C   UNL     1       2.393   7.471  18.489  0.00  0.00    +0.000 A 
ATOM     24  C   UNL     1       1.860   8.669  17.998  0.00  0.00    +0.000 A 
ATOM     25  C   UNL     1       1.218   9.586  18.861  0.00  0.00    +0.000 A 
ATOM     26  C   UNL     1       0.789  10.927  18.330  0.00  0.00    +0.000 C 
BRANCH  20  28
ATOM     27  C   UNL     1       0.029   9.096  22.772  0.00  0.00    +0.000 C 
ATOM     28  S   UNL     1       0.180  10.273  21.393  0.00  0.00    +0.000 S 
ENDBRANCH  20  28
ENDBRANCH  19  23
ENDBRANCH   1  19
TORSDOF 6
ENDMDL
MODEL 7
REMARK VINA RESULT:      -7.4      2.088      3.983
REMARK  Name = 
REMARK  9 active torsions:
REMARK  status: ('A' for Active; 'I' for Inactive)
REMARK    1  A    between atoms: C_1  and  S_2
REMARK    2  A    between atoms: S_2  and  C_3
REMARK    3  A    between atoms: C_6  and  O_7
REMARK    4  A    between atoms: O_7  and  C_8
REMARK    5  A    between atoms: C_10  and  C_11
REMARK    6  A    between atoms: C_14  and  C_15
REMARK    7  A    between atoms: N_16  and  O_17
REMARK    8  A    between atoms: N_18  and  C_19
REMARK    9  A    between atoms: C_25  and  C_26
REMARK                            x       y       z     vdW  Elec       q    Type
REMARK                         _______ _______ _______ _____ _____    ______ ____
ROOT
ATOM      1  C   UNL     1       5.702   6.795  17.461  0.00  0.00    +0.000 A 
ATOM      2  N   UNL     1       6.362   7.973  17.278  0.00  0.00    +0.000 NA
ATOM      3  C   UNL     1       7.605   8.107  17.798  0.00  0.00    +0.000 A 
ATOM      4  C   UNL     1       8.338   9.389  17.537  0.00  0.00    +0.000 C 
ATOM      5  C   UNL     1       8.204   7.112  18.552  0.00  0.00    +0.000 A 
ATOM      6  C   UNL     1       7.562   5.885  18.655  0.00  0.00    +0.000 A 
ATOM      7  C   UNL     1       6.320   5.680  18.042  0.00  0.00    +0.000 A 
ENDROOT
BRANCH   7   8
ATOM      8  C   UNL     1       5.731   4.299  18.170  0.00  0.00    +0.000 C 
ATOM      9  N   UNL     1       5.647   3.811  19.384  0.00  0.00    +0.000 NA
ATOM     10  N   UNL     1       5.253   3.589  17.091  0.00  0.00    +0.000 N 
ATOM     11  H   UNL     1       4.876   2.694  17.403  0.00  0.00    +0.000 HD
BRANCH  10  12
ATOM     12  C   UNL     1       5.850   3.576  15.777  0.00  0.00    +0.000 C 
ATOM     13  C   UNL     1       4.994   4.334  14.779  0.00  0.00    +0.000 C 
ATOM     14  C   UNL     1       5.958   4.535  13.625  0.00  0.00    +0.000 C 
ATOM     15  C   UNL     1       7.319   4.776  14.281  0.00  0.00    +0.000 C 
ATOM     16  C   UNL     1       7.181   4.322  15.736  0.00  0.00    +0.000 C 
ENDBRANCH  10  12
BRANCH   9  17
ATOM     17  O   UNL     1       5.052   2.527  19.397  0.00  0.00    +0.000 OA
ATOM     18  H   UNL     1       4.713   2.481  20.303  0.00  0.00    +0.000 HD
ENDBRANCH   9  17
ENDBRANCH   7   8
BRANCH   1  19
ATOM     19  O   UNL     1       4.403   6.868  17.004  0.00  0.00    +0.000 OA
BRANCH  19  23
ATOM     20  C   UNL     1       1.572   8.069  19.835  0.00  0.00    +0.000 A 
ATOM     21  C   UNL     1       1.921   8.919  18.785  0.00  0.00    +0.000 A 
ATOM     22  C   UNL     1       2.705   8.473  17.736  0.00  0.00    +0.000 A 
ATOM     23  C   UNL     1       3.380   7.263  17.836  0.00  0.00    +0.000 A 
ATOM     24  C   UNL     1       3.054   6.395  18.886  0.00  0.00    +0.000 A 
ATOM     25  C   UNL     1       2.109   6.768  19.869  0.00  0.00    +0.000 A 
ATOM     26  C   UNL     1       1.671   5.759  20.895  0.00  0.00    +0.000 C 
BRANCH  20  28
ATOM     27  C   UNL     1       0.709  10.474  20.862  0.00  0.00    +0.000 C 
ATOM     28  S   UNL     1       0.418   8.689  21.056  0.00  0.00    +0.000 S 
ENDBRANCH  20  28
ENDBRANCH  19  23
ENDBRANCH   1  19
TORSDOF 6
ENDMDL
MODEL 8
REMARK VINA RESULT:      -7.2      2.279      4.022
REMARK  Name = 
REMARK  9 active torsions:
REMARK  status: ('A' for Active; 'I' for Inactive)
REMARK    1  A    between atoms: C_1  and  S_2
REMARK    2  A    between atoms: S_2  and  C_3
REMARK    3  A    between atoms: C_6  and  O_7
REMARK    4  A    between atoms: O_7  and  C_8
REMARK    5  A    between atoms: C_10  and  C_11
REMARK    6  A    between atoms: C_14  and  C_15
REMARK    7  A    between atoms: N_16  and  O_17
REMARK    8  A    between atoms: N_18  and  C_19
REMARK    9  A    between atoms: C_25  and  C_26
REMARK                            x       y       z     vdW  Elec       q    Type
REMARK                         _______ _______ _______ _____ _____    ______ ____
ROOT
ATOM      1  C   UNL     1       5.515   6.960  17.115  0.00  0.00    +0.000 A 
ATOM      2  N   UNL     1       6.264   8.077  17.331  0.00  0.00    +0.000 NA
ATOM      3  C   UNL     1       7.510   7.934  17.840  0.00  0.00    +0.000 A 
ATOM      4  C   UNL     1       8.340   9.170  18.016  0.00  0.00    +0.000 C 
ATOM      5  C   UNL     1       8.027   6.700  18.198  0.00  0.00    +0.000 A 
ATOM      6  C   UNL     1       7.294   5.562  17.890  0.00  0.00    +0.000 A 
ATOM      7  C   UNL     1       6.043   5.671  17.269  0.00  0.00    +0.000 A 
ENDROOT
BRANCH   7   8
ATOM      8  C   UNL     1       5.349   4.376  16.930  0.00  0.00    +0.000 C 
ATOM      9  N   UNL     1       5.212   3.515  17.910  0.00  0.00    +0.000 NA
ATOM     10  N   UNL     1       4.836   4.110  15.681  0.00  0.00    +0.000 N 
ATOM     11  H   UNL     1       4.387   3.194  15.677  0.00  0.00    +0.000 HD
BRANCH  10  12
ATOM     12  C   UNL     1       5.448   4.495  14.432  0.00  0.00    +0.000 C 
ATOM     13  C   UNL     1       6.961   4.411  14.515  0.00  0.00    +0.000 C 
ATOM     14  C   UNL     1       7.360   4.458  13.052  0.00  0.00    +0.000 C 
ATOM     15  C   UNL     1       6.274   3.669  12.318  0.00  0.00    +0.000 C 
ATOM     16  C   UNL     1       5.105   3.536  13.296  0.00  0.00    +0.000 C 
ENDBRANCH  10  12
BRANCH   9  17
ATOM     17  O   UNL     1       4.521   2.351  17.496  0.00  0.00    +0.000 OA
ATOM     18  H   UNL     1       5.213   1.678  17.576  0.00  0.00    +0.000 HD
ENDBRANCH   9  17
ENDBRANCH   7   8
BRANCH   1  19
ATOM     19  O   UNL     1       4.229   7.280  16.737  0.00  0.00    +0.000 OA
BRANCH  19  23
ATOM     20  C   UNL     1       1.594   8.120  19.871  0.00  0.00    +0.000 A 
ATOM     21  C   UNL     1       1.831   9.070  18.878  0.00  0.00    +0.000 A 
ATOM     22  C   UNL     1       2.543   8.747  17.736  0.00  0.00    +0.000 A 
ATOM     23  C   UNL     1       3.263   7.561  17.676  0.00  0.00    +0.000 A 
ATOM     24  C   UNL     1       3.049   6.594  18.667  0.00  0.00    +0.000 A 
ATOM     25  C   UNL     1       2.175   6.844  19.749  0.00  0.00    +0.000 A 
ATOM     26  C   UNL     1       1.853   5.734  20.712  0.00  0.00    +0.000 C 
BRANCH  20  28
ATOM     27  C   UNL     1      -0.352   9.981  20.451  0.00  0.00    +0.000 C 
ATOM     28  S   UNL     1       0.522   8.588  21.227  0.00  0.00    +0.000 S 
ENDBRANCH  20  28
ENDBRANCH  19  23
ENDBRANCH   1  19
TORSDOF 6
ENDMDL
MODEL 9
REMARK VINA RESULT:      -7.1      2.217      4.706
REMARK  Name = 
REMARK  9 active torsions:
REMARK  status: ('A' for Active; 'I' for Inactive)
REMARK    1  A    between atoms: C_1  and  S_2
REMARK    2  A    between atoms: S_2  and  C_3
REMARK    3  A    between atoms: C_6  and  O_7
REMARK    4  A    between atoms: O_7  and  C_8
REMARK    5  A    between atoms: C_10  and  C_11
REMARK    6  A    between atoms: C_14  and  C_15
REMARK    7  A    between atoms: N_16  and  O_17
REMARK    8  A    between atoms: N_18  and  C_19
REMARK    9  A    between atoms: C_25  and  C_26
REMARK                            x       y       z     vdW  Elec       q    Type
REMARK                         _______ _______ _______ _____ _____    ______ ____
ROOT
ATOM      1  C   UNL     1       5.717   6.521  16.980  0.00  0.00    +0.000 A 
ATOM      2  N   UNL     1       6.339   7.592  17.546  0.00  0.00    +0.000 NA
ATOM      3  C   UNL     1       7.551   7.409  18.120  0.00  0.00    +0.000 A 
ATOM      4  C   UNL     1       8.246   8.611  18.686  0.00  0.00    +0.000 C 
ATOM      5  C   UNL     1       8.152   6.164  18.201  0.00  0.00    +0.000 A 
ATOM      6  C   UNL     1       7.554   5.098  17.543  0.00  0.00    +0.000 A 
ATOM      7  C   UNL     1       6.349   5.277  16.851  0.00  0.00    +0.000 A 
ENDROOT
BRANCH   7   8
ATOM      8  C   UNL     1       5.807   4.070  16.128  0.00  0.00    +0.000 C 
ATOM      9  N   UNL     1       6.172   3.927  14.877  0.00  0.00    +0.000 NA
ATOM     10  N   UNL     1       5.012   3.129  16.742  0.00  0.00    +0.000 N 
ATOM     11  H   UNL     1       4.781   2.386  16.083  0.00  0.00    +0.000 HD
BRANCH  10  12
ATOM     12  C   UNL     1       3.991   3.416  17.721  0.00  0.00    +0.000 C 
ATOM     13  C   UNL     1       2.614   3.052  17.201  0.00  0.00    +0.000 C 
ATOM     14  C   UNL     1       1.787   3.049  18.473  0.00  0.00    +0.000 C 
ATOM     15  C   UNL     1       2.716   2.488  19.551  0.00  0.00    +0.000 C 
ATOM     16  C   UNL     1       4.132   2.557  18.975  0.00  0.00    +0.000 C 
ENDBRANCH  10  12
BRANCH   9  17
ATOM     17  O   UNL     1       5.638   2.750  14.303  0.00  0.00    +0.000 OA
ATOM     18  H   UNL     1       5.604   2.991  13.365  0.00  0.00    +0.000 HD
ENDBRANCH   9  17
ENDBRANCH   7   8
BRANCH   1  19
ATOM     19  O   UNL     1       4.438   6.837  16.572  0.00  0.00    +0.000 OA
BRANCH  19  23
ATOM     20  C   UNL     1       1.863   8.144  19.594  0.00  0.00    +0.000 A 
ATOM     21  C   UNL     1       2.140   8.966  18.501  0.00  0.00    +0.000 A 
ATOM     22  C   UNL     1       2.830   8.485  17.402  0.00  0.00    +0.000 A 
ATOM     23  C   UNL     1       3.492   7.266  17.474  0.00  0.00    +0.000 A 
ATOM     24  C   UNL     1       3.237   6.425  18.566  0.00  0.00    +0.000 A 
ATOM     25  C   UNL     1       2.381   6.834  19.613  0.00  0.00    +0.000 A 
ATOM     26  C   UNL     1       2.011   5.854  20.693  0.00  0.00    +0.000 C 
BRANCH  20  28
ATOM     27  C   UNL     1      -0.131  10.015  19.918  0.00  0.00    +0.000 C 
ATOM     28  S   UNL     1       0.821   8.809  20.890  0.00  0.00    +0.000 S 
ENDBRANCH  20  28
ENDBRANCH  19  23
ENDBRANCH   1  19
TORSDOF 6
ENDMDL
