MODEL 1
REMARK VINA RESULT:      -8.3      0.000      0.000
REMARK  Name = 
REMARK  9 active torsions:
REMARK  status: ('A' for Active; 'I' for Inactive)
REMARK    1  A    between atoms: C_1  and  C_2
REMARK    2  A    between atoms: C_4  and  C_5
REMARK    3  A    between atoms: C_7  and  S_8
REMARK    4  A    between atoms: S_8  and  C_9
REMARK    5  A    between atoms: C_9  and  C_10
REMARK    6  A    between atoms: N_12  and  C_13
REMARK    7  A    between atoms: C_17  and  C_18
REMARK    8  A    between atoms: C_18  and  O_19
REMARK    9  A    between atoms: O_19  and  C_20
REMARK                            x       y       z     vdW  Elec       q    Type
REMARK                         _______ _______ _______ _____ _____    ______ ____
ROOT
ATOM      1  C   UNL     1       2.332   7.180  19.547  0.00  0.00    +0.000 A 
ATOM      2  C   UNL     1       2.402   7.633  18.227  0.00  0.00    +0.000 A 
ATOM      3  C   UNL     1       1.852   8.854  17.845  0.00  0.00    +0.000 A 
ATOM      4  C   UNL     1       1.204   9.646  18.784  0.00  0.00    +0.000 A 
ATOM      5  C   UNL     1       1.088   9.212  20.111  0.00  0.00    +0.000 A 
ATOM      6  C   UNL     1       1.655   7.974  20.485  0.00  0.00    +0.000 A 
ENDROOT
BRANCH   1   9
ATOM      7  C   UNL     1       2.308   4.706  19.849  0.00  0.00    +0.000 C 
ATOM      8  O   UNL     1       1.196   4.511  19.354  0.00  0.00    +0.000 OA
ATOM      9  N   UNL     1       2.916   5.953  19.969  0.00  0.00    +0.000 N 
ATOM     10  H   UNL     1       3.880   5.987  20.267  0.00  0.00    +0.000 HD
BRANCH   7  11
ATOM     11  C   UNL     1       3.105   3.540  20.419  0.00  0.00    +0.000 C 
BRANCH  11  12
ATOM     12  S   UNL     1       3.819   2.520  19.074  0.00  0.00    +0.000 S 
BRANCH  12  19
ATOM     13  C   UNL     1       5.369   5.291  15.046  0.00  0.00    +0.000 C 
ATOM     14  C   UNL     1       5.553   4.936  16.494  0.00  0.00    +0.000 A 
ATOM     15  C   UNL     1       6.563   5.523  17.232  0.00  0.00    +0.000 A 
ATOM     16  C   UNL     1       6.666   5.147  18.558  0.00  0.00    +0.000 A 
ATOM     17  C   UNL     1       7.732   5.699  19.445  0.00  0.00    +0.000 C 
ATOM     18  N   UNL     1       5.827   4.262  19.121  0.00  0.00    +0.000 NA
ATOM     19  C   UNL     1       4.870   3.744  18.334  0.00  0.00    +0.000 A 
ATOM     20  N   UNL     1       4.703   4.032  17.029  0.00  0.00    +0.000 NA
ENDBRANCH  12  19
ENDBRANCH  11  12
ENDBRANCH   7  11
ENDBRANCH   1   9
BRANCH   5  21
ATOM     21  C   UNL     1       0.391  10.091  21.123  0.00  0.00    +0.000 C 
BRANCH  21  22
ATOM     22  O   UNL     1      -0.244  11.168  20.437  0.00  0.00    +0.000 OA
BRANCH  22  23
ATOM     23  C   UNL     1      -1.373  11.695  21.011  0.00  0.00    +0.000 A 
ATOM     24  C   UNL     1      -2.245  12.319  20.110  0.00  0.00    +0.000 A 
ATOM     25  C   UNL     1      -3.444  12.911  20.526  0.00  0.00    +0.000 A 
ATOM     26  C   UNL     1      -3.734  12.851  21.891  0.00  0.00    +0.000 A 
ATOM     27  N   UNL     1      -4.802  13.308  22.618  0.00  0.00    +0.000 N 
ATOM     28  N   UNL     1      -4.707  13.072  23.940  0.00  0.00    +0.000 NA
ATOM     29  C   UNL     1      -3.542  12.430  24.056  0.00  0.00    +0.000 A 
ATOM     30  C   UNL     1      -2.889  12.251  22.815  0.00  0.00    +0.000 A 
ATOM     31  C   UNL     1      -1.687  11.659  22.376  0.00  0.00    +0.000 A 
ATOM     32  H   UNL     1      -5.626  13.788  22.275  0.00  0.00    +0.000 HD
ENDBRANCH  22  23
ENDBRANCH  21  22
ENDBRANCH   5  21
TORSDOF 7
ENDMDL
MODEL 2
REMARK VINA RESULT:      -8.2      0.411      1.203
REMARK  Name = 
REMARK  9 active torsions:
REMARK  status: ('A' for Active; 'I' for Inactive)
REMARK    1  A    between atoms: C_1  and  C_2
REMARK    2  A    between atoms: C_4  and  C_5
REMARK    3  A    between atoms: C_7  and  S_8
REMARK    4  A    between atoms: S_8  and  C_9
REMARK    5  A    between atoms: C_9  and  C_10
REMARK    6  A    between atoms: N_12  and  C_13
REMARK    7  A    between atoms: C_17  and  C_18
REMARK    8  A    between atoms: C_18  and  O_19
REMARK    9  A    between atoms: O_19  and  C_20
REMARK                            x       y       z     vdW  Elec       q    Type
REMARK                         _______ _______ _______ _____ _____    ______ ____
ROOT
ATOM      1  C   UNL     1       2.375   7.094  19.574  0.00  0.00    +0.000 A 
ATOM      2  C   UNL     1       2.444   7.551  18.256  0.00  0.00    +0.000 A 
ATOM      3  C   UNL     1       1.892   8.773  17.878  0.00  0.00    +0.000 A 
ATOM      4  C   UNL     1       1.243   9.560  18.818  0.00  0.00    +0.000 A 
ATOM      5  C   UNL     1       1.128   9.123  20.145  0.00  0.00    +0.000 A 
ATOM      6  C   UNL     1       1.698   7.884  20.515  0.00  0.00    +0.000 A 
ENDROOT
BRANCH   1   9
ATOM      7  C   UNL     1       2.358   4.619  19.862  0.00  0.00    +0.000 C 
ATOM      8  O   UNL     1       1.249   4.423  19.360  0.00  0.00    +0.000 OA
ATOM      9  N   UNL     1       2.961   5.867  19.992  0.00  0.00    +0.000 N 
ATOM     10  H   UNL     1       3.923   5.902  20.295  0.00  0.00    +0.000 HD
BRANCH   7  11
ATOM     11  C   UNL     1       3.155   3.451  20.430  0.00  0.00    +0.000 C 
BRANCH  11  12
ATOM     12  S   UNL     1       3.881   2.442  19.083  0.00  0.00    +0.000 S 
BRANCH  12  19
ATOM     13  C   UNL     1       5.408   5.190  15.030  0.00  0.00    +0.000 C 
ATOM     14  C   UNL     1       5.582   4.864  16.486  0.00  0.00    +0.000 A 
ATOM     15  C   UNL     1       6.565   5.492  17.227  0.00  0.00    +0.000 A 
ATOM     16  C   UNL     1       6.659   5.141  18.561  0.00  0.00    +0.000 A 
ATOM     17  C   UNL     1       7.698   5.737  19.453  0.00  0.00    +0.000 C 
ATOM     18  N   UNL     1       5.838   4.242  19.127  0.00  0.00    +0.000 NA
ATOM     19  C   UNL     1       4.908   3.683  18.336  0.00  0.00    +0.000 A 
ATOM     20  N   UNL     1       4.751   3.945  17.025  0.00  0.00    +0.000 NA
ENDBRANCH  12  19
ENDBRANCH  11  12
ENDBRANCH   7  11
ENDBRANCH   1   9
BRANCH   5  21
ATOM     21  C   UNL     1       0.431   9.998  21.159  0.00  0.00    +0.000 C 
BRANCH  21  22
ATOM     22  O   UNL     1      -0.149  11.113  20.485  0.00  0.00    +0.000 OA
BRANCH  22  23
ATOM     23  C   UNL     1      -1.267  11.673  21.050  0.00  0.00    +0.000 A 
ATOM     24  C   UNL     1      -1.365  11.496  22.435  0.00  0.00    +0.000 A 
ATOM     25  C   UNL     1      -2.443  12.002  23.173  0.00  0.00    +0.000 A 
ATOM     26  C   UNL     1      -3.423  12.694  22.460  0.00  0.00    +0.000 A 
ATOM     27  N   UNL     1      -4.578  13.314  22.860  0.00  0.00    +0.000 N 
ATOM     28  N   UNL     1      -5.282  13.866  21.855  0.00  0.00    +0.000 NA
ATOM     29  C   UNL     1      -4.542  13.599  20.776  0.00  0.00    +0.000 A 
ATOM     30  C   UNL     1      -3.365  12.879  21.084  0.00  0.00    +0.000 A 
ATOM     31  C   UNL     1      -2.270  12.364  20.360  0.00  0.00    +0.000 A 
ATOM     32  H   UNL     1      -4.942  13.397  23.803  0.00  0.00    +0.000 HD
ENDBRANCH  22  23
ENDBRANCH  21  22
ENDBRANCH   5  21
TORSDOF 7
ENDMDL
MODEL 3
REMARK VINA RESULT:      -8.2      1.175      1.465
REMARK  Name = 
REMARK  9 active torsions:
REMARK  status: ('A' for Active; 'I' for Inactive)
REMARK    1  A    between atoms: C_1  and  C_2
REMARK    2  A    between atoms: C_4  and  C_5
REMARK    3  A    between atoms: C_7  and  S_8
REMARK    4  A    between atoms: S_8  and  C_9
REMARK    5  A    between atoms: C_9  and  C_10
REMARK    6  A    between atoms: N_12  and  C_13
REMARK    7  A    between atoms: C_17  and  C_18
REMARK    8  A    between atoms: C_18  and  O_19
REMARK    9  A    between atoms: O_19  and  C_20
REMARK                            x       y       z     vdW  Elec       q    Type
REMARK                         _______ _______ _______ _____ _____    ______ ____
ROOT
ATOM      1  C   UNL     1       2.418   7.117  19.452  0.00  0.00    +0.000 A 
ATOM      2  C   UNL     1       2.692   7.519  18.143  0.00  0.00    +0.000 A 
ATOM      3  C   UNL     1       2.221   8.730  17.640  0.00  0.00    +0.000 A 
ATOM      4  C   UNL     1       1.449   9.560  18.441  0.00  0.00    +0.000 A 
ATOM      5  C   UNL     1       1.129   9.177  19.750  0.00  0.00    +0.000 A 
ATOM      6  C   UNL     1       1.618   7.949  20.249  0.00  0.00    +0.000 A 
ENDROOT
BRANCH   1   9
ATOM      7  C   UNL     1       2.365   4.645  19.769  0.00  0.00    +0.000 C 
ATOM      8  O   UNL     1       1.385   4.429  19.052  0.00  0.00    +0.000 OA
ATOM      9  N   UNL     1       2.917   5.902  20.001  0.00  0.00    +0.000 N 
ATOM     10  H   UNL     1       3.796   5.952  20.495  0.00  0.00    +0.000 HD
BRANCH   7  11
ATOM     11  C   UNL     1       3.039   3.495  20.506  0.00  0.00    +0.000 C 
BRANCH  11  12
ATOM     12  S   UNL     1       3.819   2.331  19.324  0.00  0.00    +0.000 S 
BRANCH  12  19
ATOM     13  C   UNL     1       5.391   4.520  14.960  0.00  0.00    +0.000 C 
ATOM     14  C   UNL     1       5.529   4.411  16.452  0.00  0.00    +0.000 A 
ATOM     15  C   UNL     1       6.470   5.170  17.121  0.00  0.00    +0.000 A 
ATOM     16  C   UNL     1       6.534   5.016  18.494  0.00  0.00    +0.000 A 
ATOM     17  C   UNL     1       7.527   5.767  19.318  0.00  0.00    +0.000 C 
ATOM     18  N   UNL     1       5.722   4.180  19.161  0.00  0.00    +0.000 NA
ATOM     19  C   UNL     1       4.832   3.485  18.434  0.00  0.00    +0.000 A 
ATOM     20  N   UNL     1       4.708   3.552  17.095  0.00  0.00    +0.000 NA
ENDBRANCH  12  19
ENDBRANCH  11  12
ENDBRANCH   7  11
ENDBRANCH   1   9
BRANCH   5  21
ATOM     21  C   UNL     1       0.299  10.098  20.613  0.00  0.00    +0.000 C 
BRANCH  21  22
ATOM     22  O   UNL     1      -0.012  11.272  19.867  0.00  0.00    +0.000 OA
BRANCH  22  23
ATOM     23  C   UNL     1      -1.335  11.625  19.781  0.00  0.00    +0.000 A 
ATOM     24  C   UNL     1      -1.972  11.203  18.607  0.00  0.00    +0.000 A 
ATOM     25  C   UNL     1      -3.322  11.479  18.354  0.00  0.00    +0.000 A 
ATOM     26  C   UNL     1      -4.010  12.199  19.333  0.00  0.00    +0.000 A 
ATOM     27  N   UNL     1      -5.311  12.620  19.411  0.00  0.00    +0.000 N 
ATOM     28  N   UNL     1      -5.597  13.318  20.526  0.00  0.00    +0.000 NA
ATOM     29  C   UNL     1      -4.437  13.331  21.188  0.00  0.00    +0.000 A 
ATOM     30  C   UNL     1      -3.408  12.643  20.504  0.00  0.00    +0.000 A 
ATOM     31  C   UNL     1      -2.049  12.353  20.740  0.00  0.00    +0.000 A 
ATOM     32  H   UNL     1      -6.055  12.464  18.740  0.00  0.00    +0.000 HD
ENDBRANCH  22  23
ENDBRANCH  21  22
ENDBRANCH   5  21
TORSDOF 7
ENDMDL
MODEL 4
REMARK VINA RESULT:      -8.1      2.941      9.570
REMARK  Name = 
REMARK  9 active torsions:
REMARK  status: ('A' for Active; 'I' for Inactive)
REMARK    1  A    between atoms: C_1  and  C_2
REMARK    2  A    between atoms: C_4  and  C_5
REMARK    3  A    between atoms: C_7  and  S_8
REMARK    4  A    between atoms: S_8  and  C_9
REMARK    5  A    between atoms: C_9  and  C_10
REMARK    6  A    between atoms: N_12  and  C_13
REMARK    7  A    between atoms: C_17  and  C_18
REMARK    8  A    between atoms: C_18  and  O_19
REMARK    9  A    between atoms: O_19  and  C_20
REMARK                            x       y       z     vdW  Elec       q    Type
REMARK                         _______ _______ _______ _____ _____    ______ ____
ROOT
ATOM      1  C   UNL     1       1.753   4.979  20.571  0.00  0.00    +0.000 A 
ATOM      2  C   UNL     1       2.134   3.983  21.473  0.00  0.00    +0.000 A 
ATOM      3  C   UNL     1       2.775   2.821  21.048  0.00  0.00    +0.000 A 
ATOM      4  C   UNL     1       3.035   2.628  19.698  0.00  0.00    +0.000 A 
ATOM      5  C   UNL     1       2.642   3.592  18.760  0.00  0.00    +0.000 A 
ATOM      6  C   UNL     1       1.998   4.768  19.206  0.00  0.00    +0.000 A 
ENDROOT
BRANCH   1   9
ATOM      7  C   UNL     1       1.449   7.452  20.491  0.00  0.00    +0.000 C 
ATOM      8  O   UNL     1       2.302   7.674  19.629  0.00  0.00    +0.000 OA
ATOM      9  N   UNL     1       1.130   6.190  20.984  0.00  0.00    +0.000 N 
ATOM     10  H   UNL     1       0.326   6.104  21.589  0.00  0.00    +0.000 HD
BRANCH   7  11
ATOM     11  C   UNL     1       0.682   8.607  21.122  0.00  0.00    +0.000 C 
BRANCH  11  12
ATOM     12  S   UNL     1       1.193  10.207  20.386  0.00  0.00    +0.000 S 
BRANCH  12  19
ATOM     13  C   UNL     1      -2.291   9.920  16.632  0.00  0.00    +0.000 C 
ATOM     14  C   UNL     1      -1.868  10.542  17.933  0.00  0.00    +0.000 A 
ATOM     15  C   UNL     1      -2.656  11.506  18.532  0.00  0.00    +0.000 A 
ATOM     16  C   UNL     1      -2.201  12.028  19.729  0.00  0.00    +0.000 A 
ATOM     17  C   UNL     1      -2.958  13.092  20.454  0.00  0.00    +0.000 C 
ATOM     18  N   UNL     1      -1.056  11.621  20.300  0.00  0.00    +0.000 NA
ATOM     19  C   UNL     1      -0.354  10.676  19.654  0.00  0.00    +0.000 A 
ATOM     20  N   UNL     1      -0.705  10.124  18.477  0.00  0.00    +0.000 NA
ENDBRANCH  12  19
ENDBRANCH  11  12
ENDBRANCH   7  11
ENDBRANCH   1   9
BRANCH   5  21
ATOM     21  C   UNL     1       2.944   3.373  17.296  0.00  0.00    +0.000 C 
BRANCH  21  22
ATOM     22  O   UNL     1       4.354   3.223  17.135  0.00  0.00    +0.000 OA
BRANCH  22  23
ATOM     23  C   UNL     1       5.114   4.362  17.203  0.00  0.00    +0.000 A 
ATOM     24  C   UNL     1       4.794   5.331  16.244  0.00  0.00    +0.000 A 
ATOM     25  C   UNL     1       5.472   6.554  16.169  0.00  0.00    +0.000 A 
ATOM     26  C   UNL     1       6.490   6.766  17.101  0.00  0.00    +0.000 A 
ATOM     27  N   UNL     1       7.327   7.831  17.312  0.00  0.00    +0.000 N 
ATOM     28  N   UNL     1       8.207   7.646  18.313  0.00  0.00    +0.000 NA
ATOM     29  C   UNL     1       7.911   6.425  18.765  0.00  0.00    +0.000 A 
ATOM     30  C   UNL     1       6.844   5.824  18.058  0.00  0.00    +0.000 A 
ATOM     31  C   UNL     1       6.147   4.600  18.119  0.00  0.00    +0.000 A 
ATOM     32  H   UNL     1       7.350   8.711  16.809  0.00  0.00    +0.000 HD
ENDBRANCH  22  23
ENDBRANCH  21  22
ENDBRANCH   5  21
TORSDOF 7
ENDMDL
MODEL 5
REMARK VINA RESULT:      -8.1      3.267     10.277
REMARK  Name = 
REMARK  9 active torsions:
REMARK  status: ('A' for Active; 'I' for Inactive)
REMARK    1  A    between atoms: C_1  and  C_2
REMARK    2  A    between atoms: C_4  and  C_5
REMARK    3  A    between atoms: C_7  and  S_8
REMARK    4  A    between atoms: S_8  and  C_9
REMARK    5  A    between atoms: C_9  and  C_10
REMARK    6  A    between atoms: N_12  and  C_13
REMARK    7  A    between atoms: C_17  and  C_18
REMARK    8  A    between atoms: C_18  and  O_19
REMARK    9  A    between atoms: O_19  and  C_20
REMARK                            x       y       z     vdW  Elec       q    Type
REMARK                         _______ _______ _______ _____ _____    ______ ____
ROOT
ATOM      1  C   UNL     1       1.550   8.691  20.206  0.00  0.00    +0.000 A 
ATOM      2  C   UNL     1       1.488   9.279  18.940  0.00  0.00    +0.000 A 
ATOM      3  C   UNL     1       1.880   8.588  17.796  0.00  0.00    +0.000 A 
ATOM      4  C   UNL     1       2.358   7.289  17.900  0.00  0.00    +0.000 A 
ATOM      5  C   UNL     1       2.462   6.675  19.155  0.00  0.00    +0.000 A 
ATOM      6  C   UNL     1       2.056   7.386  20.307  0.00  0.00    +0.000 A 
ENDROOT
BRANCH   1   9
ATOM      7  C   UNL     1      -0.044   9.070  22.084  0.00  0.00    +0.000 C 
ATOM      8  O   UNL     1      -0.845   8.186  21.773  0.00  0.00    +0.000 OA
ATOM      9  N   UNL     1       1.124   9.363  21.386  0.00  0.00    +0.000 N 
ATOM     10  H   UNL     1       1.776  10.013  21.799  0.00  0.00    +0.000 HD
BRANCH   7  11
ATOM     11  C   UNL     1      -0.318   9.958  23.290  0.00  0.00    +0.000 C 
BRANCH  11  12
ATOM     12  S   UNL     1      -1.645  11.168  22.920  0.00  0.00    +0.000 S 
BRANCH  12  19
ATOM     13  C   UNL     1      -0.409  16.136  23.240  0.00  0.00    +0.000 C 
ATOM     14  C   UNL     1      -0.138  14.793  22.623  0.00  0.00    +0.000 A 
ATOM     15  C   UNL     1       0.861  14.649  21.680  0.00  0.00    +0.000 A 
ATOM     16  C   UNL     1       1.051  13.382  21.161  0.00  0.00    +0.000 A 
ATOM     17  C   UNL     1       2.088  13.113  20.120  0.00  0.00    +0.000 C 
ATOM     18  N   UNL     1       0.315  12.329  21.550  0.00  0.00    +0.000 NA
ATOM     19  C   UNL     1      -0.632  12.555  22.475  0.00  0.00    +0.000 A 
ATOM     20  N   UNL     1      -0.905  13.755  23.023  0.00  0.00    +0.000 NA
ENDBRANCH  12  19
ENDBRANCH  11  12
ENDBRANCH   7  11
ENDBRANCH   1   9
BRANCH   5  21
ATOM     21  C   UNL     1       2.971   5.256  19.250  0.00  0.00    +0.000 C 
BRANCH  21  22
ATOM     22  O   UNL     1       4.389   5.286  19.408  0.00  0.00    +0.000 OA
BRANCH  22  23
ATOM     23  C   UNL     1       5.144   5.267  18.263  0.00  0.00    +0.000 A 
ATOM     24  C   UNL     1       6.337   5.996  18.344  0.00  0.00    +0.000 A 
ATOM     25  C   UNL     1       7.228   6.086  17.267  0.00  0.00    +0.000 A 
ATOM     26  C   UNL     1       6.870   5.410  16.098  0.00  0.00    +0.000 A 
ATOM     27  N   UNL     1       7.500   5.282  14.889  0.00  0.00    +0.000 N 
ATOM     28  N   UNL     1       6.816   4.553  13.988  0.00  0.00    +0.000 NA
ATOM     29  C   UNL     1       5.715   4.194  14.652  0.00  0.00    +0.000 A 
ATOM     30  C   UNL     1       5.690   4.688  15.977  0.00  0.00    +0.000 A 
ATOM     31  C   UNL     1       4.808   4.608  17.074  0.00  0.00    +0.000 A 
ATOM     32  H   UNL     1       8.398   5.665  14.613  0.00  0.00    +0.000 HD
ENDBRANCH  22  23
ENDBRANCH  21  22
ENDBRANCH   5  21
TORSDOF 7
ENDMDL
MODEL 6
REMARK VINA RESULT:      -8.1      2.236      2.963
REMARK  Name = 
REMARK  9 active torsions:
REMARK  status: ('A' for Active; 'I' for Inactive)
REMARK    1  A    between atoms: C_1  and  C_2
REMARK    2  A    between atoms: C_4  and  C_5
REMARK    3  A    between atoms: C_7  and  S_8
REMARK    4  A    between atoms: S_8  and  C_9
REMARK    5  A    between atoms: C_9  and  C_10
REMARK    6  A    between atoms: N_12  and  C_13
REMARK    7  A    between atoms: C_17  and  C_18
REMARK    8  A    between atoms: C_18  and  O_19
REMARK    9  A    between atoms: O_19  and  C_20
REMARK                            x       y       z     vdW  Elec       q    Type
REMARK                         _______ _______ _______ _____ _____    ______ ____
ROOT
ATOM      1  C   UNL     1       2.280   6.169  19.265  0.00  0.00    +0.000 A 
ATOM      2  C   UNL     1       1.840   6.321  20.582  0.00  0.00    +0.000 A 
ATOM      3  C   UNL     1       1.378   7.546  21.058  0.00  0.00    +0.000 A 
ATOM      4  C   UNL     1       1.362   8.653  20.222  0.00  0.00    +0.000 A 
ATOM      5  C   UNL     1       1.823   8.547  18.903  0.00  0.00    +0.000 A 
ATOM      6  C   UNL     1       2.283   7.297  18.431  0.00  0.00    +0.000 A 
ENDROOT
BRANCH   1   9
ATOM      7  C   UNL     1       2.017   4.153  17.823  0.00  0.00    +0.000 C 
ATOM      8  O   UNL     1       0.928   4.464  17.337  0.00  0.00    +0.000 OA
ATOM      9  N   UNL     1       2.724   4.920  18.744  0.00  0.00    +0.000 N 
ATOM     10  H   UNL     1       3.665   4.639  18.977  0.00  0.00    +0.000 HD
BRANCH   7  11
ATOM     11  C   UNL     1       2.668   2.827  17.450  0.00  0.00    +0.000 C 
BRANCH  11  12
ATOM     12  S   UNL     1       4.105   2.479  18.533  0.00  0.00    +0.000 S 
BRANCH  12  19
ATOM     13  C   UNL     1       6.430   4.569  14.466  0.00  0.00    +0.000 C 
ATOM     14  C   UNL     1       6.308   4.488  15.962  0.00  0.00    +0.000 A 
ATOM     15  C   UNL     1       7.129   5.251  16.769  0.00  0.00    +0.000 A 
ATOM     16  C   UNL     1       6.954   5.124  18.135  0.00  0.00    +0.000 A 
ATOM     17  C   UNL     1       7.799   5.883  19.104  0.00  0.00    +0.000 C 
ATOM     18  N   UNL     1       6.029   4.309  18.667  0.00  0.00    +0.000 NA
ATOM     19  C   UNL     1       5.269   3.607  17.810  0.00  0.00    +0.000 A 
ATOM     20  N   UNL     1       5.379   3.649  16.469  0.00  0.00    +0.000 NA
ENDBRANCH  12  19
ENDBRANCH  11  12
ENDBRANCH   7  11
ENDBRANCH   1   9
BRANCH   5  21
ATOM     21  C   UNL     1       1.786   9.758  18.001  0.00  0.00    +0.000 C 
BRANCH  21  22
ATOM     22  O   UNL     1       1.280  10.867  18.741  0.00  0.00    +0.000 OA
BRANCH  22  23
ATOM     23  C   UNL     1      -0.069  11.105  18.663  0.00  0.00    +0.000 A 
ATOM     24  C   UNL     1      -0.511  12.189  19.432  0.00  0.00    +0.000 A 
ATOM     25  C   UNL     1      -1.858  12.572  19.471  0.00  0.00    +0.000 A 
ATOM     26  C   UNL     1      -2.748  11.818  18.703  0.00  0.00    +0.000 A 
ATOM     27  N   UNL     1      -4.100  11.922  18.508  0.00  0.00    +0.000 N 
ATOM     28  N   UNL     1      -4.611  10.978  17.695  0.00  0.00    +0.000 NA
ATOM     29  C   UNL     1      -3.543  10.255  17.351  0.00  0.00    +0.000 A 
ATOM     30  C   UNL     1      -2.348  10.730  17.938  0.00  0.00    +0.000 A 
ATOM     31  C   UNL     1      -0.987  10.362  17.910  0.00  0.00    +0.000 A 
ATOM     32  H   UNL     1      -4.731  12.613  18.897  0.00  0.00    +0.000 HD
ENDBRANCH  22  23
ENDBRANCH  21  22
ENDBRANCH   5  21
TORSDOF 7
ENDMDL
MODEL 7
REMARK VINA RESULT:      -8.1      2.542      3.783
REMARK  Name = 
REMARK  9 active torsions:
REMARK  status: ('A' for Active; 'I' for Inactive)
REMARK    1  A    between atoms: C_1  and  C_2
REMARK    2  A    between atoms: C_4  and  C_5
REMARK    3  A    between atoms: C_7  and  S_8
REMARK    4  A    between atoms: S_8  and  C_9
REMARK    5  A    between atoms: C_9  and  C_10
REMARK    6  A    between atoms: N_12  and  C_13
REMARK    7  A    between atoms: C_17  and  C_18
REMARK    8  A    between atoms: C_18  and  O_19
REMARK    9  A    between atoms: O_19  and  C_20
REMARK                            x       y       z     vdW  Elec       q    Type
REMARK                         _______ _______ _______ _____ _____    ______ ____
ROOT
ATOM      1  C   UNL     1       0.996   8.747  21.223  0.00  0.00    +0.000 A 
ATOM      2  C   UNL     1       0.470   9.040  22.484  0.00  0.00    +0.000 A 
ATOM      3  C   UNL     1      -0.302  10.178  22.705  0.00  0.00    +0.000 A 
ATOM      4  C   UNL     1      -0.553  11.058  21.661  0.00  0.00    +0.000 A 
ATOM      5  C   UNL     1      -0.019  10.813  20.389  0.00  0.00    +0.000 A 
ATOM      6  C   UNL     1       0.758   9.652  20.178  0.00  0.00    +0.000 A 
ENDROOT
BRANCH   1   9
ATOM      7  C   UNL     1       2.262   7.218  19.717  0.00  0.00    +0.000 C 
ATOM      8  O   UNL     1       2.120   7.880  18.687  0.00  0.00    +0.000 OA
ATOM      9  N   UNL     1       1.758   7.573  20.965  0.00  0.00    +0.000 N 
ATOM     10  H   UNL     1       2.044   7.031  21.766  0.00  0.00    +0.000 HD
BRANCH   7  11
ATOM     11  C   UNL     1       3.005   5.889  19.672  0.00  0.00    +0.000 C 
BRANCH  11  12
ATOM     12  S   UNL     1       2.802   5.083  18.039  0.00  0.00    +0.000 S 
BRANCH  12  19
ATOM     13  C   UNL     1       7.794   5.701  19.048  0.00  0.00    +0.000 C 
ATOM     14  C   UNL     1       6.735   5.271  18.072  0.00  0.00    +0.000 A 
ATOM     15  C   UNL     1       7.090   4.815  16.817  0.00  0.00    +0.000 A 
ATOM     16  C   UNL     1       6.059   4.435  15.977  0.00  0.00    +0.000 A 
ATOM     17  C   UNL     1       6.321   3.947  14.591  0.00  0.00    +0.000 C 
ATOM     18  N   UNL     1       4.770   4.492  16.351  0.00  0.00    +0.000 NA
ATOM     19  C   UNL     1       4.514   4.943  17.590  0.00  0.00    +0.000 A 
ATOM     20  N   UNL     1       5.447   5.354  18.470  0.00  0.00    +0.000 NA
ENDBRANCH  12  19
ENDBRANCH  11  12
ENDBRANCH   7  11
ENDBRANCH   1   9
BRANCH   5  21
ATOM     21  C   UNL     1      -0.313  11.773  19.261  0.00  0.00    +0.000 C 
BRANCH  21  22
ATOM     22  O   UNL     1      -0.865  11.043  18.167  0.00  0.00    +0.000 OA
BRANCH  22  23
ATOM     23  C   UNL     1      -2.195  11.238  17.894  0.00  0.00    +0.000 A 
ATOM     24  C   UNL     1      -2.572  10.913  16.585  0.00  0.00    +0.000 A 
ATOM     25  C   UNL     1      -3.891  11.053  16.135  0.00  0.00    +0.000 A 
ATOM     26  C   UNL     1      -4.821  11.535  17.058  0.00  0.00    +0.000 A 
ATOM     27  N   UNL     1      -6.166  11.776  16.957  0.00  0.00    +0.000 N 
ATOM     28  N   UNL     1      -6.721  12.267  18.080  0.00  0.00    +0.000 NA
ATOM     29  C   UNL     1      -5.694  12.329  18.932  0.00  0.00    +0.000 A 
ATOM     30  C   UNL     1      -4.482  11.878  18.360  0.00  0.00    +0.000 A 
ATOM     31  C   UNL     1      -3.149  11.728  18.794  0.00  0.00    +0.000 A 
ATOM     32  H   UNL     1      -6.764  11.627  16.152  0.00  0.00    +0.000 HD
ENDBRANCH  22  23
ENDBRANCH  21  22
ENDBRANCH   5  21
TORSDOF 7
ENDMDL
MODEL 8
REMARK VINA RESULT:      -8.1      1.199      2.061
REMARK  Name = 
REMARK  9 active torsions:
REMARK  status: ('A' for Active; 'I' for Inactive)
REMARK    1  A    between atoms: C_1  and  C_2
REMARK    2  A    between atoms: C_4  and  C_5
REMARK    3  A    between atoms: C_7  and  S_8
REMARK    4  A    between atoms: S_8  and  C_9
REMARK    5  A    between atoms: C_9  and  C_10
REMARK    6  A    between atoms: N_12  and  C_13
REMARK    7  A    between atoms: C_17  and  C_18
REMARK    8  A    between atoms: C_18  and  O_19
REMARK    9  A    between atoms: O_19  and  C_20
REMARK                            x       y       z     vdW  Elec       q    Type
REMARK                         _______ _______ _______ _____ _____    ______ ____
ROOT
ATOM      1  C   UNL     1       1.962   7.783  19.861  0.00  0.00    +0.000 A 
ATOM      2  C   UNL     1       1.772   8.456  18.652  0.00  0.00    +0.000 A 
ATOM      3  C   UNL     1       1.025   9.630  18.581  0.00  0.00    +0.000 A 
ATOM      4  C   UNL     1       0.437  10.148  19.728  0.00  0.00    +0.000 A 
ATOM      5  C   UNL     1       0.581   9.485  20.954  0.00  0.00    +0.000 A 
ATOM      6  C   UNL     1       1.346   8.299  21.012  0.00  0.00    +0.000 A 
ENDROOT
BRANCH   1   9
ATOM      7  C   UNL     1       2.243   5.338  20.255  0.00  0.00    +0.000 C 
ATOM      8  O   UNL     1       1.051   5.085  20.443  0.00  0.00    +0.000 OA
ATOM      9  N   UNL     1       2.749   6.602  19.966  0.00  0.00    +0.000 N 
ATOM     10  H   UNL     1       3.719   6.677  19.698  0.00  0.00    +0.000 HD
BRANCH   7  11
ATOM     11  C   UNL     1       3.285   4.233  20.367  0.00  0.00    +0.000 C 
BRANCH  11  12
ATOM     12  S   UNL     1       3.318   3.212  18.845  0.00  0.00    +0.000 S 
BRANCH  12  19
ATOM     13  C   UNL     1       7.797   5.689  19.193  0.00  0.00    +0.000 C 
ATOM     14  C   UNL     1       6.789   4.995  18.320  0.00  0.00    +0.000 A 
ATOM     15  C   UNL     1       7.000   4.895  16.959  0.00  0.00    +0.000 A 
ATOM     16  C   UNL     1       6.029   4.239  16.224  0.00  0.00    +0.000 A 
ATOM     17  C   UNL     1       6.139   4.091  14.742  0.00  0.00    +0.000 C 
ATOM     18  N   UNL     1       4.933   3.712  16.793  0.00  0.00    +0.000 NA
ATOM     19  C   UNL     1       4.809   3.849  18.123  0.00  0.00    +0.000 A 
ATOM     20  N   UNL     1       5.689   4.486  18.918  0.00  0.00    +0.000 NA
ENDBRANCH  12  19
ENDBRANCH  11  12
ENDBRANCH   7  11
ENDBRANCH   1   9
BRANCH   5  21
ATOM     21  C   UNL     1      -0.053  10.069  22.195  0.00  0.00    +0.000 C 
BRANCH  21  22
ATOM     22  O   UNL     1       0.169  11.478  22.205  0.00  0.00    +0.000 OA
BRANCH  22  23
ATOM     23  C   UNL     1      -0.879  12.272  22.595  0.00  0.00    +0.000 A 
ATOM     24  C   UNL     1      -0.597  13.643  22.600  0.00  0.00    +0.000 A 
ATOM     25  C   UNL     1      -1.553  14.597  22.974  0.00  0.00    +0.000 A 
ATOM     26  C   UNL     1      -2.810  14.115  23.343  0.00  0.00    +0.000 A 
ATOM     27  N   UNL     1      -3.952  14.757  23.743  0.00  0.00    +0.000 N 
ATOM     28  N   UNL     1      -4.972  13.930  24.039  0.00  0.00    +0.000 NA
ATOM     29  C   UNL     1      -4.464  12.717  23.807  0.00  0.00    +0.000 A 
ATOM     30  C   UNL     1      -3.123  12.762  23.362  0.00  0.00    +0.000 A 
ATOM     31  C   UNL     1      -2.147  11.818  22.980  0.00  0.00    +0.000 A 
ATOM     32  H   UNL     1      -4.103  15.755  23.835  0.00  0.00    +0.000 HD
ENDBRANCH  22  23
ENDBRANCH  21  22
ENDBRANCH   5  21
TORSDOF 7
ENDMDL
MODEL 9
REMARK VINA RESULT:      -8.0      2.922      9.677
REMARK  Name = 
REMARK  9 active torsions:
REMARK  status: ('A' for Active; 'I' for Inactive)
REMARK    1  A    between atoms: C_1  and  C_2
REMARK    2  A    between atoms: C_4  and  C_5
REMARK    3  A    between atoms: C_7  and  S_8
REMARK    4  A    between atoms: S_8  and  C_9
REMARK    5  A    between atoms: C_9  and  C_10
REMARK    6  A    between atoms: N_12  and  C_13
REMARK    7  A    between atoms: C_17  and  C_18
REMARK    8  A    between atoms: C_18  and  O_19
REMARK    9  A    between atoms: O_19  and  C_20
REMARK                            x       y       z     vdW  Elec       q    Type
REMARK                         _______ _______ _______ _____ _____    ______ ____
ROOT
ATOM      1  C   UNL     1       1.678   4.960  20.519  0.00  0.00    +0.000 A 
ATOM      2  C   UNL     1       2.091   3.997  21.443  0.00  0.00    +0.000 A 
ATOM      3  C   UNL     1       2.761   2.843  21.042  0.00  0.00    +0.000 A 
ATOM      4  C   UNL     1       3.018   2.624  19.696  0.00  0.00    +0.000 A 
ATOM      5  C   UNL     1       2.592   3.552  18.737  0.00  0.00    +0.000 A 
ATOM      6  C   UNL     1       1.920   4.721  19.158  0.00  0.00    +0.000 A 
ENDROOT
BRANCH   1   9
ATOM      7  C   UNL     1       1.443   7.442  20.549  0.00  0.00    +0.000 C 
ATOM      8  O   UNL     1       2.424   7.687  19.844  0.00  0.00    +0.000 OA
ATOM      9  N   UNL     1       1.024   6.163  20.907  0.00  0.00    +0.000 N 
ATOM     10  H   UNL     1       0.135   6.067  21.374  0.00  0.00    +0.000 HD
BRANCH   7  11
ATOM     11  C   UNL     1       0.614   8.581  21.125  0.00  0.00    +0.000 C 
BRANCH  11  12
ATOM     12  S   UNL     1       1.196  10.198  20.488  0.00  0.00    +0.000 S 
BRANCH  12  19
ATOM     13  C   UNL     1      -3.062  13.059  20.507  0.00  0.00    +0.000 C 
ATOM     14  C   UNL     1      -2.224  12.027  19.807  0.00  0.00    +0.000 A 
ATOM     15  C   UNL     1      -2.648  11.480  18.611  0.00  0.00    +0.000 A 
ATOM     16  C   UNL     1      -1.820  10.539  18.027  0.00  0.00    +0.000 A 
ATOM     17  C   UNL     1      -2.187   9.865  16.746  0.00  0.00    +0.000 C 
ATOM     18  N   UNL     1      -0.653  10.170  18.578  0.00  0.00    +0.000 NA
ATOM     19  C   UNL     1      -0.314  10.755  19.738  0.00  0.00    +0.000 A 
ATOM     20  N   UNL     1      -1.061  11.664  20.392  0.00  0.00    +0.000 NA
ENDBRANCH  12  19
ENDBRANCH  11  12
ENDBRANCH   7  11
ENDBRANCH   1   9
BRANCH   5  21
ATOM     21  C   UNL     1       2.892   3.306  17.277  0.00  0.00    +0.000 C 
BRANCH  21  22
ATOM     22  O   UNL     1       4.299   3.135  17.118  0.00  0.00    +0.000 OA
BRANCH  22  23
ATOM     23  C   UNL     1       5.076   4.264  17.182  0.00  0.00    +0.000 A 
ATOM     24  C   UNL     1       4.813   5.206  16.179  0.00  0.00    +0.000 A 
ATOM     25  C   UNL     1       5.514   6.415  16.094  0.00  0.00    +0.000 A 
ATOM     26  C   UNL     1       6.496   6.642  17.061  0.00  0.00    +0.000 A 
ATOM     27  N   UNL     1       7.341   7.699  17.273  0.00  0.00    +0.000 N 
ATOM     28  N   UNL     1       8.174   7.534  18.317  0.00  0.00    +0.000 NA
ATOM     29  C   UNL     1       7.838   6.333  18.795  0.00  0.00    +0.000 A 
ATOM     30  C   UNL     1       6.792   5.726  18.063  0.00  0.00    +0.000 A 
ATOM     31  C   UNL     1       6.073   4.516  18.133  0.00  0.00    +0.000 A 
ATOM     32  H   UNL     1       7.400   8.562  16.744  0.00  0.00    +0.000 HD
ENDBRANCH  22  23
ENDBRANCH  21  22
ENDBRANCH   5  21
TORSDOF 7
ENDMDL
