MODEL 1
REMARK VINA RESULT:      -8.2      0.000      0.000
REMARK  Name = 
REMARK  4 active torsions:
REMARK  status: ('A' for Active; 'I' for Inactive)
REMARK    1  A    between atoms: C_2  and  C_3
REMARK    2  A    between atoms: C_4  and  C_5
REMARK    3  A    between atoms: N_12  and  C_13
REMARK    4  A    between atoms: C_18  and  N_19
REMARK                            x       y       z     vdW  Elec       q    Type
REMARK                         _______ _______ _______ _____ _____    ______ ____
ROOT
ATOM      1  O   UNL     1       8.101   6.419  18.359  0.00  0.00    +0.000 OA
ATOM      2  C   UNL     1       7.588   7.311  17.692  0.00  0.00    +0.000 C 
ATOM      3  N   UNL     1       6.703   7.143  16.648  0.00  0.00    +0.000 N 
ATOM      4  H   UNL     1       6.090   7.905  16.386  0.00  0.00    +0.000 HD
ENDROOT
BRANCH   3   5
ATOM      5  C   UNL     1       6.286   5.873  16.186  0.00  0.00    +0.000 A 
ATOM      6  C   UNL     1       7.015   5.253  15.160  0.00  0.00    +0.000 A 
ATOM      7  C   UNL     1       6.576   4.054  14.607  0.00  0.00    +0.000 A 
ATOM      8  C   UNL     1       5.438   3.442  15.114  0.00  0.00    +0.000 A 
ATOM      9  C   UNL     1       4.708   4.058  16.137  0.00  0.00    +0.000 A 
ATOM     10  C   UNL     1       5.081   5.304  16.672  0.00  0.00    +0.000 A 
BRANCH  10  11
ATOM     11  N   UNL     1       4.277   5.972  17.598  0.00  0.00    +0.000 N 
ATOM     12  C   UNL     1       4.434   5.699  19.042  0.00  0.00    +0.000 C 
ATOM     13  C   UNL     1       3.082   5.985  19.716  0.00  0.00    +0.000 C 
ATOM     14  O   UNL     1       2.652   7.340  19.491  0.00  0.00    +0.000 OA
ATOM     15  C   UNL     1       2.570   7.626  18.081  0.00  0.00    +0.000 C 
ATOM     16  C   UNL     1       3.918   7.388  17.373  0.00  0.00    +0.000 C 
ENDBRANCH  10  11
ENDBRANCH   3   5
BRANCH   2  17
ATOM     17  C   UNL     1       7.858   8.746  17.986  0.00  0.00    +0.000 C 
ATOM     18  C   UNL     1       8.768   9.093  18.913  0.00  0.00    +0.000 C 
BRANCH  18  19
ATOM     19  C   UNL     1       9.269  10.470  19.041  0.00  0.00    +0.000 A 
ATOM     20  C   UNL     1       9.486  11.304  17.938  0.00  0.00    +0.000 A 
ATOM     21  C   UNL     1      10.134  12.535  18.094  0.00  0.00    +0.000 A 
ATOM     22  C   UNL     1      10.535  12.952  19.359  0.00  0.00    +0.000 A 
ATOM     23 CL   UNL     1      11.421  14.413  19.541  0.00  0.00    +0.000 Cl
ATOM     24  C   UNL     1      10.246  12.171  20.482  0.00  0.00    +0.000 A 
ATOM     25  C   UNL     1       9.602  10.940  20.321  0.00  0.00    +0.000 A 
ENDBRANCH  18  19
ENDBRANCH   2  17
TORSDOF 4
ENDMDL
MODEL 2
REMARK VINA RESULT:      -8.0      4.330      6.391
REMARK  Name = 
REMARK  4 active torsions:
REMARK  status: ('A' for Active; 'I' for Inactive)
REMARK    1  A    between atoms: C_2  and  C_3
REMARK    2  A    between atoms: C_4  and  C_5
REMARK    3  A    between atoms: N_12  and  C_13
REMARK    4  A    between atoms: C_18  and  N_19
REMARK                            x       y       z     vdW  Elec       q    Type
REMARK                         _______ _______ _______ _____ _____    ______ ____
ROOT
ATOM      1  O   UNL     1       2.885   6.567  19.861  0.00  0.00    +0.000 OA
ATOM      2  C   UNL     1       2.594   6.854  18.705  0.00  0.00    +0.000 C 
ATOM      3  N   UNL     1       2.352   5.965  17.680  0.00  0.00    +0.000 N 
ATOM      4  H   UNL     1       1.807   6.262  16.880  0.00  0.00    +0.000 HD
ENDROOT
BRANCH   3   5
ATOM      5  C   UNL     1       2.440   4.562  17.837  0.00  0.00    +0.000 A 
ATOM      6  C   UNL     1       1.358   3.875  18.406  0.00  0.00    +0.000 A 
ATOM      7  C   UNL     1       1.448   2.512  18.674  0.00  0.00    +0.000 A 
ATOM      8  C   UNL     1       2.600   1.821  18.325  0.00  0.00    +0.000 A 
ATOM      9  C   UNL     1       3.682   2.503  17.758  0.00  0.00    +0.000 A 
ATOM     10  C   UNL     1       3.655   3.892  17.537  0.00  0.00    +0.000 A 
BRANCH  10  11
ATOM     11  N   UNL     1       4.783   4.585  17.095  0.00  0.00    +0.000 N 
ATOM     12  C   UNL     1       5.792   5.049  18.070  0.00  0.00    +0.000 C 
ATOM     13  C   UNL     1       6.483   6.284  17.468  0.00  0.00    +0.000 C 
ATOM     14  O   UNL     1       7.091   5.986  16.198  0.00  0.00    +0.000 OA
ATOM     15  C   UNL     1       6.119   5.464  15.271  0.00  0.00    +0.000 C 
ATOM     16  C   UNL     1       5.429   4.201  15.822  0.00  0.00    +0.000 C 
ENDBRANCH  10  11
ENDBRANCH   3   5
BRANCH   2  17
ATOM     17  C   UNL     1       2.428   8.273  18.281  0.00  0.00    +0.000 C 
ATOM     18  C   UNL     1       1.325   8.962  18.622  0.00  0.00    +0.000 C 
BRANCH  18  19
ATOM     19  C   UNL     1       1.237  10.422  18.474  0.00  0.00    +0.000 A 
ATOM     20  C   UNL     1       2.332  11.215  18.109  0.00  0.00    +0.000 A 
ATOM     21  C   UNL     1       2.248  12.611  18.160  0.00  0.00    +0.000 A 
ATOM     22  C   UNL     1       1.057  13.220  18.542  0.00  0.00    +0.000 A 
ATOM     23 CL   UNL     1       0.979  14.929  18.706  0.00  0.00    +0.000 Cl
ATOM     24  C   UNL     1      -0.071  12.444  18.823  0.00  0.00    +0.000 A 
ATOM     25  C   UNL     1       0.018  11.049  18.775  0.00  0.00    +0.000 A 
ENDBRANCH  18  19
ENDBRANCH   2  17
TORSDOF 4
ENDMDL
MODEL 3
REMARK VINA RESULT:      -8.0      0.606      1.066
REMARK  Name = 
REMARK  4 active torsions:
REMARK  status: ('A' for Active; 'I' for Inactive)
REMARK    1  A    between atoms: C_2  and  C_3
REMARK    2  A    between atoms: C_4  and  C_5
REMARK    3  A    between atoms: N_12  and  C_13
REMARK    4  A    between atoms: C_18  and  N_19
REMARK                            x       y       z     vdW  Elec       q    Type
REMARK                         _______ _______ _______ _____ _____    ______ ____
ROOT
ATOM      1  O   UNL     1       8.033   6.564  18.415  0.00  0.00    +0.000 OA
ATOM      2  C   UNL     1       7.500   7.401  17.694  0.00  0.00    +0.000 C 
ATOM      3  N   UNL     1       6.601   7.149  16.679  0.00  0.00    +0.000 N 
ATOM      4  H   UNL     1       5.975   7.883  16.374  0.00  0.00    +0.000 HD
ENDROOT
BRANCH   3   5
ATOM      5  C   UNL     1       6.194   5.844  16.315  0.00  0.00    +0.000 A 
ATOM      6  C   UNL     1       6.946   5.141  15.363  0.00  0.00    +0.000 A 
ATOM      7  C   UNL     1       6.518   3.899  14.902  0.00  0.00    +0.000 A 
ATOM      8  C   UNL     1       5.367   3.333  15.429  0.00  0.00    +0.000 A 
ATOM      9  C   UNL     1       4.613   4.031  16.379  0.00  0.00    +0.000 A 
ATOM     10  C   UNL     1       4.975   5.318  16.817  0.00  0.00    +0.000 A 
BRANCH  10  11
ATOM     11  N   UNL     1       4.150   6.062  17.664  0.00  0.00    +0.000 N 
ATOM     12  C   UNL     1       4.225   5.863  19.126  0.00  0.00    +0.000 C 
ATOM     13  C   UNL     1       2.851   6.228  19.713  0.00  0.00    +0.000 C 
ATOM     14  O   UNL     1       2.481   7.582  19.394  0.00  0.00    +0.000 OA
ATOM     15  C   UNL     1       2.480   7.794  17.969  0.00  0.00    +0.000 C 
ATOM     16  C   UNL     1       3.853   7.474  17.346  0.00  0.00    +0.000 C 
ENDBRANCH  10  11
ENDBRANCH   3   5
BRANCH   2  17
ATOM     17  C   UNL     1       7.756   8.856  17.881  0.00  0.00    +0.000 C 
ATOM     18  C   UNL     1       8.770   9.275  18.659  0.00  0.00    +0.000 C 
BRANCH  18  19
ATOM     19  C   UNL     1       9.235  10.670  18.654  0.00  0.00    +0.000 A 
ATOM     20  C   UNL     1      10.241  11.138  19.508  0.00  0.00    +0.000 A 
ATOM     21  C   UNL     1      10.520  12.507  19.596  0.00  0.00    +0.000 A 
ATOM     22  C   UNL     1       9.820  13.409  18.802  0.00  0.00    +0.000 A 
ATOM     23 CL   UNL     1      10.087  15.097  18.980  0.00  0.00    +0.000 Cl
ATOM     24  C   UNL     1       8.875  12.949  17.879  0.00  0.00    +0.000 A 
ATOM     25  C   UNL     1       8.597  11.581  17.798  0.00  0.00    +0.000 A 
ENDBRANCH  18  19
ENDBRANCH   2  17
TORSDOF 4
ENDMDL
MODEL 4
REMARK VINA RESULT:      -8.0      5.345      6.881
REMARK  Name = 
REMARK  4 active torsions:
REMARK  status: ('A' for Active; 'I' for Inactive)
REMARK    1  A    between atoms: C_2  and  C_3
REMARK    2  A    between atoms: C_4  and  C_5
REMARK    3  A    between atoms: N_12  and  C_13
REMARK    4  A    between atoms: C_18  and  N_19
REMARK                            x       y       z     vdW  Elec       q    Type
REMARK                         _______ _______ _______ _____ _____    ______ ____
ROOT
ATOM      1  O   UNL     1       1.825   6.013  17.588  0.00  0.00    +0.000 OA
ATOM      2  C   UNL     1       2.631   6.437  18.409  0.00  0.00    +0.000 C 
ATOM      3  N   UNL     1       3.998   6.256  18.380  0.00  0.00    +0.000 N 
ATOM      4  H   UNL     1       4.597   6.898  18.883  0.00  0.00    +0.000 HD
ENDROOT
BRANCH   3   5
ATOM      5  C   UNL     1       4.656   5.507  17.376  0.00  0.00    +0.000 A 
ATOM      6  C   UNL     1       5.368   6.190  16.379  0.00  0.00    +0.000 A 
ATOM      7  C   UNL     1       5.939   5.495  15.318  0.00  0.00    +0.000 A 
ATOM      8  C   UNL     1       5.848   4.110  15.277  0.00  0.00    +0.000 A 
ATOM      9  C   UNL     1       5.138   3.425  16.270  0.00  0.00    +0.000 A 
ATOM     10  C   UNL     1       4.487   4.099  17.320  0.00  0.00    +0.000 A 
BRANCH  10  11
ATOM     11  N   UNL     1       3.674   3.422  18.230  0.00  0.00    +0.000 N 
ATOM     12  C   UNL     1       2.605   2.527  17.738  0.00  0.00    +0.000 C 
ATOM     13  C   UNL     1       1.507   2.484  18.814  0.00  0.00    +0.000 C 
ATOM     14  O   UNL     1       2.020   2.029  20.079  0.00  0.00    +0.000 OA
ATOM     15  C   UNL     1       3.111   2.860  20.522  0.00  0.00    +0.000 C 
ATOM     16  C   UNL     1       4.251   2.900  19.486  0.00  0.00    +0.000 C 
ENDBRANCH  10  11
ENDBRANCH   3   5
BRANCH   2  17
ATOM     17  C   UNL     1       2.191   7.268  19.564  0.00  0.00    +0.000 C 
ATOM     18  C   UNL     1       1.694   8.502  19.366  0.00  0.00    +0.000 C 
BRANCH  18  19
ATOM     19  C   UNL     1       0.995   9.244  20.425  0.00  0.00    +0.000 A 
ATOM     20  C   UNL     1       0.780   8.717  21.705  0.00  0.00    +0.000 A 
ATOM     21  C   UNL     1      -0.048   9.382  22.618  0.00  0.00    +0.000 A 
ATOM     22  C   UNL     1      -0.632  10.595  22.267  0.00  0.00    +0.000 A 
ATOM     23 CL   UNL     1      -1.729  11.363  23.344  0.00  0.00    +0.000 Cl
ATOM     24  C   UNL     1      -0.356  11.177  21.027  0.00  0.00    +0.000 A 
ATOM     25  C   UNL     1       0.468  10.507  20.116  0.00  0.00    +0.000 A 
ENDBRANCH  18  19
ENDBRANCH   2  17
TORSDOF 4
ENDMDL
MODEL 5
REMARK VINA RESULT:      -7.9      5.478      7.180
REMARK  Name = 
REMARK  4 active torsions:
REMARK  status: ('A' for Active; 'I' for Inactive)
REMARK    1  A    between atoms: C_2  and  C_3
REMARK    2  A    between atoms: C_4  and  C_5
REMARK    3  A    between atoms: N_12  and  C_13
REMARK    4  A    between atoms: C_18  and  N_19
REMARK                            x       y       z     vdW  Elec       q    Type
REMARK                         _______ _______ _______ _____ _____    ______ ____
ROOT
ATOM      1  O   UNL     1       2.493   8.364  17.175  0.00  0.00    +0.000 OA
ATOM      2  C   UNL     1       2.472   7.880  18.301  0.00  0.00    +0.000 C 
ATOM      3  N   UNL     1       3.112   6.728  18.706  0.00  0.00    +0.000 N 
ATOM      4  H   UNL     1       3.317   6.589  19.687  0.00  0.00    +0.000 HD
ENDROOT
BRANCH   3   5
ATOM      5  C   UNL     1       3.875   5.921  17.830  0.00  0.00    +0.000 A 
ATOM      6  C   UNL     1       4.599   6.537  16.800  0.00  0.00    +0.000 A 
ATOM      7  C   UNL     1       5.276   5.770  15.855  0.00  0.00    +0.000 A 
ATOM      8  C   UNL     1       5.276   4.387  15.970  0.00  0.00    +0.000 A 
ATOM      9  C   UNL     1       4.555   3.768  16.997  0.00  0.00    +0.000 A 
ATOM     10  C   UNL     1       3.801   4.507  17.927  0.00  0.00    +0.000 A 
BRANCH  10  11
ATOM     11  N   UNL     1       2.980   3.879  18.866  0.00  0.00    +0.000 N 
ATOM     12  C   UNL     1       1.605   3.485  18.495  0.00  0.00    +0.000 C 
ATOM     13  C   UNL     1       0.762   3.481  19.781  0.00  0.00    +0.000 C 
ATOM     14  O   UNL     1       1.307   2.588  20.770  0.00  0.00    +0.000 OA
ATOM     15  C   UNL     1       2.673   2.930  21.077  0.00  0.00    +0.000 C 
ATOM     16  C   UNL     1       3.560   2.908  19.818  0.00  0.00    +0.000 C 
ENDBRANCH  10  11
ENDBRANCH   3   5
BRANCH   2  17
ATOM     17  C   UNL     1       1.742   8.548  19.415  0.00  0.00    +0.000 C 
ATOM     18  C   UNL     1       1.108   9.717  19.211  0.00  0.00    +0.000 C 
BRANCH  18  19
ATOM     19  C   UNL     1       0.153  10.269  20.183  0.00  0.00    +0.000 A 
ATOM     20  C   UNL     1      -0.716  11.323  19.877  0.00  0.00    +0.000 A 
ATOM     21  C   UNL     1      -1.474  11.935  20.883  0.00  0.00    +0.000 A 
ATOM     22  C   UNL     1      -1.392  11.471  22.191  0.00  0.00    +0.000 A 
ATOM     23 CL   UNL     1      -2.240  12.283  23.446  0.00  0.00    +0.000 Cl
ATOM     24  C   UNL     1      -0.596  10.362  22.496  0.00  0.00    +0.000 A 
ATOM     25  C   UNL     1       0.162   9.757  21.489  0.00  0.00    +0.000 A 
ENDBRANCH  18  19
ENDBRANCH   2  17
TORSDOF 4
ENDMDL
MODEL 6
REMARK VINA RESULT:      -7.8      5.539      7.471
REMARK  Name = 
REMARK  4 active torsions:
REMARK  status: ('A' for Active; 'I' for Inactive)
REMARK    1  A    between atoms: C_2  and  C_3
REMARK    2  A    between atoms: C_4  and  C_5
REMARK    3  A    between atoms: N_12  and  C_13
REMARK    4  A    between atoms: C_18  and  N_19
REMARK                            x       y       z     vdW  Elec       q    Type
REMARK                         _______ _______ _______ _____ _____    ______ ____
ROOT
ATOM      1  O   UNL     1       1.899   8.503  17.584  0.00  0.00    +0.000 OA
ATOM      2  C   UNL     1       2.072   8.044  18.709  0.00  0.00    +0.000 C 
ATOM      3  N   UNL     1       2.896   6.990  19.042  0.00  0.00    +0.000 N 
ATOM      4  H   UNL     1       3.231   6.899  19.992  0.00  0.00    +0.000 HD
ENDROOT
BRANCH   3   5
ATOM      5  C   UNL     1       3.646   6.265  18.086  0.00  0.00    +0.000 A 
ATOM      6  C   UNL     1       4.386   6.973  17.128  0.00  0.00    +0.000 A 
ATOM      7  C   UNL     1       5.051   6.297  16.109  0.00  0.00    +0.000 A 
ATOM      8  C   UNL     1       5.024   4.910  16.076  0.00  0.00    +0.000 A 
ATOM      9  C   UNL     1       4.286   4.200  17.030  0.00  0.00    +0.000 A 
ATOM     10  C   UNL     1       3.544   4.851  18.033  0.00  0.00    +0.000 A 
BRANCH  10  11
ATOM     11  N   UNL     1       2.707   4.144  18.898  0.00  0.00    +0.000 N 
ATOM     12  C   UNL     1       1.939   2.985  18.397  0.00  0.00    +0.000 C 
ATOM     13  C   UNL     1       0.679   2.853  19.269  0.00  0.00    +0.000 C 
ATOM     14  O   UNL     1       1.011   2.690  20.660  0.00  0.00    +0.000 OA
ATOM     15  C   UNL     1       1.822   3.786  21.128  0.00  0.00    +0.000 C 
ATOM     16  C   UNL     1       3.115   3.928  20.303  0.00  0.00    +0.000 C 
ENDBRANCH  10  11
ENDBRANCH   3   5
BRANCH   2  17
ATOM     17  C   UNL     1       1.400   8.641  19.897  0.00  0.00    +0.000 C 
ATOM     18  C   UNL     1       1.117   9.955  19.933  0.00  0.00    +0.000 C 
BRANCH  18  19
ATOM     19  C   UNL     1       0.218  10.535  20.941  0.00  0.00    +0.000 A 
ATOM     20  C   UNL     1       0.076  10.001  22.227  0.00  0.00    +0.000 A 
ATOM     21  C   UNL     1      -0.923  10.473  23.087  0.00  0.00    +0.000 A 
ATOM     22  C   UNL     1      -1.758  11.507  22.677  0.00  0.00    +0.000 A 
ATOM     23 CL   UNL     1      -3.050  12.020  23.687  0.00  0.00    +0.000 Cl
ATOM     24  C   UNL     1      -1.570  12.111  21.430  0.00  0.00    +0.000 A 
ATOM     25  C   UNL     1      -0.574  11.633  20.573  0.00  0.00    +0.000 A 
ENDBRANCH  18  19
ENDBRANCH   2  17
TORSDOF 4
ENDMDL
MODEL 7
REMARK VINA RESULT:      -7.8      4.421      6.347
REMARK  Name = 
REMARK  4 active torsions:
REMARK  status: ('A' for Active; 'I' for Inactive)
REMARK    1  A    between atoms: C_2  and  C_3
REMARK    2  A    between atoms: C_4  and  C_5
REMARK    3  A    between atoms: N_12  and  C_13
REMARK    4  A    between atoms: C_18  and  N_19
REMARK                            x       y       z     vdW  Elec       q    Type
REMARK                         _______ _______ _______ _____ _____    ______ ____
ROOT
ATOM      1  O   UNL     1       2.303   6.558  19.961  0.00  0.00    +0.000 OA
ATOM      2  C   UNL     1       2.436   6.889  18.788  0.00  0.00    +0.000 C 
ATOM      3  N   UNL     1       2.585   6.038  17.713  0.00  0.00    +0.000 N 
ATOM      4  H   UNL     1       2.354   6.364  16.783  0.00  0.00    +0.000 HD
ENDROOT
BRANCH   3   5
ATOM      5  C   UNL     1       2.633   4.631  17.843  0.00  0.00    +0.000 A 
ATOM      6  C   UNL     1       1.470   3.945  18.221  0.00  0.00    +0.000 A 
ATOM      7  C   UNL     1       1.503   2.575  18.462  0.00  0.00    +0.000 A 
ATOM      8  C   UNL     1       2.687   1.876  18.273  0.00  0.00    +0.000 A 
ATOM      9  C   UNL     1       3.850   2.556  17.895  0.00  0.00    +0.000 A 
ATOM     10  C   UNL     1       3.872   3.950  17.712  0.00  0.00    +0.000 A 
BRANCH  10  11
ATOM     11  N   UNL     1       5.062   4.637  17.465  0.00  0.00    +0.000 N 
ATOM     12  C   UNL     1       5.241   5.365  16.192  0.00  0.00    +0.000 C 
ATOM     13  C   UNL     1       6.750   5.414  15.895  0.00  0.00    +0.000 C 
ATOM     14  O   UNL     1       7.479   6.050  16.961  0.00  0.00    +0.000 OA
ATOM     15  C   UNL     1       7.245   5.381  18.216  0.00  0.00    +0.000 C 
ATOM     16  C   UNL     1       5.745   5.345  18.569  0.00  0.00    +0.000 C 
ENDBRANCH  10  11
ENDBRANCH   3   5
BRANCH   2  17
ATOM     17  C   UNL     1       2.409   8.321  18.382  0.00  0.00    +0.000 C 
ATOM     18  C   UNL     1       1.297   9.058  18.552  0.00  0.00    +0.000 C 
BRANCH  18  19
ATOM     19  C   UNL     1       1.302  10.524  18.433  0.00  0.00    +0.000 A 
ATOM     20  C   UNL     1       2.436  11.249  18.046  0.00  0.00    +0.000 A 
ATOM     21  C   UNL     1       2.447  12.646  18.124  0.00  0.00    +0.000 A 
ATOM     22  C   UNL     1       1.312  13.325  18.555  0.00  0.00    +0.000 A 
ATOM     23 CL   UNL     1       1.354  15.032  18.751  0.00  0.00    +0.000 Cl
ATOM     24  C   UNL     1       0.144  12.620  18.860  0.00  0.00    +0.000 A 
ATOM     25  C   UNL     1       0.138  11.224  18.784  0.00  0.00    +0.000 A 
ENDBRANCH  18  19
ENDBRANCH   2  17
TORSDOF 4
ENDMDL
MODEL 8
REMARK VINA RESULT:      -7.7      0.773      1.258
REMARK  Name = 
REMARK  4 active torsions:
REMARK  status: ('A' for Active; 'I' for Inactive)
REMARK    1  A    between atoms: C_2  and  C_3
REMARK    2  A    between atoms: C_4  and  C_5
REMARK    3  A    between atoms: N_12  and  C_13
REMARK    4  A    between atoms: C_18  and  N_19
REMARK                            x       y       z     vdW  Elec       q    Type
REMARK                         _______ _______ _______ _____ _____    ______ ____
ROOT
ATOM      1  O   UNL     1       7.978   6.655  18.521  0.00  0.00    +0.000 OA
ATOM      2  C   UNL     1       7.480   7.482  17.765  0.00  0.00    +0.000 C 
ATOM      3  N   UNL     1       6.625   7.216  16.715  0.00  0.00    +0.000 N 
ATOM      4  H   UNL     1       6.015   7.947  16.372  0.00  0.00    +0.000 HD
ENDROOT
BRANCH   3   5
ATOM      5  C   UNL     1       6.230   5.907  16.354  0.00  0.00    +0.000 A 
ATOM      6  C   UNL     1       7.050   5.166  15.491  0.00  0.00    +0.000 A 
ATOM      7  C   UNL     1       6.644   3.918  15.029  0.00  0.00    +0.000 A 
ATOM      8  C   UNL     1       5.443   3.382  15.471  0.00  0.00    +0.000 A 
ATOM      9  C   UNL     1       4.621   4.118  16.332  0.00  0.00    +0.000 A 
ATOM     10  C   UNL     1       4.965   5.412  16.763  0.00  0.00    +0.000 A 
BRANCH  10  11
ATOM     11  N   UNL     1       4.082   6.191  17.514  0.00  0.00    +0.000 N 
ATOM     12  C   UNL     1       3.415   7.354  16.893  0.00  0.00    +0.000 C 
ATOM     13  C   UNL     1       3.100   8.360  18.013  0.00  0.00    +0.000 C 
ATOM     14  O   UNL     1       2.272   7.774  19.034  0.00  0.00    +0.000 OA
ATOM     15  C   UNL     1       2.893   6.597  19.589  0.00  0.00    +0.000 C 
ATOM     16  C   UNL     1       3.190   5.547  18.501  0.00  0.00    +0.000 C 
ENDBRANCH  10  11
ENDBRANCH   3   5
BRANCH   2  17
ATOM     17  C   UNL     1       7.732   8.939  17.940  0.00  0.00    +0.000 C 
ATOM     18  C   UNL     1       8.822   9.368  18.601  0.00  0.00    +0.000 C 
BRANCH  18  19
ATOM     19  C   UNL     1       9.260  10.771  18.561  0.00  0.00    +0.000 A 
ATOM     20  C   UNL     1       8.611  11.747  17.796  0.00  0.00    +0.000 A 
ATOM     21  C   UNL     1       9.171  13.021  17.644  0.00  0.00    +0.000 A 
ATOM     22  C   UNL     1      10.363  13.335  18.288  0.00  0.00    +0.000 A 
ATOM     23 CL   UNL     1      11.107  14.861  18.023  0.00  0.00    +0.000 Cl
ATOM     24  C   UNL     1      10.977  12.400  19.127  0.00  0.00    +0.000 A 
ATOM     25  C   UNL     1      10.416  11.127  19.272  0.00  0.00    +0.000 A 
ENDBRANCH  18  19
ENDBRANCH   2  17
TORSDOF 4
ENDMDL
MODEL 9
REMARK VINA RESULT:      -7.6      4.263      6.605
REMARK  Name = 
REMARK  4 active torsions:
REMARK  status: ('A' for Active; 'I' for Inactive)
REMARK    1  A    between atoms: C_2  and  C_3
REMARK    2  A    between atoms: C_4  and  C_5
REMARK    3  A    between atoms: N_12  and  C_13
REMARK    4  A    between atoms: C_18  and  N_19
REMARK                            x       y       z     vdW  Elec       q    Type
REMARK                         _______ _______ _______ _____ _____    ______ ____
ROOT
ATOM      1  O   UNL     1       2.086   6.133  17.565  0.00  0.00    +0.000 OA
ATOM      2  C   UNL     1       2.466   6.836  18.496  0.00  0.00    +0.000 C 
ATOM      3  N   UNL     1       2.941   6.393  19.711  0.00  0.00    +0.000 N 
ATOM      4  H   UNL     1       3.530   6.999  20.269  0.00  0.00    +0.000 HD
ENDROOT
BRANCH   3   5
ATOM      5  C   UNL     1       3.023   5.023  20.056  0.00  0.00    +0.000 A 
ATOM      6  C   UNL     1       2.172   4.524  21.052  0.00  0.00    +0.000 A 
ATOM      7  C   UNL     1       2.295   3.209  21.492  0.00  0.00    +0.000 A 
ATOM      8  C   UNL     1       3.231   2.374  20.900  0.00  0.00    +0.000 A 
ATOM      9  C   UNL     1       4.082   2.868  19.905  0.00  0.00    +0.000 A 
ATOM     10  C   UNL     1       4.036   4.210  19.484  0.00  0.00    +0.000 A 
BRANCH  10  11
ATOM     11  N   UNL     1       4.973   4.728  18.589  0.00  0.00    +0.000 N 
ATOM     12  C   UNL     1       6.314   5.120  19.070  0.00  0.00    +0.000 C 
ATOM     13  C   UNL     1       6.838   6.221  18.133  0.00  0.00    +0.000 C 
ATOM     14  O   UNL     1       6.891   5.773  16.766  0.00  0.00    +0.000 OA
ATOM     15  C   UNL     1       5.596   5.323  16.321  0.00  0.00    +0.000 C 
ATOM     16  C   UNL     1       5.051   4.191  17.213  0.00  0.00    +0.000 C 
ENDBRANCH  10  11
ENDBRANCH   3   5
BRANCH   2  17
ATOM     17  C   UNL     1       2.489   8.321  18.381  0.00  0.00    +0.000 C 
ATOM     18  C   UNL     1       1.367   9.000  18.083  0.00  0.00    +0.000 C 
BRANCH  18  19
ATOM     19  C   UNL     1       1.272  10.460  18.232  0.00  0.00    +0.000 A 
ATOM     20  C   UNL     1       2.351  11.319  17.992  0.00  0.00    +0.000 A 
ATOM     21  C   UNL     1       2.268  12.676  18.323  0.00  0.00    +0.000 A 
ATOM     22  C   UNL     1       1.091  13.186  18.862  0.00  0.00    +0.000 A 
ATOM     23 CL   UNL     1       1.018  14.828  19.365  0.00  0.00    +0.000 Cl
ATOM     24  C   UNL     1      -0.024  12.360  19.025  0.00  0.00    +0.000 A 
ATOM     25  C   UNL     1       0.065  11.004  18.697  0.00  0.00    +0.000 A 
ENDBRANCH  18  19
ENDBRANCH   2  17
TORSDOF 4
ENDMDL
