MODEL 1
REMARK VINA RESULT:      -7.2      0.000      0.000
REMARK  Name = 
REMARK  6 active torsions:
REMARK  status: ('A' for Active; 'I' for Inactive)
REMARK    1  A    between atoms: C_1  and  C_2
REMARK    2  A    between atoms: C_4  and  C_5
REMARK    3  A    between atoms: C_7  and  N_8
REMARK    4  A    between atoms: C_9  and  S_10
REMARK    5  A    between atoms: N_11  and  C_12
REMARK    6  A    between atoms: C_18  and  C_19
REMARK                            x       y       z     vdW  Elec       q    Type
REMARK                         _______ _______ _______ _____ _____    ______ ____
ROOT
ATOM      1  N   UNL     1       3.566   4.394  19.512  0.00  0.00    +0.000 N 
ATOM      2  C   UNL     1       2.612   5.368  19.720  0.00  0.00    +0.000 C 
ATOM      3  N   UNL     1       2.851   6.645  19.699  0.00  0.00    +0.000 NA
ATOM      4  H   UNL     1       3.267   3.443  19.672  0.00  0.00    +0.000 HD
ENDROOT
BRANCH   1  11
ATOM      5  C   UNL     1       5.829   3.815  15.162  0.00  0.00    +0.000 C 
ATOM      6  C   UNL     1       5.876   4.267  16.591  0.00  0.00    +0.000 A 
ATOM      7  C   UNL     1       6.979   4.944  17.114  0.00  0.00    +0.000 A 
ATOM      8  C   UNL     1       6.976   5.393  18.441  0.00  0.00    +0.000 A 
ATOM      9  C   UNL     1       8.162   6.119  19.005  0.00  0.00    +0.000 C 
ATOM     10  C   UNL     1       5.840   5.176  19.234  0.00  0.00    +0.000 A 
ATOM     11  C   UNL     1       4.717   4.515  18.721  0.00  0.00    +0.000 A 
ATOM     12  C   UNL     1       4.761   4.045  17.406  0.00  0.00    +0.000 A 
ENDBRANCH   1  11
BRANCH   3  13
ATOM     13  C   UNL     1       1.931   7.676  19.974  0.00  0.00    +0.000 A 
ATOM     14  C   UNL     1       1.375   7.851  21.246  0.00  0.00    +0.000 A 
ATOM     15  C   UNL     1       0.465   8.865  21.521  0.00  0.00    +0.000 A 
ATOM     16  C   UNL     1       0.178   9.806  20.546  0.00  0.00    +0.000 A 
ATOM     17 BR   UNL     1      -1.011  11.222  20.937  0.00  0.00    +0.000 Br
ATOM     18  C   UNL     1       0.788   9.726  19.296  0.00  0.00    +0.000 A 
ATOM     19  C   UNL     1       1.658   8.661  18.997  0.00  0.00    +0.000 A 
ATOM     20  C   UNL     1       2.314   8.624  17.642  0.00  0.00    +0.000 C 
ENDBRANCH   3  13
BRANCH   2  21
ATOM     21  S   UNL     1       1.059   4.611  20.058  0.00  0.00    +0.000 S 
ATOM     22  H   UNL     1       0.882   5.201  21.245  0.00  0.00    +0.000 HD
ENDBRANCH   2  21
TORSDOF 3
ENDMDL
MODEL 2
REMARK VINA RESULT:      -7.0      0.170      1.934
REMARK  Name = 
REMARK  6 active torsions:
REMARK  status: ('A' for Active; 'I' for Inactive)
REMARK    1  A    between atoms: C_1  and  C_2
REMARK    2  A    between atoms: C_4  and  C_5
REMARK    3  A    between atoms: C_7  and  N_8
REMARK    4  A    between atoms: C_9  and  S_10
REMARK    5  A    between atoms: N_11  and  C_12
REMARK    6  A    between atoms: C_18  and  C_19
REMARK                            x       y       z     vdW  Elec       q    Type
REMARK                         _______ _______ _______ _____ _____    ______ ____
ROOT
ATOM      1  N   UNL     1       3.532   4.541  19.495  0.00  0.00    +0.000 N 
ATOM      2  C   UNL     1       2.568   5.503  19.717  0.00  0.00    +0.000 C 
ATOM      3  N   UNL     1       2.799   6.781  19.740  0.00  0.00    +0.000 NA
ATOM      4  H   UNL     1       3.237   3.584  19.620  0.00  0.00    +0.000 HD
ENDROOT
BRANCH   1  11
ATOM      5  C   UNL     1       8.295   5.804  19.178  0.00  0.00    +0.000 C 
ATOM      6  C   UNL     1       7.050   5.288  18.521  0.00  0.00    +0.000 A 
ATOM      7  C   UNL     1       7.053   4.810  17.209  0.00  0.00    +0.000 A 
ATOM      8  C   UNL     1       5.885   4.293  16.636  0.00  0.00    +0.000 A 
ATOM      9  C   UNL     1       5.886   3.782  15.225  0.00  0.00    +0.000 C 
ATOM     10  C   UNL     1       4.712   4.237  17.404  0.00  0.00    +0.000 A 
ATOM     11  C   UNL     1       4.695   4.694  18.728  0.00  0.00    +0.000 A 
ATOM     12  C   UNL     1       5.866   5.239  19.262  0.00  0.00    +0.000 A 
ENDBRANCH   1  11
BRANCH   3  13
ATOM     13  C   UNL     1       1.868   7.797  20.031  0.00  0.00    +0.000 A 
ATOM     14  C   UNL     1       1.342   7.973  21.316  0.00  0.00    +0.000 A 
ATOM     15  C   UNL     1       0.421   8.973  21.607  0.00  0.00    +0.000 A 
ATOM     16  C   UNL     1       0.091   9.900  20.633  0.00  0.00    +0.000 A 
ATOM     17 BR   UNL     1      -1.112  11.297  21.044  0.00  0.00    +0.000 Br
ATOM     18  C   UNL     1       0.670   9.821  19.368  0.00  0.00    +0.000 A 
ATOM     19  C   UNL     1       1.551   8.770  19.054  0.00  0.00    +0.000 A 
ATOM     20  C   UNL     1       2.172   8.733  17.682  0.00  0.00    +0.000 C 
ENDBRANCH   3  13
BRANCH   2  21
ATOM     21  S   UNL     1       1.014   4.726  20.005  0.00  0.00    +0.000 S 
ATOM     22  H   UNL     1       0.743   5.392  21.132  0.00  0.00    +0.000 HD
ENDBRANCH   2  21
TORSDOF 3
ENDMDL
MODEL 3
REMARK VINA RESULT:      -6.7      1.107      1.261
REMARK  Name = 
REMARK  6 active torsions:
REMARK  status: ('A' for Active; 'I' for Inactive)
REMARK    1  A    between atoms: C_1  and  C_2
REMARK    2  A    between atoms: C_4  and  C_5
REMARK    3  A    between atoms: C_7  and  N_8
REMARK    4  A    between atoms: C_9  and  S_10
REMARK    5  A    between atoms: N_11  and  C_12
REMARK    6  A    between atoms: C_18  and  C_19
REMARK                            x       y       z     vdW  Elec       q    Type
REMARK                         _______ _______ _______ _____ _____    ______ ____
ROOT
ATOM      1  N   UNL     1       3.680   4.264  18.012  0.00  0.00    +0.000 N 
ATOM      2  C   UNL     1       2.773   5.139  18.576  0.00  0.00    +0.000 C 
ATOM      3  N   UNL     1       3.054   6.354  18.937  0.00  0.00    +0.000 NA
ATOM      4  H   UNL     1       3.358   3.316  17.888  0.00  0.00    +0.000 HD
ENDROOT
BRANCH   1  11
ATOM      5  C   UNL     1       6.181   3.873  13.774  0.00  0.00    +0.000 C 
ATOM      6  C   UNL     1       6.049   4.466  15.144  0.00  0.00    +0.000 A 
ATOM      7  C   UNL     1       6.909   5.467  15.600  0.00  0.00    +0.000 A 
ATOM      8  C   UNL     1       6.735   6.034  16.869  0.00  0.00    +0.000 A 
ATOM      9  C   UNL     1       7.660   7.109  17.360  0.00  0.00    +0.000 C 
ATOM     10  C   UNL     1       5.669   5.600  17.671  0.00  0.00    +0.000 A 
ATOM     11  C   UNL     1       4.785   4.610  17.223  0.00  0.00    +0.000 A 
ATOM     12  C   UNL     1       5.005   4.037  15.968  0.00  0.00    +0.000 A 
ENDBRANCH   1  11
BRANCH   3  13
ATOM     13  C   UNL     1       2.188   7.261  19.580  0.00  0.00    +0.000 A 
ATOM     14  C   UNL     1       1.780   7.080  20.906  0.00  0.00    +0.000 A 
ATOM     15  C   UNL     1       0.924   7.971  21.543  0.00  0.00    +0.000 A 
ATOM     16  C   UNL     1       0.546   9.135  20.895  0.00  0.00    +0.000 A 
ATOM     17 BR   UNL     1      -0.568  10.378  21.782  0.00  0.00    +0.000 Br
ATOM     18  C   UNL     1       1.012   9.402  19.608  0.00  0.00    +0.000 A 
ATOM     19  C   UNL     1       1.825   8.469  18.939  0.00  0.00    +0.000 A 
ATOM     20  C   UNL     1       2.325   8.806  17.560  0.00  0.00    +0.000 C 
ENDBRANCH   3  13
BRANCH   2  21
ATOM     21  S   UNL     1       1.217   4.336  18.764  0.00  0.00    +0.000 S 
ATOM     22  H   UNL     1       0.589   5.049  17.824  0.00  0.00    +0.000 HD
ENDBRANCH   2  21
TORSDOF 3
ENDMDL
MODEL 4
REMARK VINA RESULT:      -6.5      1.031      2.176
REMARK  Name = 
REMARK  6 active torsions:
REMARK  status: ('A' for Active; 'I' for Inactive)
REMARK    1  A    between atoms: C_1  and  C_2
REMARK    2  A    between atoms: C_4  and  C_5
REMARK    3  A    between atoms: C_7  and  N_8
REMARK    4  A    between atoms: C_9  and  S_10
REMARK    5  A    between atoms: N_11  and  C_12
REMARK    6  A    between atoms: C_18  and  C_19
REMARK                            x       y       z     vdW  Elec       q    Type
REMARK                         _______ _______ _______ _____ _____    ______ ____
ROOT
ATOM      1  N   UNL     1       3.564   4.631  18.269  0.00  0.00    +0.000 N 
ATOM      2  C   UNL     1       2.655   5.511  18.819  0.00  0.00    +0.000 C 
ATOM      3  N   UNL     1       2.920   6.746  19.122  0.00  0.00    +0.000 NA
ATOM      4  H   UNL     1       3.258   3.673  18.193  0.00  0.00    +0.000 HD
ENDROOT
BRANCH   1  11
ATOM      5  C   UNL     1       7.741   7.151  17.509  0.00  0.00    +0.000 C 
ATOM      6  C   UNL     1       6.718   6.172  17.019  0.00  0.00    +0.000 A 
ATOM      7  C   UNL     1       6.884   5.466  15.825  0.00  0.00    +0.000 A 
ATOM      8  C   UNL     1       5.933   4.525  15.414  0.00  0.00    +0.000 A 
ATOM      9  C   UNL     1       6.110   3.768  14.131  0.00  0.00    +0.000 C 
ATOM     10  C   UNL     1       4.817   4.280  16.228  0.00  0.00    +0.000 A 
ATOM     11  C   UNL     1       4.642   4.964  17.438  0.00  0.00    +0.000 A 
ATOM     12  C   UNL     1       5.588   5.924  17.805  0.00  0.00    +0.000 A 
ENDBRANCH   1  11
BRANCH   3  13
ATOM     13  C   UNL     1       2.053   7.663  19.748  0.00  0.00    +0.000 A 
ATOM     14  C   UNL     1       1.709   7.550  21.100  0.00  0.00    +0.000 A 
ATOM     15  C   UNL     1       0.852   8.451  21.721  0.00  0.00    +0.000 A 
ATOM     16  C   UNL     1       0.406   9.561  21.023  0.00  0.00    +0.000 A 
ATOM     17 BR   UNL     1      -0.709  10.820  21.884  0.00  0.00    +0.000 Br
ATOM     18  C   UNL     1       0.807   9.764  19.703  0.00  0.00    +0.000 A 
ATOM     19  C   UNL     1       1.621   8.818  19.055  0.00  0.00    +0.000 A 
ATOM     20  C   UNL     1       2.049   9.086  17.636  0.00  0.00    +0.000 C 
ENDBRANCH   3  13
BRANCH   2  21
ATOM     21  S   UNL     1       1.120   4.688  19.081  0.00  0.00    +0.000 S 
ATOM     22  H   UNL     1       0.437   5.396  18.176  0.00  0.00    +0.000 HD
ENDBRANCH   2  21
TORSDOF 3
ENDMDL
MODEL 5
REMARK VINA RESULT:      -6.4      4.091      6.403
REMARK  Name = 
REMARK  6 active torsions:
REMARK  status: ('A' for Active; 'I' for Inactive)
REMARK    1  A    between atoms: C_1  and  C_2
REMARK    2  A    between atoms: C_4  and  C_5
REMARK    3  A    between atoms: C_7  and  N_8
REMARK    4  A    between atoms: C_9  and  S_10
REMARK    5  A    between atoms: N_11  and  C_12
REMARK    6  A    between atoms: C_18  and  C_19
REMARK                            x       y       z     vdW  Elec       q    Type
REMARK                         _______ _______ _______ _____ _____    ______ ____
ROOT
ATOM      1  N   UNL     1       6.447   4.312  14.006  0.00  0.00    +0.000 N 
ATOM      2  C   UNL     1       5.939   4.289  15.288  0.00  0.00    +0.000 C 
ATOM      3  N   UNL     1       4.685   4.105  15.577  0.00  0.00    +0.000 NA
ATOM      4  H   UNL     1       7.416   4.580  13.922  0.00  0.00    +0.000 HD
ENDROOT
BRANCH   1  11
ATOM      5  C   UNL     1       6.345   0.255  11.194  0.00  0.00    +0.000 C 
ATOM      6  C   UNL     1       5.837   1.634  11.488  0.00  0.00    +0.000 A 
ATOM      7  C   UNL     1       4.765   2.190  10.788  0.00  0.00    +0.000 A 
ATOM      8  C   UNL     1       4.282   3.463  11.114  0.00  0.00    +0.000 A 
ATOM      9  C   UNL     1       3.131   4.062  10.360  0.00  0.00    +0.000 C 
ATOM     10  C   UNL     1       4.874   4.168  12.172  0.00  0.00    +0.000 A 
ATOM     11  C   UNL     1       5.938   3.620  12.899  0.00  0.00    +0.000 A 
ATOM     12  C   UNL     1       6.423   2.363  12.528  0.00  0.00    +0.000 A 
ENDBRANCH   1  11
BRANCH   3  13
ATOM     13  C   UNL     1       4.105   4.142  16.860  0.00  0.00    +0.000 A 
ATOM     14  C   UNL     1       3.873   2.978  17.600  0.00  0.00    +0.000 A 
ATOM     15  C   UNL     1       3.298   3.010  18.865  0.00  0.00    +0.000 A 
ATOM     16  C   UNL     1       3.047   4.230  19.470  0.00  0.00    +0.000 A 
ATOM     17 BR   UNL     1       2.324   4.276  21.215  0.00  0.00    +0.000 Br
ATOM     18  C   UNL     1       3.358   5.416  18.806  0.00  0.00    +0.000 A 
ATOM     19  C   UNL     1       3.877   5.383  17.499  0.00  0.00    +0.000 A 
ATOM     20  C   UNL     1       4.220   6.686  16.827  0.00  0.00    +0.000 C 
ENDBRANCH   3  13
BRANCH   2  21
ATOM     21  S   UNL     1       7.233   4.591  16.443  0.00  0.00    +0.000 S 
ATOM     22  H   UNL     1       6.562   5.503  17.155  0.00  0.00    +0.000 HD
ENDBRANCH   2  21
TORSDOF 3
ENDMDL
MODEL 6
REMARK VINA RESULT:      -6.4      2.970      4.451
REMARK  Name = 
REMARK  6 active torsions:
REMARK  status: ('A' for Active; 'I' for Inactive)
REMARK    1  A    between atoms: C_1  and  C_2
REMARK    2  A    between atoms: C_4  and  C_5
REMARK    3  A    between atoms: C_7  and  N_8
REMARK    4  A    between atoms: C_9  and  S_10
REMARK    5  A    between atoms: N_11  and  C_12
REMARK    6  A    between atoms: C_18  and  C_19
REMARK                            x       y       z     vdW  Elec       q    Type
REMARK                         _______ _______ _______ _____ _____    ______ ____
ROOT
ATOM      1  N   UNL     1       1.437   7.582  21.346  0.00  0.00    +0.000 N 
ATOM      2  C   UNL     1       0.963   8.860  21.131  0.00  0.00    +0.000 C 
ATOM      3  N   UNL     1       1.221   9.570  20.074  0.00  0.00    +0.000 NA
ATOM      4  H   UNL     1       1.256   7.193  22.259  0.00  0.00    +0.000 HD
ENDROOT
BRANCH   1  11
ATOM      5  C   UNL     1       3.989   6.276  17.326  0.00  0.00    +0.000 C 
ATOM      6  C   UNL     1       2.987   5.932  18.387  0.00  0.00    +0.000 A 
ATOM      7  C   UNL     1       2.460   4.645  18.514  0.00  0.00    +0.000 A 
ATOM      8  C   UNL     1       1.559   4.342  19.542  0.00  0.00    +0.000 A 
ATOM      9  C   UNL     1       0.991   2.959  19.678  0.00  0.00    +0.000 C 
ATOM     10  C   UNL     1       1.207   5.342  20.461  0.00  0.00    +0.000 A 
ATOM     11  C   UNL     1       1.740   6.633  20.360  0.00  0.00    +0.000 A 
ATOM     12  C   UNL     1       2.608   6.918  19.303  0.00  0.00    +0.000 A 
ENDBRANCH   1  11
BRANCH   3  13
ATOM     13  C   UNL     1       0.822  10.900  19.838  0.00  0.00    +0.000 A 
ATOM     14  C   UNL     1       1.464  11.984  20.447  0.00  0.00    +0.000 A 
ATOM     15  C   UNL     1       1.073  13.298  20.219  0.00  0.00    +0.000 A 
ATOM     16  C   UNL     1       0.093  13.564  19.276  0.00  0.00    +0.000 A 
ATOM     17 BR   UNL     1      -0.398  15.353  18.919  0.00  0.00    +0.000 Br
ATOM     18  C   UNL     1      -0.502  12.518  18.574  0.00  0.00    +0.000 A 
ATOM     19  C   UNL     1      -0.152  11.184  18.853  0.00  0.00    +0.000 A 
ATOM     20  C   UNL     1      -0.803  10.085  18.055  0.00  0.00    +0.000 C 
ENDBRANCH   3  13
BRANCH   2  21
ATOM     21  S   UNL     1       0.009   9.377  22.518  0.00  0.00    +0.000 S 
ATOM     22  H   UNL     1      -0.566   8.189  22.730  0.00  0.00    +0.000 HD
ENDBRANCH   2  21
TORSDOF 3
ENDMDL
MODEL 7
REMARK VINA RESULT:      -6.3      4.673      6.687
REMARK  Name = 
REMARK  6 active torsions:
REMARK  status: ('A' for Active; 'I' for Inactive)
REMARK    1  A    between atoms: C_1  and  C_2
REMARK    2  A    between atoms: C_4  and  C_5
REMARK    3  A    between atoms: C_7  and  N_8
REMARK    4  A    between atoms: C_9  and  S_10
REMARK    5  A    between atoms: N_11  and  C_12
REMARK    6  A    between atoms: C_18  and  C_19
REMARK                            x       y       z     vdW  Elec       q    Type
REMARK                         _______ _______ _______ _____ _____    ______ ____
ROOT
ATOM      1  N   UNL     1       0.748  11.238  18.209  0.00  0.00    +0.000 N 
ATOM      2  C   UNL     1      -0.552  11.696  18.261  0.00  0.00    +0.000 C 
ATOM      3  N   UNL     1      -1.602  10.936  18.167  0.00  0.00    +0.000 NA
ATOM      4  H   UNL     1       1.464  11.948  18.176  0.00  0.00    +0.000 HD
ENDROOT
BRANCH   1  11
ATOM      5  C   UNL     1       3.544   7.246  17.420  0.00  0.00    +0.000 C 
ATOM      6  C   UNL     1       2.575   7.991  18.287  0.00  0.00    +0.000 A 
ATOM      7  C   UNL     1       2.227   7.539  19.561  0.00  0.00    +0.000 A 
ATOM      8  C   UNL     1       1.353   8.279  20.366  0.00  0.00    +0.000 A 
ATOM      9  C   UNL     1       0.977   7.793  21.735  0.00  0.00    +0.000 C 
ATOM     10  C   UNL     1       0.847   9.497  19.888  0.00  0.00    +0.000 A 
ATOM     11  C   UNL     1       1.200   9.976  18.620  0.00  0.00    +0.000 A 
ATOM     12  C   UNL     1       2.045   9.199  17.823  0.00  0.00    +0.000 A 
ENDBRANCH   1  11
BRANCH   3  13
ATOM     13  C   UNL     1      -2.945  11.360  18.143  0.00  0.00    +0.000 A 
ATOM     14  C   UNL     1      -3.556  11.945  19.258  0.00  0.00    +0.000 A 
ATOM     15  C   UNL     1      -4.882  12.362  19.239  0.00  0.00    +0.000 A 
ATOM     16  C   UNL     1      -5.598  12.307  18.055  0.00  0.00    +0.000 A 
ATOM     17 BR   UNL     1      -7.381  12.931  18.012  0.00  0.00    +0.000 Br
ATOM     18  C   UNL     1      -4.994  11.823  16.896  0.00  0.00    +0.000 A 
ATOM     19  C   UNL     1      -3.673  11.340  16.930  0.00  0.00    +0.000 A 
ATOM     20  C   UNL     1      -3.051  10.847  15.651  0.00  0.00    +0.000 C 
ENDBRANCH   3  13
BRANCH   2  21
ATOM     21  S   UNL     1      -0.554  13.449  18.422  0.00  0.00    +0.000 S 
ATOM     22  H   UNL     1      -1.832  13.543  18.805  0.00  0.00    +0.000 HD
ENDBRANCH   2  21
TORSDOF 3
ENDMDL
MODEL 8
REMARK VINA RESULT:      -6.2      3.096      4.915
REMARK  Name = 
REMARK  6 active torsions:
REMARK  status: ('A' for Active; 'I' for Inactive)
REMARK    1  A    between atoms: C_1  and  C_2
REMARK    2  A    between atoms: C_4  and  C_5
REMARK    3  A    between atoms: C_7  and  N_8
REMARK    4  A    between atoms: C_9  and  S_10
REMARK    5  A    between atoms: N_11  and  C_12
REMARK    6  A    between atoms: C_18  and  C_19
REMARK                            x       y       z     vdW  Elec       q    Type
REMARK                         _______ _______ _______ _____ _____    ______ ____
ROOT
ATOM      1  N   UNL     1       1.899   9.729  18.175  0.00  0.00    +0.000 N 
ATOM      2  C   UNL     1       1.158  10.486  19.059  0.00  0.00    +0.000 C 
ATOM      3  N   UNL     1       0.360   9.993  19.957  0.00  0.00    +0.000 NA
ATOM      4  H   UNL     1       2.385  10.242  17.455  0.00  0.00    +0.000 HD
ENDROOT
BRANCH   1  11
ATOM      5  C   UNL     1       1.791   5.511  20.739  0.00  0.00    +0.000 C 
ATOM      6  C   UNL     1       2.370   6.329  19.624  0.00  0.00    +0.000 A 
ATOM      7  C   UNL     1       3.278   5.791  18.710  0.00  0.00    +0.000 A 
ATOM      8  C   UNL     1       3.769   6.566  17.652  0.00  0.00    +0.000 A 
ATOM      9  C   UNL     1       4.746   5.990  16.670  0.00  0.00    +0.000 C 
ATOM     10  C   UNL     1       3.319   7.887  17.505  0.00  0.00    +0.000 A 
ATOM     11  C   UNL     1       2.394   8.438  18.402  0.00  0.00    +0.000 A 
ATOM     12  C   UNL     1       1.950   7.653  19.469  0.00  0.00    +0.000 A 
ENDBRANCH   1  11
BRANCH   3  13
ATOM     13  C   UNL     1      -0.469  10.720  20.834  0.00  0.00    +0.000 A 
ATOM     14  C   UNL     1      -1.424  11.628  20.365  0.00  0.00    +0.000 A 
ATOM     15  C   UNL     1      -2.243  12.349  21.226  0.00  0.00    +0.000 A 
ATOM     16  C   UNL     1      -2.202  12.087  22.585  0.00  0.00    +0.000 A 
ATOM     17 BR   UNL     1      -3.359  13.022  23.751  0.00  0.00    +0.000 Br
ATOM     18  C   UNL     1      -1.335  11.116  23.084  0.00  0.00    +0.000 A 
ATOM     19  C   UNL     1      -0.460  10.434  22.219  0.00  0.00    +0.000 A 
ATOM     20  C   UNL     1       0.445   9.377  22.796  0.00  0.00    +0.000 C 
ENDBRANCH   3  13
BRANCH   2  21
ATOM     21  S   UNL     1       1.429  12.197  18.742  0.00  0.00    +0.000 S 
ATOM     22  H   UNL     1       0.500  12.300  17.785  0.00  0.00    +0.000 HD
ENDBRANCH   2  21
TORSDOF 3
ENDMDL
MODEL 9
REMARK VINA RESULT:      -6.2      3.060      4.340
REMARK  Name = 
REMARK  6 active torsions:
REMARK  status: ('A' for Active; 'I' for Inactive)
REMARK    1  A    between atoms: C_1  and  C_2
REMARK    2  A    between atoms: C_4  and  C_5
REMARK    3  A    between atoms: C_7  and  N_8
REMARK    4  A    between atoms: C_9  and  S_10
REMARK    5  A    between atoms: N_11  and  C_12
REMARK    6  A    between atoms: C_18  and  C_19
REMARK                            x       y       z     vdW  Elec       q    Type
REMARK                         _______ _______ _______ _____ _____    ______ ____
ROOT
ATOM      1  N   UNL     1       1.379   7.605  21.425  0.00  0.00    +0.000 N 
ATOM      2  C   UNL     1       0.890   8.872  21.185  0.00  0.00    +0.000 C 
ATOM      3  N   UNL     1       1.218   9.603  20.163  0.00  0.00    +0.000 NA
ATOM      4  H   UNL     1       1.132   7.198  22.315  0.00  0.00    +0.000 HD
ENDROOT
BRANCH   1  11
ATOM      5  C   UNL     1       1.032   3.111  19.410  0.00  0.00    +0.000 C 
ATOM      6  C   UNL     1       1.644   4.479  19.414  0.00  0.00    +0.000 A 
ATOM      7  C   UNL     1       2.495   4.909  18.395  0.00  0.00    +0.000 A 
ATOM      8  C   UNL     1       3.017   6.208  18.402  0.00  0.00    +0.000 A 
ATOM      9  C   UNL     1       3.934   6.671  17.307  0.00  0.00    +0.000 C 
ATOM     10  C   UNL     1       2.657   7.085  19.436  0.00  0.00    +0.000 A 
ATOM     11  C   UNL     1       1.789   6.677  20.457  0.00  0.00    +0.000 A 
ATOM     12  C   UNL     1       1.313   5.364  20.445  0.00  0.00    +0.000 A 
ENDBRANCH   1  11
BRANCH   3  13
ATOM     13  C   UNL     1       0.804  10.926  19.909  0.00  0.00    +0.000 A 
ATOM     14  C   UNL     1       1.391  12.021  20.553  0.00  0.00    +0.000 A 
ATOM     15  C   UNL     1       0.985  13.327  20.307  0.00  0.00    +0.000 A 
ATOM     16  C   UNL     1       0.050  13.576  19.316  0.00  0.00    +0.000 A 
ATOM     17 BR   UNL     1      -0.458  15.356  18.938  0.00  0.00    +0.000 Br
ATOM     18  C   UNL     1      -0.485  12.520  18.580  0.00  0.00    +0.000 A 
ATOM     19  C   UNL     1      -0.123  11.193  18.874  0.00  0.00    +0.000 A 
ATOM     20  C   UNL     1      -0.708  10.083  18.041  0.00  0.00    +0.000 C 
ENDBRANCH   3  13
BRANCH   2  21
ATOM     21  S   UNL     1      -0.190   9.345  22.492  0.00  0.00    +0.000 S 
ATOM     22  H   UNL     1      -1.315   9.240  21.776  0.00  0.00    +0.000 HD
ENDBRANCH   2  21
TORSDOF 3
ENDMDL
