MODEL 1
REMARK VINA RESULT:      -8.2      0.000      0.000
REMARK  Name = 
REMARK  9 active torsions:
REMARK  status: ('A' for Active; 'I' for Inactive)
REMARK    1  A    between atoms: C_1  and  C_2
REMARK    2  A    between atoms: C_2  and  C_3
REMARK    3  A    between atoms: C_2  and  N_4
REMARK    4  A    between atoms: N_4  and  C_5
REMARK    5  A    between atoms: N_4  and  S_6
REMARK    6  A    between atoms: S_6  and  C_9
REMARK    7  A    between atoms: C_14  and  C_15
REMARK    8  A    between atoms: C_18  and  C_19
REMARK    9  A    between atoms: C_19  and  N_20
REMARK                            x       y       z     vdW  Elec       q    Type
REMARK                         _______ _______ _______ _____ _____    ______ ____
ROOT
ATOM      1  C   UNL     1       4.230   4.435  17.192  0.00  0.00    +0.000 A 
ATOM      2  C   UNL     1       5.271   3.724  16.546  0.00  0.00    +0.000 A 
ATOM      3  C   UNL     1       6.404   4.372  16.065  0.00  0.00    +0.000 A 
ATOM      4  C   UNL     1       6.511   5.743  16.213  0.00  0.00    +0.000 A 
ATOM      5  C   UNL     1       5.470   6.461  16.811  0.00  0.00    +0.000 A 
ATOM      6  C   UNL     1       4.296   5.842  17.318  0.00  0.00    +0.000 A 
ENDROOT
BRANCH   6   7
ATOM      7  C   UNL     1       3.297   6.719  17.977  0.00  0.00    +0.000 A 
ATOM      8  C   UNL     1       2.890   6.546  19.304  0.00  0.00    +0.000 A 
ATOM      9  C   UNL     1       2.130   7.519  19.963  0.00  0.00    +0.000 A 
ATOM     10  C   UNL     1       1.650   8.637  19.276  0.00  0.00    +0.000 A 
ATOM     11  C   UNL     1       1.907   8.739  17.907  0.00  0.00    +0.000 A 
ATOM     12  C   UNL     1       2.732   7.803  17.275  0.00  0.00    +0.000 A 
BRANCH  10  13
ATOM     13  C   UNL     1       0.870   9.710  19.999  0.00  0.00    +0.000 C 
BRANCH  13  14
ATOM     14  N   UNL     1       0.602  10.929  19.197  0.00  0.00    +0.000 NA
ATOM     15  C   UNL     1      -0.838  11.083  18.930  0.00  0.00    +0.000 C 
ATOM     16  C   UNL     1      -1.207  12.433  18.307  0.00  0.00    +0.000 C 
ATOM     17  C   UNL     1      -0.679  13.584  19.149  0.00  0.00    +0.000 C 
ATOM     18  C   UNL     1       0.826  13.437  19.299  0.00  0.00    +0.000 C 
ATOM     19  C   UNL     1       1.182  12.081  19.907  0.00  0.00    +0.000 C 
ENDBRANCH  13  14
ENDBRANCH  10  13
ENDBRANCH   6   7
BRANCH   1  20
ATOM     20  S   UNL     1       2.891   3.374  17.739  0.00  0.00    +0.000 S 
ATOM     21  O   UNL     1       3.279   2.039  17.316  0.00  0.00    +0.000 OA
ATOM     22  O   UNL     1       1.583   3.881  17.433  0.00  0.00    +0.000 OA
BRANCH  20  23
ATOM     23  N   UNL     1       3.000   3.432  19.485  0.00  0.00    +0.000 NA
ATOM     24  C   UNL     1       4.208   2.668  19.933  0.00  0.00    +0.000 C 
BRANCH  23  26
ATOM     25  C   UNL     1       2.097   2.435  21.613  0.00  0.00    +0.000 C 
ATOM     26  C   UNL     1       1.746   2.967  20.219  0.00  0.00    +0.000 C 
ATOM     27  C   UNL     1       0.710   4.073  20.408  0.00  0.00    +0.000 C 
ENDBRANCH  23  26
ENDBRANCH  20  23
ENDBRANCH   1  20
TORSDOF 6
ENDMDL
MODEL 2
REMARK VINA RESULT:      -8.2      2.149      4.078
REMARK  Name = 
REMARK  9 active torsions:
REMARK  status: ('A' for Active; 'I' for Inactive)
REMARK    1  A    between atoms: C_1  and  C_2
REMARK    2  A    between atoms: C_2  and  C_3
REMARK    3  A    between atoms: C_2  and  N_4
REMARK    4  A    between atoms: N_4  and  C_5
REMARK    5  A    between atoms: N_4  and  S_6
REMARK    6  A    between atoms: S_6  and  C_9
REMARK    7  A    between atoms: C_14  and  C_15
REMARK    8  A    between atoms: C_18  and  C_19
REMARK    9  A    between atoms: C_19  and  N_20
REMARK                            x       y       z     vdW  Elec       q    Type
REMARK                         _______ _______ _______ _____ _____    ______ ____
ROOT
ATOM      1  C   UNL     1       3.936   4.480  18.677  0.00  0.00    +0.000 A 
ATOM      2  C   UNL     1       4.085   3.072  18.619  0.00  0.00    +0.000 A 
ATOM      3  C   UNL     1       2.988   2.221  18.703  0.00  0.00    +0.000 A 
ATOM      4  C   UNL     1       1.724   2.762  18.856  0.00  0.00    +0.000 A 
ATOM      5  C   UNL     1       1.569   4.149  18.958  0.00  0.00    +0.000 A 
ATOM      6  C   UNL     1       2.659   5.056  18.876  0.00  0.00    +0.000 A 
ENDROOT
BRANCH   6   7
ATOM      7  C   UNL     1       2.345   6.504  18.944  0.00  0.00    +0.000 A 
ATOM      8  C   UNL     1       2.399   7.349  17.830  0.00  0.00    +0.000 A 
ATOM      9  C   UNL     1       1.875   8.646  17.877  0.00  0.00    +0.000 A 
ATOM     10  C   UNL     1       1.395   9.180  19.075  0.00  0.00    +0.000 A 
ATOM     11  C   UNL     1       1.489   8.407  20.234  0.00  0.00    +0.000 A 
ATOM     12  C   UNL     1       1.941   7.085  20.164  0.00  0.00    +0.000 A 
BRANCH  10  13
ATOM     13  C   UNL     1       0.788  10.563  19.114  0.00  0.00    +0.000 C 
BRANCH  13  14
ATOM     14  N   UNL     1      -0.693  10.588  19.214  0.00  0.00    +0.000 NA
ATOM     15  C   UNL     1      -1.177  11.932  19.570  0.00  0.00    +0.000 C 
ATOM     16  C   UNL     1      -2.698  12.084  19.465  0.00  0.00    +0.000 C 
ATOM     17  C   UNL     1      -3.195  11.669  18.089  0.00  0.00    +0.000 C 
ATOM     18  C   UNL     1      -2.762  10.238  17.820  0.00  0.00    +0.000 C 
ATOM     19  C   UNL     1      -1.246  10.094  17.942  0.00  0.00    +0.000 C 
ENDBRANCH  13  14
ENDBRANCH  10  13
ENDBRANCH   6   7
BRANCH   1  20
ATOM     20  S   UNL     1       5.493   5.357  18.526  0.00  0.00    +0.000 S 
ATOM     21  O   UNL     1       6.177   5.118  19.786  0.00  0.00    +0.000 OA
ATOM     22  O   UNL     1       5.364   6.691  18.012  0.00  0.00    +0.000 OA
BRANCH  20  23
ATOM     23  N   UNL     1       6.349   4.473  17.280  0.00  0.00    +0.000 NA
ATOM     24  C   UNL     1       7.814   4.469  17.592  0.00  0.00    +0.000 C 
BRANCH  23  26
ATOM     25  C   UNL     1       7.376   4.948  15.032  0.00  0.00    +0.000 C 
ATOM     26  C   UNL     1       6.086   4.959  15.858  0.00  0.00    +0.000 C 
ATOM     27  C   UNL     1       5.064   4.108  15.107  0.00  0.00    +0.000 C 
ENDBRANCH  23  26
ENDBRANCH  20  23
ENDBRANCH   1  20
TORSDOF 6
ENDMDL
MODEL 3
REMARK VINA RESULT:      -8.1      0.863      1.129
REMARK  Name = 
REMARK  9 active torsions:
REMARK  status: ('A' for Active; 'I' for Inactive)
REMARK    1  A    between atoms: C_1  and  C_2
REMARK    2  A    between atoms: C_2  and  C_3
REMARK    3  A    between atoms: C_2  and  N_4
REMARK    4  A    between atoms: N_4  and  C_5
REMARK    5  A    between atoms: N_4  and  S_6
REMARK    6  A    between atoms: S_6  and  C_9
REMARK    7  A    between atoms: C_14  and  C_15
REMARK    8  A    between atoms: C_18  and  C_19
REMARK    9  A    between atoms: C_19  and  N_20
REMARK                            x       y       z     vdW  Elec       q    Type
REMARK                         _______ _______ _______ _____ _____    ______ ____
ROOT
ATOM      1  C   UNL     1       3.964   4.784  17.266  0.00  0.00    +0.000 A 
ATOM      2  C   UNL     1       5.012   4.096  16.606  0.00  0.00    +0.000 A 
ATOM      3  C   UNL     1       6.194   4.740  16.254  0.00  0.00    +0.000 A 
ATOM      4  C   UNL     1       6.344   6.084  16.545  0.00  0.00    +0.000 A 
ATOM      5  C   UNL     1       5.298   6.783  17.158  0.00  0.00    +0.000 A 
ATOM      6  C   UNL     1       4.075   6.167  17.536  0.00  0.00    +0.000 A 
ENDROOT
BRANCH   6   7
ATOM      7  C   UNL     1       3.073   7.016  18.228  0.00  0.00    +0.000 A 
ATOM      8  C   UNL     1       2.624   6.759  19.528  0.00  0.00    +0.000 A 
ATOM      9  C   UNL     1       1.863   7.700  20.232  0.00  0.00    +0.000 A 
ATOM     10  C   UNL     1       1.425   8.872  19.612  0.00  0.00    +0.000 A 
ATOM     11  C   UNL     1       1.724   9.064  18.261  0.00  0.00    +0.000 A 
ATOM     12  C   UNL     1       2.549   8.158  17.588  0.00  0.00    +0.000 A 
BRANCH  10  13
ATOM     13  C   UNL     1       0.644   9.908  20.386  0.00  0.00    +0.000 C 
BRANCH  13  14
ATOM     14  N   UNL     1      -0.153  10.838  19.549  0.00  0.00    +0.000 NA
ATOM     15  C   UNL     1      -1.362  10.179  19.028  0.00  0.00    +0.000 C 
ATOM     16  C   UNL     1      -2.342  11.142  18.349  0.00  0.00    +0.000 C 
ATOM     17  C   UNL     1      -2.700  12.297  19.271  0.00  0.00    +0.000 C 
ATOM     18  C   UNL     1      -1.425  13.009  19.689  0.00  0.00    +0.000 C 
ATOM     19  C   UNL     1      -0.450  12.036  20.351  0.00  0.00    +0.000 C 
ENDBRANCH  13  14
ENDBRANCH  10  13
ENDBRANCH   6   7
BRANCH   1  20
ATOM     20  S   UNL     1       2.557   3.732  17.632  0.00  0.00    +0.000 S 
ATOM     21  O   UNL     1       2.905   2.438  17.068  0.00  0.00    +0.000 OA
ATOM     22  O   UNL     1       1.287   4.333  17.338  0.00  0.00    +0.000 OA
BRANCH  20  23
ATOM     23  N   UNL     1       2.593   3.580  19.375  0.00  0.00    +0.000 NA
ATOM     24  C   UNL     1       3.637   2.580  19.765  0.00  0.00    +0.000 C 
BRANCH  23  26
ATOM     25  C   UNL     1       0.566   2.090  19.288  0.00  0.00    +0.000 C 
ATOM     26  C   UNL     1       1.247   3.255  20.015  0.00  0.00    +0.000 C 
ATOM     27  C   UNL     1       1.354   2.864  21.488  0.00  0.00    +0.000 C 
ENDBRANCH  23  26
ENDBRANCH  20  23
ENDBRANCH   1  20
TORSDOF 6
ENDMDL
MODEL 4
REMARK VINA RESULT:      -8.0      2.108      3.886
REMARK  Name = 
REMARK  9 active torsions:
REMARK  status: ('A' for Active; 'I' for Inactive)
REMARK    1  A    between atoms: C_1  and  C_2
REMARK    2  A    between atoms: C_2  and  C_3
REMARK    3  A    between atoms: C_2  and  N_4
REMARK    4  A    between atoms: N_4  and  C_5
REMARK    5  A    between atoms: N_4  and  S_6
REMARK    6  A    between atoms: S_6  and  C_9
REMARK    7  A    between atoms: C_14  and  C_15
REMARK    8  A    between atoms: C_18  and  C_19
REMARK    9  A    between atoms: C_19  and  N_20
REMARK                            x       y       z     vdW  Elec       q    Type
REMARK                         _______ _______ _______ _____ _____    ______ ____
ROOT
ATOM      1  C   UNL     1       3.780   4.536  18.198  0.00  0.00    +0.000 A 
ATOM      2  C   UNL     1       3.917   3.182  17.804  0.00  0.00    +0.000 A 
ATOM      3  C   UNL     1       2.835   2.308  17.821  0.00  0.00    +0.000 A 
ATOM      4  C   UNL     1       1.601   2.769  18.244  0.00  0.00    +0.000 A 
ATOM      5  C   UNL     1       1.465   4.092  18.677  0.00  0.00    +0.000 A 
ATOM      6  C   UNL     1       2.540   5.020  18.674  0.00  0.00    +0.000 A 
ENDROOT
BRANCH   6   7
ATOM      7  C   UNL     1       2.241   6.407  19.108  0.00  0.00    +0.000 A 
ATOM      8  C   UNL     1       2.226   7.495  18.227  0.00  0.00    +0.000 A 
ATOM      9  C   UNL     1       1.716   8.739  18.618  0.00  0.00    +0.000 A 
ATOM     10  C   UNL     1       1.321   8.966  19.938  0.00  0.00    +0.000 A 
ATOM     11  C   UNL     1       1.488   7.939  20.870  0.00  0.00    +0.000 A 
ATOM     12  C   UNL     1       1.924   6.677  20.455  0.00  0.00    +0.000 A 
BRANCH  10  13
ATOM     13  C   UNL     1       0.728  10.293  20.347  0.00  0.00    +0.000 C 
BRANCH  13  14
ATOM     14  N   UNL     1       0.686  11.313  19.270  0.00  0.00    +0.000 NA
ATOM     15  C   UNL     1      -0.673  11.855  19.106  0.00  0.00    +0.000 C 
ATOM     16  C   UNL     1      -0.742  13.070  18.174  0.00  0.00    +0.000 C 
ATOM     17  C   UNL     1       0.232  14.151  18.614  0.00  0.00    +0.000 C 
ATOM     18  C   UNL     1       1.633  13.566  18.659  0.00  0.00    +0.000 C 
ATOM     19  C   UNL     1       1.686  12.348  19.580  0.00  0.00    +0.000 C 
ENDBRANCH  13  14
ENDBRANCH  10  13
ENDBRANCH   6   7
BRANCH   1  20
ATOM     20  S   UNL     1       5.311   5.462  18.066  0.00  0.00    +0.000 S 
ATOM     21  O   UNL     1       5.940   5.326  19.369  0.00  0.00    +0.000 OA
ATOM     22  O   UNL     1       5.159   6.757  17.464  0.00  0.00    +0.000 OA
BRANCH  20  23
ATOM     23  N   UNL     1       6.258   4.539  16.919  0.00  0.00    +0.000 NA
ATOM     24  C   UNL     1       7.688   4.512  17.363  0.00  0.00    +0.000 C 
BRANCH  23  26
ATOM     25  C   UNL     1       7.519   5.260  14.863  0.00  0.00    +0.000 C 
ATOM     26  C   UNL     1       6.136   5.003  15.471  0.00  0.00    +0.000 C 
ATOM     27  C   UNL     1       5.430   3.993  14.568  0.00  0.00    +0.000 C 
ENDBRANCH  23  26
ENDBRANCH  20  23
ENDBRANCH   1  20
TORSDOF 6
ENDMDL
MODEL 5
REMARK VINA RESULT:      -8.0      2.488      4.338
REMARK  Name = 
REMARK  9 active torsions:
REMARK  status: ('A' for Active; 'I' for Inactive)
REMARK    1  A    between atoms: C_1  and  C_2
REMARK    2  A    between atoms: C_2  and  C_3
REMARK    3  A    between atoms: C_2  and  N_4
REMARK    4  A    between atoms: N_4  and  C_5
REMARK    5  A    between atoms: N_4  and  S_6
REMARK    6  A    between atoms: S_6  and  C_9
REMARK    7  A    between atoms: C_14  and  C_15
REMARK    8  A    between atoms: C_18  and  C_19
REMARK    9  A    between atoms: C_19  and  N_20
REMARK                            x       y       z     vdW  Elec       q    Type
REMARK                         _______ _______ _______ _____ _____    ______ ____
ROOT
ATOM      1  C   UNL     1       3.633   4.821  17.554  0.00  0.00    +0.000 A 
ATOM      2  C   UNL     1       3.737   3.442  17.248  0.00  0.00    +0.000 A 
ATOM      3  C   UNL     1       2.726   2.546  17.579  0.00  0.00    +0.000 A 
ATOM      4  C   UNL     1       1.599   3.012  18.233  0.00  0.00    +0.000 A 
ATOM      5  C   UNL     1       1.505   4.364  18.578  0.00  0.00    +0.000 A 
ATOM      6  C   UNL     1       2.511   5.315  18.259  0.00  0.00    +0.000 A 
ENDROOT
BRANCH   6   7
ATOM      7  C   UNL     1       2.255   6.726  18.637  0.00  0.00    +0.000 A 
ATOM      8  C   UNL     1       2.234   7.772  17.708  0.00  0.00    +0.000 A 
ATOM      9  C   UNL     1       1.765   9.044  18.057  0.00  0.00    +0.000 A 
ATOM     10  C   UNL     1       1.418   9.340  19.377  0.00  0.00    +0.000 A 
ATOM     11  C   UNL     1       1.593   8.353  20.350  0.00  0.00    +0.000 A 
ATOM     12  C   UNL     1       1.989   7.064  19.980  0.00  0.00    +0.000 A 
BRANCH  10  13
ATOM     13  C   UNL     1       0.867  10.698  19.743  0.00  0.00    +0.000 C 
BRANCH  13  14
ATOM     14  N   UNL     1      -0.291  10.668  20.671  0.00  0.00    +0.000 NA
ATOM     15  C   UNL     1       0.151  10.474  22.063  0.00  0.00    +0.000 C 
ATOM     16  C   UNL     1      -0.967  10.663  23.094  0.00  0.00    +0.000 C 
ATOM     17  C   UNL     1      -1.651  12.009  22.918  0.00  0.00    +0.000 C 
ATOM     18  C   UNL     1      -2.184  12.110  21.499  0.00  0.00    +0.000 C 
ATOM     19  C   UNL     1      -1.064  11.906  20.480  0.00  0.00    +0.000 C 
ENDBRANCH  13  14
ENDBRANCH  10  13
ENDBRANCH   6   7
BRANCH   1  20
ATOM     20  S   UNL     1       5.054   5.770  17.005  0.00  0.00    +0.000 S 
ATOM     21  O   UNL     1       5.786   6.078  18.222  0.00  0.00    +0.000 OA
ATOM     22  O   UNL     1       4.734   6.809  16.068  0.00  0.00    +0.000 OA
BRANCH  20  23
ATOM     23  N   UNL     1       5.999   4.613  16.093  0.00  0.00    +0.000 NA
ATOM     24  C   UNL     1       7.355   4.480  16.715  0.00  0.00    +0.000 C 
BRANCH  23  26
ATOM     25  C   UNL     1       7.561   5.117  14.184  0.00  0.00    +0.000 C 
ATOM     26  C   UNL     1       6.100   4.909  14.600  0.00  0.00    +0.000 C 
ATOM     27  C   UNL     1       5.538   3.792  13.722  0.00  0.00    +0.000 C 
ENDBRANCH  23  26
ENDBRANCH  20  23
ENDBRANCH   1  20
TORSDOF 6
ENDMDL
MODEL 6
REMARK VINA RESULT:      -7.9      0.748      1.287
REMARK  Name = 
REMARK  9 active torsions:
REMARK  status: ('A' for Active; 'I' for Inactive)
REMARK    1  A    between atoms: C_1  and  C_2
REMARK    2  A    between atoms: C_2  and  C_3
REMARK    3  A    between atoms: C_2  and  N_4
REMARK    4  A    between atoms: N_4  and  C_5
REMARK    5  A    between atoms: N_4  and  S_6
REMARK    6  A    between atoms: S_6  and  C_9
REMARK    7  A    between atoms: C_14  and  C_15
REMARK    8  A    between atoms: C_18  and  C_19
REMARK    9  A    between atoms: C_19  and  N_20
REMARK                            x       y       z     vdW  Elec       q    Type
REMARK                         _______ _______ _______ _____ _____    ______ ____
ROOT
ATOM      1  C   UNL     1       3.899   4.667  17.100  0.00  0.00    +0.000 A 
ATOM      2  C   UNL     1       4.817   3.880  16.361  0.00  0.00    +0.000 A 
ATOM      3  C   UNL     1       6.031   4.399  15.923  0.00  0.00    +0.000 A 
ATOM      4  C   UNL     1       6.343   5.717  16.205  0.00  0.00    +0.000 A 
ATOM      5  C   UNL     1       5.426   6.516  16.897  0.00  0.00    +0.000 A 
ATOM      6  C   UNL     1       4.176   6.028  17.365  0.00  0.00    +0.000 A 
ENDROOT
BRANCH   6   7
ATOM      7  C   UNL     1       3.325   6.970  18.132  0.00  0.00    +0.000 A 
ATOM      8  C   UNL     1       2.808   8.149  17.585  0.00  0.00    +0.000 A 
ATOM      9  C   UNL     1       1.827   8.891  18.253  0.00  0.00    +0.000 A 
ATOM     10  C   UNL     1       1.424   8.542  19.544  0.00  0.00    +0.000 A 
ATOM     11  C   UNL     1       2.053   7.464  20.171  0.00  0.00    +0.000 A 
ATOM     12  C   UNL     1       2.975   6.683  19.468  0.00  0.00    +0.000 A 
BRANCH  10  13
ATOM     13  C   UNL     1       0.332   9.315  20.246  0.00  0.00    +0.000 C 
BRANCH  13  14
ATOM     14  N   UNL     1       0.108  10.686  19.724  0.00  0.00    +0.000 NA
ATOM     15  C   UNL     1      -1.229  10.812  19.120  0.00  0.00    +0.000 C 
ATOM     16  C   UNL     1      -1.612  12.253  18.769  0.00  0.00    +0.000 C 
ATOM     17  C   UNL     1      -1.467  13.166  19.977  0.00  0.00    +0.000 C 
ATOM     18  C   UNL     1      -0.039  13.082  20.490  0.00  0.00    +0.000 C 
ATOM     19  C   UNL     1       0.336  11.638  20.823  0.00  0.00    +0.000 C 
ENDBRANCH  13  14
ENDBRANCH  10  13
ENDBRANCH   6   7
BRANCH   1  20
ATOM     20  S   UNL     1       2.421   3.765  17.567  0.00  0.00    +0.000 S 
ATOM     21  O   UNL     1       2.565   2.464  16.936  0.00  0.00    +0.000 OA
ATOM     22  O   UNL     1       1.207   4.516  17.413  0.00  0.00    +0.000 OA
BRANCH  20  23
ATOM     23  N   UNL     1       2.598   3.542  19.294  0.00  0.00    +0.000 NA
ATOM     24  C   UNL     1       3.585   2.447  19.555  0.00  0.00    +0.000 C 
BRANCH  23  26
ATOM     25  C   UNL     1       0.530   2.114  19.442  0.00  0.00    +0.000 C 
ATOM     26  C   UNL     1       1.291   3.301  20.043  0.00  0.00    +0.000 C 
ATOM     27  C   UNL     1       1.490   3.001  21.528  0.00  0.00    +0.000 C 
ENDBRANCH  23  26
ENDBRANCH  20  23
ENDBRANCH   1  20
TORSDOF 6
ENDMDL
MODEL 7
REMARK VINA RESULT:      -7.8      1.822      4.122
REMARK  Name = 
REMARK  9 active torsions:
REMARK  status: ('A' for Active; 'I' for Inactive)
REMARK    1  A    between atoms: C_1  and  C_2
REMARK    2  A    between atoms: C_2  and  C_3
REMARK    3  A    between atoms: C_2  and  N_4
REMARK    4  A    between atoms: N_4  and  C_5
REMARK    5  A    between atoms: N_4  and  S_6
REMARK    6  A    between atoms: S_6  and  C_9
REMARK    7  A    between atoms: C_14  and  C_15
REMARK    8  A    between atoms: C_18  and  C_19
REMARK    9  A    between atoms: C_19  and  N_20
REMARK                            x       y       z     vdW  Elec       q    Type
REMARK                         _______ _______ _______ _____ _____    ______ ____
ROOT
ATOM      1  C   UNL     1       3.409   4.316  19.742  0.00  0.00    +0.000 A 
ATOM      2  C   UNL     1       3.410   2.972  20.190  0.00  0.00    +0.000 A 
ATOM      3  C   UNL     1       2.301   2.414  20.817  0.00  0.00    +0.000 A 
ATOM      4  C   UNL     1       1.174   3.193  21.016  0.00  0.00    +0.000 A 
ATOM      5  C   UNL     1       1.178   4.534  20.616  0.00  0.00    +0.000 A 
ATOM      6  C   UNL     1       2.286   5.145  19.971  0.00  0.00    +0.000 A 
ENDROOT
BRANCH   6   7
ATOM      7  C   UNL     1       2.132   6.560  19.552  0.00  0.00    +0.000 A 
ATOM      8  C   UNL     1       2.334   6.991  18.236  0.00  0.00    +0.000 A 
ATOM      9  C   UNL     1       1.958   8.276  17.827  0.00  0.00    +0.000 A 
ATOM     10  C   UNL     1       1.481   9.209  18.751  0.00  0.00    +0.000 A 
ATOM     11  C   UNL     1       1.432   8.846  20.099  0.00  0.00    +0.000 A 
ATOM     12  C   UNL     1       1.736   7.538  20.487  0.00  0.00    +0.000 A 
BRANCH  10  13
ATOM     13  C   UNL     1       1.031  10.578  18.300  0.00  0.00    +0.000 C 
BRANCH  13  14
ATOM     14  N   UNL     1       1.659  11.709  19.028  0.00  0.00    +0.000 NA
ATOM     15  C   UNL     1       2.519  12.503  18.134  0.00  0.00    +0.000 C 
ATOM     16  C   UNL     1       3.014  13.810  18.760  0.00  0.00    +0.000 C 
ATOM     17  C   UNL     1       1.852  14.640  19.283  0.00  0.00    +0.000 C 
ATOM     18  C   UNL     1       1.065  13.811  20.284  0.00  0.00    +0.000 C 
ATOM     19  C   UNL     1       0.589  12.503  19.653  0.00  0.00    +0.000 C 
ENDBRANCH  13  14
ENDBRANCH  10  13
ENDBRANCH   6   7
BRANCH   1  20
ATOM     20  S   UNL     1       4.945   4.792  18.948  0.00  0.00    +0.000 S 
ATOM     21  O   UNL     1       5.833   3.658  19.148  0.00  0.00    +0.000 OA
ATOM     22  O   UNL     1       5.382   6.121  19.272  0.00  0.00    +0.000 OA
BRANCH  20  23
ATOM     23  N   UNL     1       4.535   4.853  17.248  0.00  0.00    +0.000 NA
ATOM     24  C   UNL     1       4.137   3.486  16.783  0.00  0.00    +0.000 C 
BRANCH  23  26
ATOM     25  C   UNL     1       6.055   4.445  15.284  0.00  0.00    +0.000 C 
ATOM     26  C   UNL     1       5.614   5.452  16.352  0.00  0.00    +0.000 C 
ATOM     27  C   UNL     1       5.163   6.714  15.619  0.00  0.00    +0.000 C 
ENDBRANCH  23  26
ENDBRANCH  20  23
ENDBRANCH   1  20
TORSDOF 6
ENDMDL
MODEL 8
REMARK VINA RESULT:      -7.8      0.884      1.290
REMARK  Name = 
REMARK  9 active torsions:
REMARK  status: ('A' for Active; 'I' for Inactive)
REMARK    1  A    between atoms: C_1  and  C_2
REMARK    2  A    between atoms: C_2  and  C_3
REMARK    3  A    between atoms: C_2  and  N_4
REMARK    4  A    between atoms: N_4  and  C_5
REMARK    5  A    between atoms: N_4  and  S_6
REMARK    6  A    between atoms: S_6  and  C_9
REMARK    7  A    between atoms: C_14  and  C_15
REMARK    8  A    between atoms: C_18  and  C_19
REMARK    9  A    between atoms: C_19  and  N_20
REMARK                            x       y       z     vdW  Elec       q    Type
REMARK                         _______ _______ _______ _____ _____    ______ ____
ROOT
ATOM      1  C   UNL     1       3.889   4.629  17.443  0.00  0.00    +0.000 A 
ATOM      2  C   UNL     1       4.962   3.840  16.960  0.00  0.00    +0.000 A 
ATOM      3  C   UNL     1       6.260   4.335  16.905  0.00  0.00    +0.000 A 
ATOM      4  C   UNL     1       6.507   5.631  17.320  0.00  0.00    +0.000 A 
ATOM      5  C   UNL     1       5.448   6.434  17.758  0.00  0.00    +0.000 A 
ATOM      6  C   UNL     1       4.108   5.971  17.833  0.00  0.00    +0.000 A 
ENDROOT
BRANCH   6   7
ATOM      7  C   UNL     1       3.093   6.912  18.369  0.00  0.00    +0.000 A 
ATOM      8  C   UNL     1       2.552   6.800  19.654  0.00  0.00    +0.000 A 
ATOM      9  C   UNL     1       1.780   7.827  20.209  0.00  0.00    +0.000 A 
ATOM     10  C   UNL     1       1.424   8.943  19.449  0.00  0.00    +0.000 A 
ATOM     11  C   UNL     1       1.816   8.990  18.110  0.00  0.00    +0.000 A 
ATOM     12  C   UNL     1       2.651   7.999  17.586  0.00  0.00    +0.000 A 
BRANCH  10  13
ATOM     13  C   UNL     1       0.630  10.072  20.064  0.00  0.00    +0.000 C 
BRANCH  13  14
ATOM     14  N   UNL     1       0.739  11.368  19.348  0.00  0.00    +0.000 NA
ATOM     15  C   UNL     1      -0.566  11.788  18.811  0.00  0.00    +0.000 C 
ATOM     16  C   UNL     1      -0.573  13.219  18.263  0.00  0.00    +0.000 C 
ATOM     17  C   UNL     1      -0.065  14.204  19.304  0.00  0.00    +0.000 C 
ATOM     18  C   UNL     1       1.328  13.786  19.741  0.00  0.00    +0.000 C 
ATOM     19  C   UNL     1       1.326  12.353  20.272  0.00  0.00    +0.000 C 
ENDBRANCH  13  14
ENDBRANCH  10  13
ENDBRANCH   6   7
BRANCH   1  20
ATOM     20  S   UNL     1       2.320   3.760  17.435  0.00  0.00    +0.000 S 
ATOM     21  O   UNL     1       2.362   2.929  16.244  0.00  0.00    +0.000 OA
ATOM     22  O   UNL     1       1.186   4.601  17.693  0.00  0.00    +0.000 OA
BRANCH  20  23
ATOM     23  N   UNL     1       2.424   2.701  18.826  0.00  0.00    +0.000 NA
ATOM     24  C   UNL     1       1.043   2.332  19.273  0.00  0.00    +0.000 C 
BRANCH  23  26
ATOM     25  C   UNL     1       2.397   3.399  21.244  0.00  0.00    +0.000 C 
ATOM     26  C   UNL     1       3.255   3.248  19.983  0.00  0.00    +0.000 C 
ATOM     27  C   UNL     1       4.441   2.358  20.350  0.00  0.00    +0.000 C 
ENDBRANCH  23  26
ENDBRANCH  20  23
ENDBRANCH   1  20
TORSDOF 6
ENDMDL
MODEL 9
REMARK VINA RESULT:      -7.8      1.683      4.052
REMARK  Name = 
REMARK  9 active torsions:
REMARK  status: ('A' for Active; 'I' for Inactive)
REMARK    1  A    between atoms: C_1  and  C_2
REMARK    2  A    between atoms: C_2  and  C_3
REMARK    3  A    between atoms: C_2  and  N_4
REMARK    4  A    between atoms: N_4  and  C_5
REMARK    5  A    between atoms: N_4  and  S_6
REMARK    6  A    between atoms: S_6  and  C_9
REMARK    7  A    between atoms: C_14  and  C_15
REMARK    8  A    between atoms: C_18  and  C_19
REMARK    9  A    between atoms: C_19  and  N_20
REMARK                            x       y       z     vdW  Elec       q    Type
REMARK                         _______ _______ _______ _____ _____    ______ ____
ROOT
ATOM      1  C   UNL     1       3.336   4.191  19.758  0.00  0.00    +0.000 A 
ATOM      2  C   UNL     1       3.288   2.841  20.185  0.00  0.00    +0.000 A 
ATOM      3  C   UNL     1       2.151   2.307  20.782  0.00  0.00    +0.000 A 
ATOM      4  C   UNL     1       1.045   3.118  20.973  0.00  0.00    +0.000 A 
ATOM      5  C   UNL     1       1.097   4.464  20.594  0.00  0.00    +0.000 A 
ATOM      6  C   UNL     1       2.235   5.050  19.980  0.00  0.00    +0.000 A 
ENDROOT
BRANCH   6   7
ATOM      7  C   UNL     1       2.132   6.475  19.580  0.00  0.00    +0.000 A 
ATOM      8  C   UNL     1       2.350   6.917  18.270  0.00  0.00    +0.000 A 
ATOM      9  C   UNL     1       2.020   8.220  17.879  0.00  0.00    +0.000 A 
ATOM     10  C   UNL     1       1.577   9.156  18.816  0.00  0.00    +0.000 A 
ATOM     11  C   UNL     1       1.514   8.778  20.158  0.00  0.00    +0.000 A 
ATOM     12  C   UNL     1       1.771   7.454  20.529  0.00  0.00    +0.000 A 
BRANCH  10  13
ATOM     13  C   UNL     1       1.176  10.548  18.384  0.00  0.00    +0.000 C 
BRANCH  13  14
ATOM     14  N   UNL     1       0.366  11.296  19.377  0.00  0.00    +0.000 NA
ATOM     15  C   UNL     1       1.068  12.510  19.827  0.00  0.00    +0.000 C 
ATOM     16  C   UNL     1       0.198  13.445  20.674  0.00  0.00    +0.000 C 
ATOM     17  C   UNL     1      -1.092  13.793  19.950  0.00  0.00    +0.000 C 
ATOM     18  C   UNL     1      -1.830  12.509  19.609  0.00  0.00    +0.000 C 
ATOM     19  C   UNL     1      -0.947  11.579  18.777  0.00  0.00    +0.000 C 
ENDBRANCH  13  14
ENDBRANCH  10  13
ENDBRANCH   6   7
BRANCH   1  20
ATOM     20  S   UNL     1       4.901   4.631  19.000  0.00  0.00    +0.000 S 
ATOM     21  O   UNL     1       5.738   3.454  19.166  0.00  0.00    +0.000 OA
ATOM     22  O   UNL     1       5.389   5.927  19.379  0.00  0.00    +0.000 OA
BRANCH  20  23
ATOM     23  N   UNL     1       4.515   4.774  17.298  0.00  0.00    +0.000 NA
ATOM     24  C   UNL     1       4.141   3.428  16.759  0.00  0.00    +0.000 C 
BRANCH  23  26
ATOM     25  C   UNL     1       6.062   4.487  15.334  0.00  0.00    +0.000 C 
ATOM     26  C   UNL     1       5.600   5.430  16.451  0.00  0.00    +0.000 C 
ATOM     27  C   UNL     1       5.147   6.728  15.784  0.00  0.00    +0.000 C 
ENDBRANCH  23  26
ENDBRANCH  20  23
ENDBRANCH   1  20
TORSDOF 6
ENDMDL
