MODEL 1
REMARK VINA RESULT:      -8.1      0.000      0.000
REMARK  Name = 
REMARK  6 active torsions:
REMARK  status: ('A' for Active; 'I' for Inactive)
REMARK    1  A    between atoms: C_2  and  N_3
REMARK    2  A    between atoms: C_2  and  N_17
REMARK    3  A    between atoms: N_3  and  C_4
REMARK    4  A    between atoms: C_7  and  N_8
REMARK    5  A    between atoms: N_8  and  C_9
REMARK    6  A    between atoms: N_17  and  C_18
REMARK                            x       y       z     vdW  Elec       q    Type
REMARK                         _______ _______ _______ _____ _____    ______ ____
ROOT
ATOM      1  C   UNL     1       2.255   7.345  19.767  0.00  0.00    +0.000 A 
ATOM      2  C   UNL     1       1.447   8.155  20.574  0.00  0.00    +0.000 A 
ATOM      3  C   UNL     1       0.784   9.263  20.045  0.00  0.00    +0.000 A 
ATOM      4  C   UNL     1       0.945   9.606  18.701  0.00  0.00    +0.000 A 
ATOM      5  C   UNL     1       1.768   8.800  17.901  0.00  0.00    +0.000 A 
ATOM      6  C   UNL     1       2.443   7.693  18.434  0.00  0.00    +0.000 A 
ENDROOT
BRANCH   1   7
ATOM      7  N   UNL     1       2.906   6.198  20.276  0.00  0.00    +0.000 N 
ATOM      8  H   UNL     1       3.452   6.315  21.123  0.00  0.00    +0.000 HD
BRANCH   7  10
ATOM      9  S   UNL     1       1.753   3.871  20.745  0.00  0.00    +0.000 S 
ATOM     10  C   UNL     1       2.713   4.897  19.857  0.00  0.00    +0.000 C 
BRANCH  10  11
ATOM     11  N   UNL     1       3.426   4.579  18.735  0.00  0.00    +0.000 N 
ATOM     12  H   UNL     1       2.860   4.594  17.895  0.00  0.00    +0.000 HD
BRANCH  11  13
ATOM     13  C   UNL     1       4.828   4.182  18.554  0.00  0.00    +0.000 C 
ATOM     14  C   UNL     1       5.049   3.955  17.047  0.00  0.00    +0.000 C 
ATOM     15  C   UNL     1       5.106   5.244  16.222  0.00  0.00    +0.000 C 
ATOM     16  C   UNL     1       6.521   5.794  16.088  0.00  0.00    +0.000 C 
ATOM     17  C   UNL     1       7.137   6.313  17.382  0.00  0.00    +0.000 C 
ATOM     18  C   UNL     1       7.165   5.316  18.539  0.00  0.00    +0.000 C 
ATOM     19  C   UNL     1       5.805   5.158  19.222  0.00  0.00    +0.000 C 
ENDBRANCH  11  13
ENDBRANCH  10  11
ENDBRANCH   7  10
ENDBRANCH   1   7
BRANCH   4  20
ATOM     20  N   UNL     1       0.223  10.696  18.167  0.00  0.00    +0.000 N 
ATOM     21  H   UNL     1       0.673  11.092  17.347  0.00  0.00    +0.000 HD
BRANCH  20  22
ATOM     22  C   UNL     1      -1.180  10.784  18.020  0.00  0.00    +0.000 A 
ATOM     23  C   UNL     1      -1.829   9.881  17.172  0.00  0.00    +0.000 A 
ATOM     24  C   UNL     1      -3.216   9.914  17.024  0.00  0.00    +0.000 A 
ATOM     25  C   UNL     1      -3.972  10.835  17.747  0.00  0.00    +0.000 A 
ATOM     26  C   UNL     1      -3.342  11.713  18.625  0.00  0.00    +0.000 A 
ATOM     27  C   UNL     1      -1.954  11.682  18.768  0.00  0.00    +0.000 A 
ENDBRANCH  20  22
ENDBRANCH   4  20
TORSDOF 6
ENDMDL
MODEL 2
REMARK VINA RESULT:      -8.0      4.046      7.535
REMARK  Name = 
REMARK  6 active torsions:
REMARK  status: ('A' for Active; 'I' for Inactive)
REMARK    1  A    between atoms: C_2  and  N_3
REMARK    2  A    between atoms: C_2  and  N_17
REMARK    3  A    between atoms: N_3  and  C_4
REMARK    4  A    between atoms: C_7  and  N_8
REMARK    5  A    between atoms: N_8  and  C_9
REMARK    6  A    between atoms: N_17  and  C_18
REMARK                            x       y       z     vdW  Elec       q    Type
REMARK                         _______ _______ _______ _____ _____    ______ ____
ROOT
ATOM      1  C   UNL     1       4.588   6.005  18.705  0.00  0.00    +0.000 A 
ATOM      2  C   UNL     1       4.430   6.712  17.507  0.00  0.00    +0.000 A 
ATOM      3  C   UNL     1       5.339   6.562  16.459  0.00  0.00    +0.000 A 
ATOM      4  C   UNL     1       6.449   5.727  16.601  0.00  0.00    +0.000 A 
ATOM      5  C   UNL     1       6.610   5.034  17.811  0.00  0.00    +0.000 A 
ATOM      6  C   UNL     1       5.704   5.192  18.868  0.00  0.00    +0.000 A 
ENDROOT
BRANCH   1   7
ATOM      7  N   UNL     1       3.658   6.116  19.765  0.00  0.00    +0.000 N 
ATOM      8  H   UNL     1       4.029   6.092  20.708  0.00  0.00    +0.000 HD
BRANCH   7  10
ATOM      9  S   UNL     1       1.798   7.945  20.164  0.00  0.00    +0.000 S 
ATOM     10  C   UNL     1       2.326   6.455  19.648  0.00  0.00    +0.000 C 
BRANCH  10  11
ATOM     11  N   UNL     1       1.552   5.444  19.152  0.00  0.00    +0.000 N 
ATOM     12  H   UNL     1       0.944   5.748  18.401  0.00  0.00    +0.000 HD
BRANCH  11  13
ATOM     13  C   UNL     1       1.421   4.036  19.548  0.00  0.00    +0.000 C 
ATOM     14  C   UNL     1       1.419   3.195  18.258  0.00  0.00    +0.000 C 
ATOM     15  C   UNL     1       2.788   3.079  17.584  0.00  0.00    +0.000 C 
ATOM     16  C   UNL     1       3.581   1.870  18.067  0.00  0.00    +0.000 C 
ATOM     17  C   UNL     1       4.037   1.936  19.521  0.00  0.00    +0.000 C 
ATOM     18  C   UNL     1       2.926   2.167  20.544  0.00  0.00    +0.000 C 
ATOM     19  C   UNL     1       2.460   3.623  20.600  0.00  0.00    +0.000 C 
ENDBRANCH  11  13
ENDBRANCH  10  11
ENDBRANCH   7  10
ENDBRANCH   1   7
BRANCH   4  20
ATOM     20  N   UNL     1       7.329   5.542  15.513  0.00  0.00    +0.000 N 
ATOM     21  H   UNL     1       8.269   5.302  15.813  0.00  0.00    +0.000 HD
BRANCH  20  22
ATOM     22  C   UNL     1       7.039   4.874  14.302  0.00  0.00    +0.000 A 
ATOM     23  C   UNL     1       5.964   3.979  14.265  0.00  0.00    +0.000 A 
ATOM     24  C   UNL     1       5.625   3.323  13.080  0.00  0.00    +0.000 A 
ATOM     25  C   UNL     1       6.342   3.578  11.913  0.00  0.00    +0.000 A 
ATOM     26  C   UNL     1       7.388   4.496  11.927  0.00  0.00    +0.000 A 
ATOM     27  C   UNL     1       7.730   5.148  13.113  0.00  0.00    +0.000 A 
ENDBRANCH  20  22
ENDBRANCH   4  20
TORSDOF 6
ENDMDL
MODEL 3
REMARK VINA RESULT:      -8.0      4.466      7.501
REMARK  Name = 
REMARK  6 active torsions:
REMARK  status: ('A' for Active; 'I' for Inactive)
REMARK    1  A    between atoms: C_2  and  N_3
REMARK    2  A    between atoms: C_2  and  N_17
REMARK    3  A    between atoms: N_3  and  C_4
REMARK    4  A    between atoms: C_7  and  N_8
REMARK    5  A    between atoms: N_8  and  C_9
REMARK    6  A    between atoms: N_17  and  C_18
REMARK                            x       y       z     vdW  Elec       q    Type
REMARK                         _______ _______ _______ _____ _____    ______ ____
ROOT
ATOM      1  C   UNL     1       4.789   5.713  18.931  0.00  0.00    +0.000 A 
ATOM      2  C   UNL     1       4.572   6.609  17.878  0.00  0.00    +0.000 A 
ATOM      3  C   UNL     1       5.374   6.586  16.736  0.00  0.00    +0.000 A 
ATOM      4  C   UNL     1       6.437   5.686  16.640  0.00  0.00    +0.000 A 
ATOM      5  C   UNL     1       6.660   4.802  17.706  0.00  0.00    +0.000 A 
ATOM      6  C   UNL     1       5.862   4.832  18.858  0.00  0.00    +0.000 A 
ENDROOT
BRANCH   1   7
ATOM      7  N   UNL     1       3.964   5.698  20.080  0.00  0.00    +0.000 N 
ATOM      8  H   UNL     1       4.430   5.670  20.981  0.00  0.00    +0.000 HD
BRANCH   7  10
ATOM      9  S   UNL     1       1.991   7.398  19.660  0.00  0.00    +0.000 S 
ATOM     10  C   UNL     1       2.603   5.920  20.109  0.00  0.00    +0.000 C 
BRANCH  10  11
ATOM     11  N   UNL     1       1.892   4.856  20.591  0.00  0.00    +0.000 N 
ATOM     12  H   UNL     1       1.448   5.052  21.479  0.00  0.00    +0.000 HD
BRANCH  11  13
ATOM     13  C   UNL     1       1.711   3.494  20.073  0.00  0.00    +0.000 C 
ATOM     14  C   UNL     1       1.025   3.614  18.700  0.00  0.00    +0.000 C 
ATOM     15  C   UNL     1       1.943   4.123  17.585  0.00  0.00    +0.000 C 
ATOM     16  C   UNL     1       2.654   2.995  16.846  0.00  0.00    +0.000 C 
ATOM     17  C   UNL     1       3.684   2.232  17.672  0.00  0.00    +0.000 C 
ATOM     18  C   UNL     1       3.164   1.638  18.980  0.00  0.00    +0.000 C 
ATOM     19  C   UNL     1       3.012   2.681  20.089  0.00  0.00    +0.000 C 
ENDBRANCH  11  13
ENDBRANCH  10  11
ENDBRANCH   7  10
ENDBRANCH   1   7
BRANCH   4  20
ATOM     20  N   UNL     1       7.205   5.636  15.456  0.00  0.00    +0.000 N 
ATOM     21  H   UNL     1       8.198   5.535  15.645  0.00  0.00    +0.000 HD
BRANCH  20  22
ATOM     22  C   UNL     1       6.879   4.936  14.273  0.00  0.00    +0.000 A 
ATOM     23  C   UNL     1       7.703   5.083  13.152  0.00  0.00    +0.000 A 
ATOM     24  C   UNL     1       7.435   4.384  11.974  0.00  0.00    +0.000 A 
ATOM     25  C   UNL     1       6.352   3.510  11.914  0.00  0.00    +0.000 A 
ATOM     26  C   UNL     1       5.547   3.324  13.036  0.00  0.00    +0.000 A 
ATOM     27  C   UNL     1       5.814   4.026  14.211  0.00  0.00    +0.000 A 
ENDBRANCH  20  22
ENDBRANCH   4  20
TORSDOF 6
ENDMDL
MODEL 4
REMARK VINA RESULT:      -8.0      0.207      1.002
REMARK  Name = 
REMARK  6 active torsions:
REMARK  status: ('A' for Active; 'I' for Inactive)
REMARK    1  A    between atoms: C_2  and  N_3
REMARK    2  A    between atoms: C_2  and  N_17
REMARK    3  A    between atoms: N_3  and  C_4
REMARK    4  A    between atoms: C_7  and  N_8
REMARK    5  A    between atoms: N_8  and  C_9
REMARK    6  A    between atoms: N_17  and  C_18
REMARK                            x       y       z     vdW  Elec       q    Type
REMARK                         _______ _______ _______ _____ _____    ______ ____
ROOT
ATOM      1  C   UNL     1       2.310   7.388  19.701  0.00  0.00    +0.000 A 
ATOM      2  C   UNL     1       2.342   7.761  18.352  0.00  0.00    +0.000 A 
ATOM      3  C   UNL     1       1.606   8.852  17.890  0.00  0.00    +0.000 A 
ATOM      4  C   UNL     1       0.792   9.575  18.764  0.00  0.00    +0.000 A 
ATOM      5  C   UNL     1       0.751   9.186  20.112  0.00  0.00    +0.000 A 
ATOM      6  C   UNL     1       1.480   8.083  20.574  0.00  0.00    +0.000 A 
ENDROOT
BRANCH   1   7
ATOM      7  N   UNL     1       3.076   6.307  20.195  0.00  0.00    +0.000 N 
ATOM      8  H   UNL     1       3.720   6.506  20.953  0.00  0.00    +0.000 HD
BRANCH   7  10
ATOM      9  S   UNL     1       2.087   3.981  20.958  0.00  0.00    +0.000 S 
ATOM     10  C   UNL     1       2.893   4.973  19.894  0.00  0.00    +0.000 C 
BRANCH  10  11
ATOM     11  N   UNL     1       3.484   4.598  18.719  0.00  0.00    +0.000 N 
ATOM     12  H   UNL     1       2.851   4.643  17.931  0.00  0.00    +0.000 HD
BRANCH  11  13
ATOM     13  C   UNL     1       4.836   4.107  18.426  0.00  0.00    +0.000 C 
ATOM     14  C   UNL     1       4.935   3.920  16.901  0.00  0.00    +0.000 C 
ATOM     15  C   UNL     1       5.033   5.231  16.116  0.00  0.00    +0.000 C 
ATOM     16  C   UNL     1       6.472   5.681  15.897  0.00  0.00    +0.000 C 
ATOM     17  C   UNL     1       7.214   6.105  17.160  0.00  0.00    +0.000 C 
ATOM     18  C   UNL     1       7.246   5.066  18.280  0.00  0.00    +0.000 C 
ATOM     19  C   UNL     1       5.929   4.983  19.053  0.00  0.00    +0.000 C 
ENDBRANCH  11  13
ENDBRANCH  10  11
ENDBRANCH   7  10
ENDBRANCH   1   7
BRANCH   4  20
ATOM     20  N   UNL     1       0.098  10.711  18.294  0.00  0.00    +0.000 N 
ATOM     21  H   UNL     1       0.611  11.205  17.570  0.00  0.00    +0.000 HD
BRANCH  20  22
ATOM     22  C   UNL     1      -1.288  10.801  18.031  0.00  0.00    +0.000 A 
ATOM     23  C   UNL     1      -1.854   9.930  17.094  0.00  0.00    +0.000 A 
ATOM     24  C   UNL     1      -3.225   9.964  16.828  0.00  0.00    +0.000 A 
ATOM     25  C   UNL     1      -4.046  10.853  17.519  0.00  0.00    +0.000 A 
ATOM     26  C   UNL     1      -3.500  11.696  18.483  0.00  0.00    +0.000 A 
ATOM     27  C   UNL     1      -2.130  11.665  18.744  0.00  0.00    +0.000 A 
ENDBRANCH  20  22
ENDBRANCH   4  20
TORSDOF 6
ENDMDL
MODEL 5
REMARK VINA RESULT:      -7.9      0.673      1.203
REMARK  Name = 
REMARK  6 active torsions:
REMARK  status: ('A' for Active; 'I' for Inactive)
REMARK    1  A    between atoms: C_2  and  N_3
REMARK    2  A    between atoms: C_2  and  N_17
REMARK    3  A    between atoms: N_3  and  C_4
REMARK    4  A    between atoms: C_7  and  N_8
REMARK    5  A    between atoms: N_8  and  C_9
REMARK    6  A    between atoms: N_17  and  C_18
REMARK                            x       y       z     vdW  Elec       q    Type
REMARK                         _______ _______ _______ _____ _____    ______ ____
ROOT
ATOM      1  C   UNL     1       2.456   7.184  19.576  0.00  0.00    +0.000 A 
ATOM      2  C   UNL     1       1.646   7.928  20.443  0.00  0.00    +0.000 A 
ATOM      3  C   UNL     1       0.955   9.054  19.993  0.00  0.00    +0.000 A 
ATOM      4  C   UNL     1       1.088   9.482  18.671  0.00  0.00    +0.000 A 
ATOM      5  C   UNL     1       1.915   8.742  17.811  0.00  0.00    +0.000 A 
ATOM      6  C   UNL     1       2.618   7.618  18.264  0.00  0.00    +0.000 A 
ENDROOT
BRANCH   1   7
ATOM      7  N   UNL     1       3.136   6.021  20.003  0.00  0.00    +0.000 N 
ATOM      8  H   UNL     1       3.614   6.068  20.897  0.00  0.00    +0.000 HD
BRANCH   7  10
ATOM      9  S   UNL     1       1.599   4.233  18.817  0.00  0.00    +0.000 S 
ATOM     10  C   UNL     1       3.048   4.769  19.431  0.00  0.00    +0.000 C 
BRANCH  10  11
ATOM     11  N   UNL     1       4.216   4.060  19.499  0.00  0.00    +0.000 N 
ATOM     12  H   UNL     1       4.191   3.333  20.202  0.00  0.00    +0.000 HD
BRANCH  11  13
ATOM     13  C   UNL     1       5.485   4.207  18.775  0.00  0.00    +0.000 C 
ATOM     14  C   UNL     1       5.179   4.041  17.276  0.00  0.00    +0.000 C 
ATOM     15  C   UNL     1       4.461   5.238  16.648  0.00  0.00    +0.000 C 
ATOM     16  C   UNL     1       5.426   6.270  16.076  0.00  0.00    +0.000 C 
ATOM     17  C   UNL     1       6.264   7.013  17.111  0.00  0.00    +0.000 C 
ATOM     18  C   UNL     1       7.079   6.125  18.050  0.00  0.00    +0.000 C 
ATOM     19  C   UNL     1       6.233   5.492  19.156  0.00  0.00    +0.000 C 
ENDBRANCH  11  13
ENDBRANCH  10  11
ENDBRANCH   7  10
ENDBRANCH   1   7
BRANCH   4  20
ATOM     20  N   UNL     1       0.339  10.588  18.216  0.00  0.00    +0.000 N 
ATOM     21  H   UNL     1       0.770  11.044  17.417  0.00  0.00    +0.000 HD
BRANCH  20  22
ATOM     22  C   UNL     1      -1.067  10.658  18.092  0.00  0.00    +0.000 A 
ATOM     23  C   UNL     1      -1.765  11.611  18.841  0.00  0.00    +0.000 A 
ATOM     24  C   UNL     1      -3.151  11.734  18.723  0.00  0.00    +0.000 A 
ATOM     25  C   UNL     1      -3.849  10.920  17.833  0.00  0.00    +0.000 A 
ATOM     26  C   UNL     1      -3.160   9.995  17.053  0.00  0.00    +0.000 A 
ATOM     27  C   UNL     1      -1.776   9.870  17.175  0.00  0.00    +0.000 A 
ENDBRANCH  20  22
ENDBRANCH   4  20
TORSDOF 6
ENDMDL
MODEL 6
REMARK VINA RESULT:      -7.9      0.899      1.526
REMARK  Name = 
REMARK  6 active torsions:
REMARK  status: ('A' for Active; 'I' for Inactive)
REMARK    1  A    between atoms: C_2  and  N_3
REMARK    2  A    between atoms: C_2  and  N_17
REMARK    3  A    between atoms: N_3  and  C_4
REMARK    4  A    between atoms: C_7  and  N_8
REMARK    5  A    between atoms: N_8  and  C_9
REMARK    6  A    between atoms: N_17  and  C_18
REMARK                            x       y       z     vdW  Elec       q    Type
REMARK                         _______ _______ _______ _____ _____    ______ ____
ROOT
ATOM      1  C   UNL     1       2.543   7.398  19.078  0.00  0.00    +0.000 A 
ATOM      2  C   UNL     1       2.424   8.122  17.885  0.00  0.00    +0.000 A 
ATOM      3  C   UNL     1       1.614   9.255  17.809  0.00  0.00    +0.000 A 
ATOM      4  C   UNL     1       0.876   9.670  18.919  0.00  0.00    +0.000 A 
ATOM      5  C   UNL     1       0.987   8.932  20.107  0.00  0.00    +0.000 A 
ATOM      6  C   UNL     1       1.791   7.787  20.181  0.00  0.00    +0.000 A 
ENDROOT
BRANCH   1   7
ATOM      7  N   UNL     1       3.386   6.268  19.184  0.00  0.00    +0.000 N 
ATOM      8  H   UNL     1       4.109   6.297  19.895  0.00  0.00    +0.000 HD
BRANCH   7  10
ATOM      9  S   UNL     1       2.411   3.821  19.355  0.00  0.00    +0.000 S 
ATOM     10  C   UNL     1       3.200   5.051  18.561  0.00  0.00    +0.000 C 
BRANCH  10  11
ATOM     11  N   UNL     1       3.775   4.985  17.323  0.00  0.00    +0.000 N 
ATOM     12  H   UNL     1       3.104   5.101  16.573  0.00  0.00    +0.000 HD
BRANCH  11  13
ATOM     13  C   UNL     1       5.160   4.731  16.907  0.00  0.00    +0.000 C 
ATOM     14  C   UNL     1       5.648   5.980  16.151  0.00  0.00    +0.000 C 
ATOM     15  C   UNL     1       5.936   7.184  17.052  0.00  0.00    +0.000 C 
ATOM     16  C   UNL     1       7.381   7.225  17.535  0.00  0.00    +0.000 C 
ATOM     17  C   UNL     1       7.771   6.109  18.498  0.00  0.00    +0.000 C 
ATOM     18  C   UNL     1       7.520   4.690  17.990  0.00  0.00    +0.000 C 
ATOM     19  C   UNL     1       6.049   4.278  18.073  0.00  0.00    +0.000 C 
ENDBRANCH  11  13
ENDBRANCH  10  11
ENDBRANCH   7  10
ENDBRANCH   1   7
BRANCH   4  20
ATOM     20  N   UNL     1       0.106  10.852  18.844  0.00  0.00    +0.000 N 
ATOM     21  H   UNL     1       0.614  11.617  18.411  0.00  0.00    +0.000 HD
BRANCH  20  22
ATOM     22  C   UNL     1      -1.262  10.943  18.501  0.00  0.00    +0.000 A 
ATOM     23  C   UNL     1      -1.794  10.019  17.595  0.00  0.00    +0.000 A 
ATOM     24  C   UNL     1      -3.147  10.055  17.254  0.00  0.00    +0.000 A 
ATOM     25  C   UNL     1      -3.988  11.000  17.838  0.00  0.00    +0.000 A 
ATOM     26  C   UNL     1      -3.478  11.899  18.772  0.00  0.00    +0.000 A 
ATOM     27  C   UNL     1      -2.125  11.866  19.108  0.00  0.00    +0.000 A 
ENDBRANCH  20  22
ENDBRANCH   4  20
TORSDOF 6
ENDMDL
MODEL 7
REMARK VINA RESULT:      -7.8      0.988      1.735
REMARK  Name = 
REMARK  6 active torsions:
REMARK  status: ('A' for Active; 'I' for Inactive)
REMARK    1  A    between atoms: C_2  and  N_3
REMARK    2  A    between atoms: C_2  and  N_17
REMARK    3  A    between atoms: N_3  and  C_4
REMARK    4  A    between atoms: C_7  and  N_8
REMARK    5  A    between atoms: N_8  and  C_9
REMARK    6  A    between atoms: N_17  and  C_18
REMARK                            x       y       z     vdW  Elec       q    Type
REMARK                         _______ _______ _______ _____ _____    ______ ____
ROOT
ATOM      1  C   UNL     1       1.894   7.960  19.764  0.00  0.00    +0.000 A 
ATOM      2  C   UNL     1       1.948   8.310  18.409  0.00  0.00    +0.000 A 
ATOM      3  C   UNL     1       1.184   9.364  17.907  0.00  0.00    +0.000 A 
ATOM      4  C   UNL     1       0.320  10.070  18.745  0.00  0.00    +0.000 A 
ATOM      5  C   UNL     1       0.257   9.704  20.099  0.00  0.00    +0.000 A 
ATOM      6  C   UNL     1       1.015   8.639  20.602  0.00  0.00    +0.000 A 
ENDROOT
BRANCH   1   7
ATOM      7  N   UNL     1       2.687   6.919  20.299  0.00  0.00    +0.000 N 
ATOM      8  H   UNL     1       3.144   7.096  21.187  0.00  0.00    +0.000 HD
BRANCH   7  10
ATOM      9  S   UNL     1       1.577   4.524  20.304  0.00  0.00    +0.000 S 
ATOM     10  C   UNL     1       2.741   5.618  19.842  0.00  0.00    +0.000 C 
BRANCH  10  11
ATOM     11  N   UNL     1       3.841   5.361  19.072  0.00  0.00    +0.000 N 
ATOM     12  H   UNL     1       4.682   5.237  19.621  0.00  0.00    +0.000 HD
BRANCH  11  13
ATOM     13  C   UNL     1       4.012   5.286  17.615  0.00  0.00    +0.000 C 
ATOM     14  C   UNL     1       4.809   6.530  17.183  0.00  0.00    +0.000 C 
ATOM     15  C   UNL     1       6.294   6.482  17.553  0.00  0.00    +0.000 C 
ATOM     16  C   UNL     1       7.154   5.864  16.458  0.00  0.00    +0.000 C 
ATOM     17  C   UNL     1       6.921   4.376  16.216  0.00  0.00    +0.000 C 
ATOM     18  C   UNL     1       5.477   3.982  15.912  0.00  0.00    +0.000 C 
ATOM     19  C   UNL     1       4.595   3.941  17.161  0.00  0.00    +0.000 C 
ENDBRANCH  11  13
ENDBRANCH  10  11
ENDBRANCH   7  10
ENDBRANCH   1   7
BRANCH   4  20
ATOM     20  N   UNL     1      -0.404  11.170  18.236  0.00  0.00    +0.000 N 
ATOM     21  H   UNL     1       0.120  11.686  17.535  0.00  0.00    +0.000 HD
BRANCH  20  22
ATOM     22  C   UNL     1      -1.778  11.191  17.903  0.00  0.00    +0.000 A 
ATOM     23  C   UNL     1      -2.204  10.521  16.752  0.00  0.00    +0.000 A 
ATOM     24  C   UNL     1      -3.556  10.491  16.406  0.00  0.00    +0.000 A 
ATOM     25  C   UNL     1      -4.499  11.109  17.225  0.00  0.00    +0.000 A 
ATOM     26  C   UNL     1      -4.091  11.744  18.395  0.00  0.00    +0.000 A 
ATOM     27  C   UNL     1      -2.739  11.778  18.737  0.00  0.00    +0.000 A 
ENDBRANCH  20  22
ENDBRANCH   4  20
TORSDOF 6
ENDMDL
MODEL 8
REMARK VINA RESULT:      -7.8      4.061      7.586
REMARK  Name = 
REMARK  6 active torsions:
REMARK  status: ('A' for Active; 'I' for Inactive)
REMARK    1  A    between atoms: C_2  and  N_3
REMARK    2  A    between atoms: C_2  and  N_17
REMARK    3  A    between atoms: N_3  and  C_4
REMARK    4  A    between atoms: C_7  and  N_8
REMARK    5  A    between atoms: N_8  and  C_9
REMARK    6  A    between atoms: N_17  and  C_18
REMARK                            x       y       z     vdW  Elec       q    Type
REMARK                         _______ _______ _______ _____ _____    ______ ____
ROOT
ATOM      1  C   UNL     1       4.420   5.841  18.910  0.00  0.00    +0.000 A 
ATOM      2  C   UNL     1       5.668   5.235  19.089  0.00  0.00    +0.000 A 
ATOM      3  C   UNL     1       6.577   5.132  18.035  0.00  0.00    +0.000 A 
ATOM      4  C   UNL     1       6.239   5.603  16.765  0.00  0.00    +0.000 A 
ATOM      5  C   UNL     1       4.979   6.195  16.587  0.00  0.00    +0.000 A 
ATOM      6  C   UNL     1       4.063   6.289  17.642  0.00  0.00    +0.000 A 
ENDROOT
BRANCH   1   7
ATOM      7  N   UNL     1       3.500   5.987  19.974  0.00  0.00    +0.000 N 
ATOM      8  H   UNL     1       3.872   5.927  20.916  0.00  0.00    +0.000 HD
BRANCH   7  10
ATOM      9  S   UNL     1       1.804   8.006  20.082  0.00  0.00    +0.000 S 
ATOM     10  C   UNL     1       2.189   6.403  19.868  0.00  0.00    +0.000 C 
BRANCH  10  11
ATOM     11  N   UNL     1       1.313   5.377  19.648  0.00  0.00    +0.000 N 
ATOM     12  H   UNL     1       0.542   5.642  19.047  0.00  0.00    +0.000 HD
BRANCH  11  13
ATOM     13  C   UNL     1       1.276   4.003  20.164  0.00  0.00    +0.000 C 
ATOM     14  C   UNL     1       1.335   3.056  18.952  0.00  0.00    +0.000 C 
ATOM     15  C   UNL     1       2.711   2.975  18.288  0.00  0.00    +0.000 C 
ATOM     16  C   UNL     1       3.583   1.868  18.871  0.00  0.00    +0.000 C 
ATOM     17  C   UNL     1       4.027   2.090  20.313  0.00  0.00    +0.000 C 
ATOM     18  C   UNL     1       2.900   2.333  21.315  0.00  0.00    +0.000 C 
ATOM     19  C   UNL     1       2.337   3.754  21.246  0.00  0.00    +0.000 C 
ENDBRANCH  11  13
ENDBRANCH  10  11
ENDBRANCH   7  10
ENDBRANCH   1   7
BRANCH   4  20
ATOM     20  N   UNL     1       7.189   5.544  15.722  0.00  0.00    +0.000 N 
ATOM     21  H   UNL     1       8.119   5.310  16.060  0.00  0.00    +0.000 HD
BRANCH  20  22
ATOM     22  C   UNL     1       6.999   4.975  14.443  0.00  0.00    +0.000 A 
ATOM     23  C   UNL     1       7.766   5.447  13.373  0.00  0.00    +0.000 A 
ATOM     24  C   UNL     1       7.631   4.889  12.100  0.00  0.00    +0.000 A 
ATOM     25  C   UNL     1       6.745   3.835  11.892  0.00  0.00    +0.000 A 
ATOM     26  C   UNL     1       6.004   3.329  12.958  0.00  0.00    +0.000 A 
ATOM     27  C   UNL     1       6.137   3.890  14.228  0.00  0.00    +0.000 A 
ENDBRANCH  20  22
ENDBRANCH   4  20
TORSDOF 6
ENDMDL
MODEL 9
REMARK VINA RESULT:      -7.8      4.242      7.538
REMARK  Name = 
REMARK  6 active torsions:
REMARK  status: ('A' for Active; 'I' for Inactive)
REMARK    1  A    between atoms: C_2  and  N_3
REMARK    2  A    between atoms: C_2  and  N_17
REMARK    3  A    between atoms: N_3  and  C_4
REMARK    4  A    between atoms: C_7  and  N_8
REMARK    5  A    between atoms: N_8  and  C_9
REMARK    6  A    between atoms: N_17  and  C_18
REMARK                            x       y       z     vdW  Elec       q    Type
REMARK                         _______ _______ _______ _____ _____    ______ ____
ROOT
ATOM      1  C   UNL     1       4.589   5.698  18.929  0.00  0.00    +0.000 A 
ATOM      2  C   UNL     1       5.878   5.166  19.057  0.00  0.00    +0.000 A 
ATOM      3  C   UNL     1       6.740   5.097  17.962  0.00  0.00    +0.000 A 
ATOM      4  C   UNL     1       6.316   5.527  16.704  0.00  0.00    +0.000 A 
ATOM      5  C   UNL     1       5.017   6.044  16.578  0.00  0.00    +0.000 A 
ATOM      6  C   UNL     1       4.147   6.103  17.675  0.00  0.00    +0.000 A 
ENDROOT
BRANCH   1   7
ATOM      7  N   UNL     1       3.714   5.808  20.035  0.00  0.00    +0.000 N 
ATOM      8  H   UNL     1       4.126   5.727  20.959  0.00  0.00    +0.000 HD
BRANCH   7  10
ATOM      9  S   UNL     1       2.016   7.749  19.476  0.00  0.00    +0.000 S 
ATOM     10  C   UNL     1       2.397   6.217  19.994  0.00  0.00    +0.000 C 
BRANCH  10  11
ATOM     11  N   UNL     1       1.526   5.277  20.471  0.00  0.00    +0.000 N 
ATOM     12  H   UNL     1       0.785   5.680  21.031  0.00  0.00    +0.000 HD
BRANCH  11  13
ATOM     13  C   UNL     1       1.512   3.814  20.351  0.00  0.00    +0.000 C 
ATOM     14  C   UNL     1       0.842   3.471  19.008  0.00  0.00    +0.000 C 
ATOM     15  C   UNL     1       1.714   3.756  17.782  0.00  0.00    +0.000 C 
ATOM     16  C   UNL     1       2.565   2.559  17.373  0.00  0.00    +0.000 C 
ATOM     17  C   UNL     1       3.661   2.179  18.361  0.00  0.00    +0.000 C 
ATOM     18  C   UNL     1       3.190   1.912  19.790  0.00  0.00    +0.000 C 
ATOM     19  C   UNL     1       2.899   3.194  20.571  0.00  0.00    +0.000 C 
ENDBRANCH  11  13
ENDBRANCH  10  11
ENDBRANCH   7  10
ENDBRANCH   1   7
BRANCH   4  20
ATOM     20  N   UNL     1       7.218   5.505  15.617  0.00  0.00    +0.000 N 
ATOM     21  H   UNL     1       8.175   5.342  15.914  0.00  0.00    +0.000 HD
BRANCH  20  22
ATOM     22  C   UNL     1       7.005   4.892  14.361  0.00  0.00    +0.000 A 
ATOM     23  C   UNL     1       5.949   3.986  14.222  0.00  0.00    +0.000 A 
ATOM     24  C   UNL     1       5.686   3.383  12.990  0.00  0.00    +0.000 A 
ATOM     25  C   UNL     1       6.462   3.703  11.878  0.00  0.00    +0.000 A 
ATOM     26  C   UNL     1       7.492   4.634  11.995  0.00  0.00    +0.000 A 
ATOM     27  C   UNL     1       7.756   5.232  13.228  0.00  0.00    +0.000 A 
ENDBRANCH  20  22
ENDBRANCH   4  20
TORSDOF 6
ENDMDL
