MODEL 1
REMARK VINA RESULT:      -8.9      0.000      0.000
REMARK  Name = 
REMARK  3 active torsions:
REMARK  status: ('A' for Active; 'I' for Inactive)
REMARK    1  A    between atoms: S_2  and  N_4
REMARK    2  A    between atoms: S_2  and  C_14
REMARK    3  A    between atoms: C_18  and  C_19
REMARK                            x       y       z     vdW  Elec       q    Type
REMARK                         _______ _______ _______ _____ _____    ______ ____
ROOT
ATOM      1  O   UNL     1       4.899   6.076  16.126  0.00  0.00    +0.000 OA
ATOM      2  S   UNL     1       6.240   5.533  16.138  0.00  0.00    +0.000 S 
ATOM      3  O   UNL     1       7.366   6.365  16.515  0.00  0.00    +0.000 OA
ENDROOT
BRANCH   2   4
ATOM      4  N   UNL     1       6.362   4.183  17.157  0.00  0.00    +0.000 N 
ATOM      5  C   UNL     1       5.172   3.996  17.891  0.00  0.00    +0.000 A 
ATOM      6  N   UNL     1       4.223   3.226  17.415  0.00  0.00    +0.000 NA
ATOM      7  C   UNL     1       3.190   3.177  18.327  0.00  0.00    +0.000 A 
ATOM      8  C   UNL     1       3.369   3.921  19.476  0.00  0.00    +0.000 A 
ATOM      9  S   UNL     1       4.919   4.636  19.467  0.00  0.00    +0.000 S 
ATOM     10  C   UNL     1       2.352   4.096  20.556  0.00  0.00    +0.000 C 
ATOM     11  C   UNL     1       1.239   3.038  20.422  0.00  0.00    +0.000 C 
ATOM     12  C   UNL     1       0.804   2.824  18.960  0.00  0.00    +0.000 C 
ATOM     13  C   UNL     1       1.974   2.352  18.083  0.00  0.00    +0.000 C 
ATOM     14  H   UNL     1       7.155   4.387  17.770  0.00  0.00    +0.000 HD
ENDBRANCH   2   4
BRANCH   2  15
ATOM     15  C   UNL     1       6.565   4.896  14.509  0.00  0.00    +0.000 A 
ATOM     16  C   UNL     1       7.751   5.253  13.857  0.00  0.00    +0.000 A 
ATOM     17  C   UNL     1       7.934   4.913  12.515  0.00  0.00    +0.000 A 
ATOM     18  C   UNL     1       6.936   4.221  11.827  0.00  0.00    +0.000 A 
ATOM     19  C   UNL     1       5.744   3.847  12.472  0.00  0.00    +0.000 A 
ATOM     20  C   UNL     1       5.565   4.187  13.826  0.00  0.00    +0.000 A 
BRANCH  19  21
ATOM     21  C   UNL     1       4.658   3.127  11.706  0.00  0.00    +0.000 C 
ATOM     22  F   UNL     1       4.262   3.788  10.582  0.00  0.00    +0.000 F 
ATOM     23  F   UNL     1       5.042   1.889  11.289  0.00  0.00    +0.000 F 
ATOM     24  F   UNL     1       3.529   2.945  12.444  0.00  0.00    +0.000 F 
ENDBRANCH  19  21
ENDBRANCH   2  15
TORSDOF 3
ENDMDL
MODEL 2
REMARK VINA RESULT:      -8.1      1.315      1.939
REMARK  Name = 
REMARK  3 active torsions:
REMARK  status: ('A' for Active; 'I' for Inactive)
REMARK    1  A    between atoms: S_2  and  N_4
REMARK    2  A    between atoms: S_2  and  C_14
REMARK    3  A    between atoms: C_18  and  C_19
REMARK                            x       y       z     vdW  Elec       q    Type
REMARK                         _______ _______ _______ _____ _____    ______ ____
ROOT
ATOM      1  O   UNL     1       6.904   6.524  16.664  0.00  0.00    +0.000 OA
ATOM      2  S   UNL     1       6.113   5.343  16.392  0.00  0.00    +0.000 S 
ATOM      3  O   UNL     1       6.215   4.178  17.248  0.00  0.00    +0.000 OA
ENDROOT
BRANCH   2   4
ATOM      4  N   UNL     1       4.455   5.690  16.358  0.00  0.00    +0.000 N 
ATOM      5  C   UNL     1       3.769   4.978  17.364  0.00  0.00    +0.000 A 
ATOM      6  N   UNL     1       3.594   5.519  18.546  0.00  0.00    +0.000 NA
ATOM      7  C   UNL     1       2.871   4.647  19.332  0.00  0.00    +0.000 A 
ATOM      8  C   UNL     1       2.519   3.453  18.735  0.00  0.00    +0.000 A 
ATOM      9  S   UNL     1       3.025   3.449  17.105  0.00  0.00    +0.000 S 
ATOM     10  C   UNL     1       1.821   2.322  19.417  0.00  0.00    +0.000 C 
ATOM     11  C   UNL     1       1.197   2.798  20.743  0.00  0.00    +0.000 C 
ATOM     12  C   UNL     1       2.133   3.733  21.532  0.00  0.00    +0.000 C 
ATOM     13  C   UNL     1       2.483   4.995  20.727  0.00  0.00    +0.000 C 
ATOM     14  H   UNL     1       4.147   5.413  15.423  0.00  0.00    +0.000 HD
ENDBRANCH   2   4
BRANCH   2  15
ATOM     15  C   UNL     1       6.498   4.824  14.734  0.00  0.00    +0.000 A 
ATOM     16  C   UNL     1       7.686   5.260  14.136  0.00  0.00    +0.000 A 
ATOM     17  C   UNL     1       7.912   5.014  12.782  0.00  0.00    +0.000 A 
ATOM     18  C   UNL     1       6.956   4.336  12.025  0.00  0.00    +0.000 A 
ATOM     19  C   UNL     1       5.762   3.882  12.613  0.00  0.00    +0.000 A 
ATOM     20  C   UNL     1       5.540   4.128  13.981  0.00  0.00    +0.000 A 
BRANCH  19  21
ATOM     21  C   UNL     1       4.720   3.179  11.775  0.00  0.00    +0.000 C 
ATOM     22  F   UNL     1       3.566   2.921  12.452  0.00  0.00    +0.000 F 
ATOM     23  F   UNL     1       4.353   3.899  10.680  0.00  0.00    +0.000 F 
ATOM     24  F   UNL     1       5.150   1.974  11.308  0.00  0.00    +0.000 F 
ENDBRANCH  19  21
ENDBRANCH   2  15
TORSDOF 3
ENDMDL
MODEL 3
REMARK VINA RESULT:      -7.8      4.021      7.445
REMARK  Name = 
REMARK  3 active torsions:
REMARK  status: ('A' for Active; 'I' for Inactive)
REMARK    1  A    between atoms: S_2  and  N_4
REMARK    2  A    between atoms: S_2  and  C_14
REMARK    3  A    between atoms: C_18  and  C_19
REMARK                            x       y       z     vdW  Elec       q    Type
REMARK                         _______ _______ _______ _____ _____    ______ ____
ROOT
ATOM      1  O   UNL     1       6.095   5.909  19.590  0.00  0.00    +0.000 OA
ATOM      2  S   UNL     1       5.643   5.442  18.297  0.00  0.00    +0.000 S 
ATOM      3  O   UNL     1       5.490   6.370  17.195  0.00  0.00    +0.000 OA
ENDROOT
BRANCH   2   4
ATOM      4  N   UNL     1       6.649   4.226  17.681  0.00  0.00    +0.000 N 
ATOM      5  C   UNL     1       6.642   4.232  16.270  0.00  0.00    +0.000 A 
ATOM      6  N   UNL     1       7.530   4.939  15.613  0.00  0.00    +0.000 NA
ATOM      7  C   UNL     1       7.337   4.751  14.260  0.00  0.00    +0.000 A 
ATOM      8  C   UNL     1       6.298   3.910  13.915  0.00  0.00    +0.000 A 
ATOM      9  S   UNL     1       5.589   3.255  15.323  0.00  0.00    +0.000 S 
ATOM     10  C   UNL     1       5.843   3.632  12.519  0.00  0.00    +0.000 C 
ATOM     11  C   UNL     1       6.914   4.082  11.506  0.00  0.00    +0.000 C 
ATOM     12  C   UNL     1       7.536   5.442  11.873  0.00  0.00    +0.000 C 
ATOM     13  C   UNL     1       8.217   5.401  13.251  0.00  0.00    +0.000 C 
ATOM     14  H   UNL     1       6.270   3.354  18.056  0.00  0.00    +0.000 HD
ENDBRANCH   2   4
BRANCH   2  15
ATOM     15  C   UNL     1       4.073   4.643  18.547  0.00  0.00    +0.000 A 
ATOM     16  C   UNL     1       3.100   4.712  17.543  0.00  0.00    +0.000 A 
ATOM     17  C   UNL     1       1.808   4.251  17.797  0.00  0.00    +0.000 A 
ATOM     18  C   UNL     1       1.487   3.723  19.048  0.00  0.00    +0.000 A 
ATOM     19  C   UNL     1       2.456   3.636  20.063  0.00  0.00    +0.000 A 
ATOM     20  C   UNL     1       3.760   4.098  19.801  0.00  0.00    +0.000 A 
BRANCH  19  21
ATOM     21  C   UNL     1       2.086   3.093  21.424  0.00  0.00    +0.000 C 
ATOM     22  F   UNL     1       2.809   1.993  21.780  0.00  0.00    +0.000 F 
ATOM     23  F   UNL     1       2.276   3.999  22.421  0.00  0.00    +0.000 F 
ATOM     24  F   UNL     1       0.780   2.715  21.499  0.00  0.00    +0.000 F 
ENDBRANCH  19  21
ENDBRANCH   2  15
TORSDOF 3
ENDMDL
MODEL 4
REMARK VINA RESULT:      -7.7      3.142      6.650
REMARK  Name = 
REMARK  3 active torsions:
REMARK  status: ('A' for Active; 'I' for Inactive)
REMARK    1  A    between atoms: S_2  and  N_4
REMARK    2  A    between atoms: S_2  and  C_14
REMARK    3  A    between atoms: C_18  and  C_19
REMARK                            x       y       z     vdW  Elec       q    Type
REMARK                         _______ _______ _______ _____ _____    ______ ____
ROOT
ATOM      1  O   UNL     1       6.602   5.523  19.925  0.00  0.00    +0.000 OA
ATOM      2  S   UNL     1       6.323   5.470  18.506  0.00  0.00    +0.000 S 
ATOM      3  O   UNL     1       6.617   6.608  17.657  0.00  0.00    +0.000 OA
ENDROOT
BRANCH   2   4
ATOM      4  N   UNL     1       7.120   4.175  17.756  0.00  0.00    +0.000 N 
ATOM      5  C   UNL     1       6.930   4.207  16.359  0.00  0.00    +0.000 A 
ATOM      6  N   UNL     1       7.789   4.839  15.595  0.00  0.00    +0.000 NA
ATOM      7  C   UNL     1       7.405   4.693  14.278  0.00  0.00    +0.000 A 
ATOM      8  C   UNL     1       6.254   3.961  14.067  0.00  0.00    +0.000 A 
ATOM      9  S   UNL     1       5.674   3.352  15.553  0.00  0.00    +0.000 S 
ATOM     10  C   UNL     1       5.597   3.752  12.742  0.00  0.00    +0.000 C 
ATOM     11  C   UNL     1       6.566   4.117  11.600  0.00  0.00    +0.000 C 
ATOM     12  C   UNL     1       7.359   5.406  11.889  0.00  0.00    +0.000 C 
ATOM     13  C   UNL     1       8.205   5.276  13.166  0.00  0.00    +0.000 C 
ATOM     14  H   UNL     1       6.710   3.337  18.174  0.00  0.00    +0.000 HD
ENDBRANCH   2   4
BRANCH   2  15
ATOM     15  C   UNL     1       4.592   5.099  18.324  0.00  0.00    +0.000 A 
ATOM     16  C   UNL     1       3.698   6.129  18.012  0.00  0.00    +0.000 A 
ATOM     17  C   UNL     1       2.324   5.890  18.047  0.00  0.00    +0.000 A 
ATOM     18  C   UNL     1       1.843   4.626  18.394  0.00  0.00    +0.000 A 
ATOM     19  C   UNL     1       2.729   3.578  18.699  0.00  0.00    +0.000 A 
ATOM     20  C   UNL     1       4.114   3.822  18.658  0.00  0.00    +0.000 A 
BRANCH  19  21
ATOM     21  C   UNL     1       2.194   2.224  19.105  0.00  0.00    +0.000 C 
ATOM     22  F   UNL     1       1.026   1.897  18.484  0.00  0.00    +0.000 F 
ATOM     23  F   UNL     1       3.059   1.211  18.822  0.00  0.00    +0.000 F 
ATOM     24  F   UNL     1       1.938   2.141  20.440  0.00  0.00    +0.000 F 
ENDBRANCH  19  21
ENDBRANCH   2  15
TORSDOF 3
ENDMDL
MODEL 5
REMARK VINA RESULT:      -7.5      0.952      1.369
REMARK  Name = 
REMARK  3 active torsions:
REMARK  status: ('A' for Active; 'I' for Inactive)
REMARK    1  A    between atoms: S_2  and  N_4
REMARK    2  A    between atoms: S_2  and  C_14
REMARK    3  A    between atoms: C_18  and  C_19
REMARK                            x       y       z     vdW  Elec       q    Type
REMARK                         _______ _______ _______ _____ _____    ______ ____
ROOT
ATOM      1  O   UNL     1       4.776   5.657  15.952  0.00  0.00    +0.000 OA
ATOM      2  S   UNL     1       5.956   4.831  16.090  0.00  0.00    +0.000 S 
ATOM      3  O   UNL     1       7.064   5.267  16.917  0.00  0.00    +0.000 OA
ENDROOT
BRANCH   2   4
ATOM      4  N   UNL     1       5.578   3.288  16.682  0.00  0.00    +0.000 N 
ATOM      5  C   UNL     1       4.608   3.364  17.703  0.00  0.00    +0.000 A 
ATOM      6  N   UNL     1       3.334   3.277  17.404  0.00  0.00    +0.000 NA
ATOM      7  C   UNL     1       2.598   3.341  18.569  0.00  0.00    +0.000 A 
ATOM      8  C   UNL     1       3.328   3.485  19.731  0.00  0.00    +0.000 A 
ATOM      9  S   UNL     1       4.997   3.449  19.376  0.00  0.00    +0.000 S 
ATOM     10  C   UNL     1       2.747   3.670  21.096  0.00  0.00    +0.000 C 
ATOM     11  C   UNL     1       1.254   3.289  21.099  0.00  0.00    +0.000 C 
ATOM     12  C   UNL     1       0.511   3.806  19.852  0.00  0.00    +0.000 C 
ATOM     13  C   UNL     1       1.113   3.236  18.558  0.00  0.00    +0.000 C 
ATOM     14  H   UNL     1       6.464   2.915  17.030  0.00  0.00    +0.000 HD
ENDBRANCH   2   4
BRANCH   2  15
ATOM     15  C   UNL     1       6.590   4.542  14.453  0.00  0.00    +0.000 A 
ATOM     16  C   UNL     1       7.494   5.454  13.895  0.00  0.00    +0.000 A 
ATOM     17  C   UNL     1       7.855   5.339  12.553  0.00  0.00    +0.000 A 
ATOM     18  C   UNL     1       7.317   4.318  11.768  0.00  0.00    +0.000 A 
ATOM     19  C   UNL     1       6.416   3.387  12.317  0.00  0.00    +0.000 A 
ATOM     20  C   UNL     1       6.058   3.503  13.673  0.00  0.00    +0.000 A 
BRANCH  19  21
ATOM     21  C   UNL     1       5.816   2.307  11.448  0.00  0.00    +0.000 C 
ATOM     22  F   UNL     1       5.592   1.139  12.115  0.00  0.00    +0.000 F 
ATOM     23  F   UNL     1       4.614   2.666  10.918  0.00  0.00    +0.000 F 
ATOM     24  F   UNL     1       6.612   1.981  10.392  0.00  0.00    +0.000 F 
ENDBRANCH  19  21
ENDBRANCH   2  15
TORSDOF 3
ENDMDL
MODEL 6
REMARK VINA RESULT:      -7.3      3.687      6.797
REMARK  Name = 
REMARK  3 active torsions:
REMARK  status: ('A' for Active; 'I' for Inactive)
REMARK    1  A    between atoms: S_2  and  N_4
REMARK    2  A    between atoms: S_2  and  C_14
REMARK    3  A    between atoms: C_18  and  C_19
REMARK                            x       y       z     vdW  Elec       q    Type
REMARK                         _______ _______ _______ _____ _____    ______ ____
ROOT
ATOM      1  O   UNL     1       7.283   5.712  20.104  0.00  0.00    +0.000 OA
ATOM      2  S   UNL     1       7.047   5.746  18.676  0.00  0.00    +0.000 S 
ATOM      3  O   UNL     1       7.669   6.764  17.854  0.00  0.00    +0.000 OA
ENDROOT
BRANCH   2   4
ATOM      4  N   UNL     1       7.485   4.286  17.933  0.00  0.00    +0.000 N 
ATOM      5  C   UNL     1       7.078   4.267  16.582  0.00  0.00    +0.000 A 
ATOM      6  N   UNL     1       7.895   4.688  15.646  0.00  0.00    +0.000 NA
ATOM      7  C   UNL     1       7.284   4.534  14.419  0.00  0.00    +0.000 A 
ATOM      8  C   UNL     1       6.008   4.008  14.448  0.00  0.00    +0.000 A 
ATOM      9  S   UNL     1       5.584   3.602  16.051  0.00  0.00    +0.000 S 
ATOM     10  C   UNL     1       5.119   3.839  13.258  0.00  0.00    +0.000 C 
ATOM     11  C   UNL     1       5.937   3.956  11.957  0.00  0.00    +0.000 C 
ATOM     12  C   UNL     1       6.970   5.097  12.011  0.00  0.00    +0.000 C 
ATOM     13  C   UNL     1       7.979   4.896  13.153  0.00  0.00    +0.000 C 
ATOM     14  H   UNL     1       7.014   3.561  18.479  0.00  0.00    +0.000 HD
ENDBRANCH   2   4
BRANCH   2  15
ATOM     15  C   UNL     1       5.288   5.863  18.436  0.00  0.00    +0.000 A 
ATOM     16  C   UNL     1       4.781   6.787  17.516  0.00  0.00    +0.000 A 
ATOM     17  C   UNL     1       3.407   7.019  17.450  0.00  0.00    +0.000 A 
ATOM     18  C   UNL     1       2.541   6.330  18.301  0.00  0.00    +0.000 A 
ATOM     19  C   UNL     1       3.034   5.391  19.224  0.00  0.00    +0.000 A 
ATOM     20  C   UNL     1       4.420   5.157  19.283  0.00  0.00    +0.000 A 
BRANCH  19  21
ATOM     21  C   UNL     1       2.088   4.677  20.162  0.00  0.00    +0.000 C 
ATOM     22  F   UNL     1       2.672   3.648  20.839  0.00  0.00    +0.000 F 
ATOM     23  F   UNL     1       1.573   5.501  21.115  0.00  0.00    +0.000 F 
ATOM     24  F   UNL     1       1.021   4.133  19.515  0.00  0.00    +0.000 F 
ENDBRANCH  19  21
ENDBRANCH   2  15
TORSDOF 3
ENDMDL
MODEL 7
REMARK VINA RESULT:      -7.3      4.950      5.772
REMARK  Name = 
REMARK  3 active torsions:
REMARK  status: ('A' for Active; 'I' for Inactive)
REMARK    1  A    between atoms: S_2  and  N_4
REMARK    2  A    between atoms: S_2  and  C_14
REMARK    3  A    between atoms: C_18  and  C_19
REMARK                            x       y       z     vdW  Elec       q    Type
REMARK                         _______ _______ _______ _____ _____    ______ ____
ROOT
ATOM      1  O   UNL     1       5.034   4.435  16.366  0.00  0.00    +0.000 OA
ATOM      2  S   UNL     1       5.105   5.880  16.368  0.00  0.00    +0.000 S 
ATOM      3  O   UNL     1       5.179   6.613  15.120  0.00  0.00    +0.000 OA
ENDROOT
BRANCH   2   4
ATOM      4  N   UNL     1       3.788   6.573  17.180  0.00  0.00    +0.000 N 
ATOM      5  C   UNL     1       3.160   5.629  18.020  0.00  0.00    +0.000 A 
ATOM      6  N   UNL     1       3.536   5.513  19.271  0.00  0.00    +0.000 NA
ATOM      7  C   UNL     1       2.753   4.558  19.884  0.00  0.00    +0.000 A 
ATOM      8  C   UNL     1       1.801   3.960  19.083  0.00  0.00    +0.000 A 
ATOM      9  S   UNL     1       1.817   4.673  17.532  0.00  0.00    +0.000 S 
ATOM     10  C   UNL     1       0.906   2.839  19.501  0.00  0.00    +0.000 C 
ATOM     11  C   UNL     1       0.901   2.699  21.036  0.00  0.00    +0.000 C 
ATOM     12  C   UNL     1       2.308   2.849  21.645  0.00  0.00    +0.000 C 
ATOM     13  C   UNL     1       2.920   4.223  21.325  0.00  0.00    +0.000 C 
ATOM     14  H   UNL     1       3.162   6.895  16.439  0.00  0.00    +0.000 HD
ENDBRANCH   2   4
BRANCH   2  15
ATOM     15  C   UNL     1       6.523   6.336  17.342  0.00  0.00    +0.000 A 
ATOM     16  C   UNL     1       7.039   5.425  18.271  0.00  0.00    +0.000 A 
ATOM     17  C   UNL     1       8.029   5.833  19.166  0.00  0.00    +0.000 A 
ATOM     18  C   UNL     1       8.503   7.145  19.133  0.00  0.00    +0.000 A 
ATOM     19  C   UNL     1       8.003   8.069  18.197  0.00  0.00    +0.000 A 
ATOM     20  C   UNL     1       7.008   7.652  17.294  0.00  0.00    +0.000 A 
BRANCH  19  21
ATOM     21  C   UNL     1       8.502   9.495  18.195  0.00  0.00    +0.000 C 
ATOM     22  F   UNL     1       7.558  10.397  17.805  0.00  0.00    +0.000 F 
ATOM     23  F   UNL     1       8.921   9.907  19.423  0.00  0.00    +0.000 F 
ATOM     24  F   UNL     1       9.557   9.679  17.354  0.00  0.00    +0.000 F 
ENDBRANCH  19  21
ENDBRANCH   2  15
TORSDOF 3
ENDMDL
MODEL 8
REMARK VINA RESULT:      -7.2      1.488      1.810
REMARK  Name = 
REMARK  3 active torsions:
REMARK  status: ('A' for Active; 'I' for Inactive)
REMARK    1  A    between atoms: S_2  and  N_4
REMARK    2  A    between atoms: S_2  and  C_14
REMARK    3  A    between atoms: C_18  and  C_19
REMARK                            x       y       z     vdW  Elec       q    Type
REMARK                         _______ _______ _______ _____ _____    ______ ____
ROOT
ATOM      1  O   UNL     1       5.470   5.903  14.768  0.00  0.00    +0.000 OA
ATOM      2  S   UNL     1       6.578   4.979  14.648  0.00  0.00    +0.000 S 
ATOM      3  O   UNL     1       7.928   5.473  14.468  0.00  0.00    +0.000 OA
ENDROOT
BRANCH   2   4
ATOM      4  N   UNL     1       6.686   3.950  15.991  0.00  0.00    +0.000 N 
ATOM      5  C   UNL     1       5.617   4.174  16.884  0.00  0.00    +0.000 A 
ATOM      6  N   UNL     1       4.511   3.479  16.769  0.00  0.00    +0.000 NA
ATOM      7  C   UNL     1       3.643   3.853  17.773  0.00  0.00    +0.000 A 
ATOM      8  C   UNL     1       4.104   4.835  18.627  0.00  0.00    +0.000 A 
ATOM      9  S   UNL     1       5.712   5.244  18.227  0.00  0.00    +0.000 S 
ATOM     10  C   UNL     1       3.308   5.463  19.725  0.00  0.00    +0.000 C 
ATOM     11  C   UNL     1       2.060   4.615  20.037  0.00  0.00    +0.000 C 
ATOM     12  C   UNL     1       1.367   4.097  18.762  0.00  0.00    +0.000 C 
ATOM     13  C   UNL     1       2.307   3.214  17.925  0.00  0.00    +0.000 C 
ATOM     14  H   UNL     1       7.588   4.171  16.419  0.00  0.00    +0.000 HD
ENDBRANCH   2   4
BRANCH   2  15
ATOM     15  C   UNL     1       6.215   3.898  13.282  0.00  0.00    +0.000 A 
ATOM     16  C   UNL     1       7.243   3.134  12.719  0.00  0.00    +0.000 A 
ATOM     17  C   UNL     1       7.016   2.426  11.538  0.00  0.00    +0.000 A 
ATOM     18  C   UNL     1       5.765   2.481  10.921  0.00  0.00    +0.000 A 
ATOM     19  C   UNL     1       4.718   3.235  11.480  0.00  0.00    +0.000 A 
ATOM     20  C   UNL     1       4.951   3.944  12.673  0.00  0.00    +0.000 A 
BRANCH  19  21
ATOM     21  C   UNL     1       3.380   3.312  10.783  0.00  0.00    +0.000 C 
ATOM     22  F   UNL     1       3.341   2.619   9.610  0.00  0.00    +0.000 F 
ATOM     23  F   UNL     1       2.364   2.814  11.540  0.00  0.00    +0.000 F 
ATOM     24  F   UNL     1       3.026   4.588  10.468  0.00  0.00    +0.000 F 
ENDBRANCH  19  21
ENDBRANCH   2  15
TORSDOF 3
ENDMDL
MODEL 9
REMARK VINA RESULT:      -7.2      1.461      1.820
REMARK  Name = 
REMARK  3 active torsions:
REMARK  status: ('A' for Active; 'I' for Inactive)
REMARK    1  A    between atoms: S_2  and  N_4
REMARK    2  A    between atoms: S_2  and  C_14
REMARK    3  A    between atoms: C_18  and  C_19
REMARK                            x       y       z     vdW  Elec       q    Type
REMARK                         _______ _______ _______ _____ _____    ______ ____
ROOT
ATOM      1  O   UNL     1       5.655   6.476  15.921  0.00  0.00    +0.000 OA
ATOM      2  S   UNL     1       5.784   5.035  15.884  0.00  0.00    +0.000 S 
ATOM      3  O   UNL     1       6.535   4.339  16.909  0.00  0.00    +0.000 OA
ENDROOT
BRANCH   2   4
ATOM      4  N   UNL     1       4.271   4.269  15.884  0.00  0.00    +0.000 N 
ATOM      5  C   UNL     1       3.823   4.038  17.202  0.00  0.00    +0.000 A 
ATOM      6  N   UNL     1       3.080   4.934  17.807  0.00  0.00    +0.000 NA
ATOM      7  C   UNL     1       2.744   4.462  19.059  0.00  0.00    +0.000 A 
ATOM      8  C   UNL     1       3.249   3.219  19.385  0.00  0.00    +0.000 A 
ATOM      9  S   UNL     1       4.097   2.570  18.053  0.00  0.00    +0.000 S 
ATOM     10  C   UNL     1       3.098   2.550  20.712  0.00  0.00    +0.000 C 
ATOM     11  C   UNL     1       1.988   3.233  21.535  0.00  0.00    +0.000 C 
ATOM     12  C   UNL     1       2.039   4.769  21.430  0.00  0.00    +0.000 C 
ATOM     13  C   UNL     1       1.874   5.245  19.978  0.00  0.00    +0.000 C 
ATOM     14  H   UNL     1       4.420   3.393  15.378  0.00  0.00    +0.000 HD
ENDBRANCH   2   4
BRANCH   2  15
ATOM     15  C   UNL     1       6.502   4.612  14.312  0.00  0.00    +0.000 A 
ATOM     16  C   UNL     1       7.460   5.459  13.745  0.00  0.00    +0.000 A 
ATOM     17  C   UNL     1       7.894   5.238  12.437  0.00  0.00    +0.000 A 
ATOM     18  C   UNL     1       7.373   4.175  11.698  0.00  0.00    +0.000 A 
ATOM     19  C   UNL     1       6.418   3.309  12.258  0.00  0.00    +0.000 A 
ATOM     20  C   UNL     1       5.986   3.532  13.578  0.00  0.00    +0.000 A 
BRANCH  19  21
ATOM     21  C   UNL     1       5.838   2.182  11.434  0.00  0.00    +0.000 C 
ATOM     22  F   UNL     1       6.602   1.853  10.355  0.00  0.00    +0.000 F 
ATOM     23  F   UNL     1       5.692   1.032  12.147  0.00  0.00    +0.000 F 
ATOM     24  F   UNL     1       4.606   2.478  10.937  0.00  0.00    +0.000 F 
ENDBRANCH  19  21
ENDBRANCH   2  15
TORSDOF 3
ENDMDL
