MODEL 1
REMARK VINA RESULT:      -6.4      0.000      0.000
REMARK  Name = 
REMARK  5 active torsions:
REMARK  status: ('A' for Active; 'I' for Inactive)
REMARK    1  A    between atoms: C_1  and  C_2
REMARK    2  A    between atoms: C_2  and  C_3
REMARK    3  A    between atoms: N_8  and  C_9
REMARK    4  A    between atoms: C_9  and  N_11
REMARK    5  A    between atoms: C_12  and  C_14
REMARK                            x       y       z     vdW  Elec       q    Type
REMARK                         _______ _______ _______ _____ _____    ______ ____
ROOT
ATOM      1  C   UNL     1       4.790   4.349  17.654  0.00  0.00    +0.000 C 
ATOM      2  S   UNL     1       5.928   4.953  18.736  0.00  0.00    +0.000 S 
ENDROOT
BRANCH   1   8
ATOM      3  C   UNL     1       2.279   4.773  18.114  0.00  0.00    +0.000 C 
ATOM      4  C   UNL     1       1.333   4.282  19.241  0.00  0.00    +0.000 C 
ATOM      5  C   UNL     1       1.046   2.790  19.198  0.00  0.00    +0.000 C 
ATOM      6  C   UNL     1       2.350   2.010  19.177  0.00  0.00    +0.000 C 
ATOM      7  C   UNL     1       3.229   2.472  18.026  0.00  0.00    +0.000 C 
ATOM      8  N   UNL     1       3.508   3.924  18.063  0.00  0.00    +0.000 N 
BRANCH   3  10
ATOM      9  C   UNL     1       2.366   6.800  19.737  0.00  0.00    +0.000 C 
ATOM     10  C   UNL     1       2.460   6.302  18.301  0.00  0.00    +0.000 C 
ENDBRANCH   3  10
ENDBRANCH   1   8
BRANCH   1  11
ATOM     11  N   UNL     1       5.021   4.205  16.292  0.00  0.00    +0.000 N 
ATOM     12  C   UNL     1       5.515   5.117  15.358  0.00  0.00    +0.000 C 
ATOM     13  O   UNL     1       5.472   6.336  15.511  0.00  0.00    +0.000 OA
ATOM     14  H   UNL     1       5.002   3.246  15.977  0.00  0.00    +0.000 HD
BRANCH  12  15
ATOM     15  C   UNL     1       5.971   4.534  14.094  0.00  0.00    +0.000 A 
ATOM     16  C   UNL     1       5.277   3.639  13.299  0.00  0.00    +0.000 A 
ATOM     17  C   UNL     1       5.983   3.293  12.111  0.00  0.00    +0.000 A 
ATOM     18  C   UNL     1       7.204   3.922  12.039  0.00  0.00    +0.000 A 
ATOM     19  S   UNL     1       7.498   4.911  13.404  0.00  0.00    +0.000 S 
ENDBRANCH  12  15
ENDBRANCH   1  11
TORSDOF 4
ENDMDL
MODEL 2
REMARK VINA RESULT:      -6.3      1.249      1.425
REMARK  Name = 
REMARK  5 active torsions:
REMARK  status: ('A' for Active; 'I' for Inactive)
REMARK    1  A    between atoms: C_1  and  C_2
REMARK    2  A    between atoms: C_2  and  C_3
REMARK    3  A    between atoms: N_8  and  C_9
REMARK    4  A    between atoms: C_9  and  N_11
REMARK    5  A    between atoms: C_12  and  C_14
REMARK                            x       y       z     vdW  Elec       q    Type
REMARK                         _______ _______ _______ _____ _____    ______ ____
ROOT
ATOM      1  C   UNL     1       5.163   4.764  17.798  0.00  0.00    +0.000 C 
ATOM      2  S   UNL     1       6.038   5.280  19.139  0.00  0.00    +0.000 S 
ENDROOT
BRANCH   1   8
ATOM      3  C   UNL     1       2.575   4.810  17.817  0.00  0.00    +0.000 C 
ATOM      4  C   UNL     1       1.531   4.067  18.690  0.00  0.00    +0.000 C 
ATOM      5  C   UNL     1       1.476   2.568  18.442  0.00  0.00    +0.000 C 
ATOM      6  C   UNL     1       2.863   1.966  18.589  0.00  0.00    +0.000 C 
ATOM      7  C   UNL     1       3.851   2.676  17.678  0.00  0.00    +0.000 C 
ATOM      8  N   UNL     1       3.905   4.135  17.913  0.00  0.00    +0.000 N 
BRANCH   3  10
ATOM      9  C   UNL     1       2.416   6.615  19.678  0.00  0.00    +0.000 C 
ATOM     10  C   UNL     1       2.497   6.314  18.188  0.00  0.00    +0.000 C 
ENDBRANCH   3  10
ENDBRANCH   1   8
BRANCH   1  11
ATOM     11  N   UNL     1       5.607   4.896  16.489  0.00  0.00    +0.000 N 
ATOM     12  C   UNL     1       6.846   4.595  15.921  0.00  0.00    +0.000 C 
ATOM     13  O   UNL     1       7.888   4.516  16.567  0.00  0.00    +0.000 OA
ATOM     14  H   UNL     1       4.866   5.059  15.824  0.00  0.00    +0.000 HD
BRANCH  12  15
ATOM     15  C   UNL     1       6.861   4.515  14.458  0.00  0.00    +0.000 A 
ATOM     16  C   UNL     1       7.733   5.168  13.604  0.00  0.00    +0.000 A 
ATOM     17  C   UNL     1       7.509   4.847  12.234  0.00  0.00    +0.000 A 
ATOM     18  C   UNL     1       6.460   3.970  12.079  0.00  0.00    +0.000 A 
ATOM     19  S   UNL     1       5.747   3.550  13.577  0.00  0.00    +0.000 S 
ENDBRANCH  12  15
ENDBRANCH   1  11
TORSDOF 4
ENDMDL
MODEL 3
REMARK VINA RESULT:      -6.2      2.880      6.211
REMARK  Name = 
REMARK  5 active torsions:
REMARK  status: ('A' for Active; 'I' for Inactive)
REMARK    1  A    between atoms: C_1  and  C_2
REMARK    2  A    between atoms: C_2  and  C_3
REMARK    3  A    between atoms: N_8  and  C_9
REMARK    4  A    between atoms: C_9  and  N_11
REMARK    5  A    between atoms: C_12  and  C_14
REMARK                            x       y       z     vdW  Elec       q    Type
REMARK                         _______ _______ _______ _____ _____    ______ ____
ROOT
ATOM      1  C   UNL     1       3.827   4.079  17.846  0.00  0.00    +0.000 C 
ATOM      2  S   UNL     1       3.436   2.556  18.444  0.00  0.00    +0.000 S 
ENDROOT
BRANCH   1   8
ATOM      3  C   UNL     1       6.341   4.641  17.587  0.00  0.00    +0.000 C 
ATOM      4  C   UNL     1       7.106   5.529  16.572  0.00  0.00    +0.000 C 
ATOM      5  C   UNL     1       7.110   4.980  15.154  0.00  0.00    +0.000 C 
ATOM      6  C   UNL     1       5.687   4.703  14.699  0.00  0.00    +0.000 C 
ATOM      7  C   UNL     1       4.983   3.783  15.684  0.00  0.00    +0.000 C 
ATOM      8  N   UNL     1       4.980   4.312  17.065  0.00  0.00    +0.000 N 
BRANCH   3  10
ATOM      9  C   UNL     1       7.835   5.786  19.378  0.00  0.00    +0.000 C 
ATOM     10  C   UNL     1       6.438   5.337  18.970  0.00  0.00    +0.000 C 
ENDBRANCH   3  10
ENDBRANCH   1   8
BRANCH   1  11
ATOM     11  N   UNL     1       3.069   5.219  18.081  0.00  0.00    +0.000 N 
ATOM     12  C   UNL     1       2.823   5.911  19.268  0.00  0.00    +0.000 C 
ATOM     13  O   UNL     1       2.929   5.406  20.383  0.00  0.00    +0.000 OA
ATOM     14  H   UNL     1       2.815   5.718  17.241  0.00  0.00    +0.000 HD
BRANCH  12  15
ATOM     15  C   UNL     1       2.285   7.264  19.104  0.00  0.00    +0.000 A 
ATOM     16  C   UNL     1       2.298   8.024  17.948  0.00  0.00    +0.000 A 
ATOM     17  C   UNL     1       1.657   9.286  18.109  0.00  0.00    +0.000 A 
ATOM     18  C   UNL     1       1.186   9.461  19.390  0.00  0.00    +0.000 A 
ATOM     19  S   UNL     1       1.529   8.116  20.389  0.00  0.00    +0.000 S 
ENDBRANCH  12  15
ENDBRANCH   1  11
TORSDOF 4
ENDMDL
MODEL 4
REMARK VINA RESULT:      -6.1      2.818      6.297
REMARK  Name = 
REMARK  5 active torsions:
REMARK  status: ('A' for Active; 'I' for Inactive)
REMARK    1  A    between atoms: C_1  and  C_2
REMARK    2  A    between atoms: C_2  and  C_3
REMARK    3  A    between atoms: N_8  and  C_9
REMARK    4  A    between atoms: C_9  and  N_11
REMARK    5  A    between atoms: C_12  and  C_14
REMARK                            x       y       z     vdW  Elec       q    Type
REMARK                         _______ _______ _______ _____ _____    ______ ____
ROOT
ATOM      1  C   UNL     1       4.686   4.788  18.319  0.00  0.00    +0.000 C 
ATOM      2  S   UNL     1       4.626   3.630  19.538  0.00  0.00    +0.000 S 
ENDROOT
BRANCH   1   8
ATOM      3  C   UNL     1       7.001   4.924  17.169  0.00  0.00    +0.000 C 
ATOM      4  C   UNL     1       7.433   5.416  15.763  0.00  0.00    +0.000 C 
ATOM      5  C   UNL     1       6.949   4.532  14.625  0.00  0.00    +0.000 C 
ATOM      6  C   UNL     1       5.444   4.343  14.717  0.00  0.00    +0.000 C 
ATOM      7  C   UNL     1       5.058   3.804  16.085  0.00  0.00    +0.000 C 
ATOM      8  N   UNL     1       5.531   4.659  17.195  0.00  0.00    +0.000 N 
BRANCH   3  10
ATOM      9  C   UNL     1       7.675   7.370  17.729  0.00  0.00    +0.000 C 
ATOM     10  C   UNL     1       7.577   5.926  18.203  0.00  0.00    +0.000 C 
ENDBRANCH   3  10
ENDBRANCH   1   8
BRANCH   1  11
ATOM     11  N   UNL     1       3.934   5.955  18.326  0.00  0.00    +0.000 N 
ATOM     12  C   UNL     1       2.552   6.139  18.270  0.00  0.00    +0.000 C 
ATOM     13  O   UNL     1       1.773   5.303  17.818  0.00  0.00    +0.000 OA
ATOM     14  H   UNL     1       4.458   6.774  18.597  0.00  0.00    +0.000 HD
BRANCH  12  15
ATOM     15  C   UNL     1       2.081   7.471  18.660  0.00  0.00    +0.000 A 
ATOM     16  C   UNL     1       1.924   8.567  17.830  0.00  0.00    +0.000 A 
ATOM     17  C   UNL     1       1.408   9.707  18.512  0.00  0.00    +0.000 A 
ATOM     18  C   UNL     1       1.201   9.453  19.848  0.00  0.00    +0.000 A 
ATOM     19  S   UNL     1       1.639   7.855  20.274  0.00  0.00    +0.000 S 
ENDBRANCH  12  15
ENDBRANCH   1  11
TORSDOF 4
ENDMDL
MODEL 5
REMARK VINA RESULT:      -6.1      2.835      6.131
REMARK  Name = 
REMARK  5 active torsions:
REMARK  status: ('A' for Active; 'I' for Inactive)
REMARK    1  A    between atoms: C_1  and  C_2
REMARK    2  A    between atoms: C_2  and  C_3
REMARK    3  A    between atoms: N_8  and  C_9
REMARK    4  A    between atoms: C_9  and  N_11
REMARK    5  A    between atoms: C_12  and  C_14
REMARK                            x       y       z     vdW  Elec       q    Type
REMARK                         _______ _______ _______ _____ _____    ______ ____
ROOT
ATOM      1  C   UNL     1       4.536   4.336  18.688  0.00  0.00    +0.000 C 
ATOM      2  S   UNL     1       4.313   2.920  19.570  0.00  0.00    +0.000 S 
ENDROOT
BRANCH   1   8
ATOM      3  C   UNL     1       6.834   4.770  17.579  0.00  0.00    +0.000 C 
ATOM      4  C   UNL     1       7.229   5.453  16.244  0.00  0.00    +0.000 C 
ATOM      5  C   UNL     1       6.809   4.675  15.007  0.00  0.00    +0.000 C 
ATOM      6  C   UNL     1       5.322   4.370  15.065  0.00  0.00    +0.000 C 
ATOM      7  C   UNL     1       4.976   3.649  16.358  0.00  0.00    +0.000 C 
ATOM      8  N   UNL     1       5.387   4.400  17.563  0.00  0.00    +0.000 N 
BRANCH   3  10
ATOM      9  C   UNL     1       7.856   7.048  18.297  0.00  0.00    +0.000 C 
ATOM     10  C   UNL     1       7.337   5.683  18.728  0.00  0.00    +0.000 C 
ENDBRANCH   3  10
ENDBRANCH   1   8
BRANCH   1  11
ATOM     11  N   UNL     1       3.924   5.543  18.999  0.00  0.00    +0.000 N 
ATOM     12  C   UNL     1       3.517   6.589  18.169  0.00  0.00    +0.000 C 
ATOM     13  O   UNL     1       3.979   6.786  17.048  0.00  0.00    +0.000 OA
ATOM     14  H   UNL     1       3.557   5.582  19.938  0.00  0.00    +0.000 HD
BRANCH  12  15
ATOM     15  C   UNL     1       2.586   7.544  18.776  0.00  0.00    +0.000 A 
ATOM     16  C   UNL     1       2.067   7.491  20.058  0.00  0.00    +0.000 A 
ATOM     17  C   UNL     1       1.219   8.596  20.357  0.00  0.00    +0.000 A 
ATOM     18  C   UNL     1       1.101   9.454  19.288  0.00  0.00    +0.000 A 
ATOM     19  S   UNL     1       1.998   8.919  17.932  0.00  0.00    +0.000 S 
ENDBRANCH  12  15
ENDBRANCH   1  11
TORSDOF 4
ENDMDL
MODEL 6
REMARK VINA RESULT:      -5.9      3.023      6.376
REMARK  Name = 
REMARK  5 active torsions:
REMARK  status: ('A' for Active; 'I' for Inactive)
REMARK    1  A    between atoms: C_1  and  C_2
REMARK    2  A    between atoms: C_2  and  C_3
REMARK    3  A    between atoms: N_8  and  C_9
REMARK    4  A    between atoms: C_9  and  N_11
REMARK    5  A    between atoms: C_12  and  C_14
REMARK                            x       y       z     vdW  Elec       q    Type
REMARK                         _______ _______ _______ _____ _____    ______ ____
ROOT
ATOM      1  C   UNL     1       4.398   4.293  18.522  0.00  0.00    +0.000 C 
ATOM      2  S   UNL     1       4.405   2.964  19.554  0.00  0.00    +0.000 S 
ENDROOT
BRANCH   1   8
ATOM      3  C   UNL     1       6.786   4.740  17.629  0.00  0.00    +0.000 C 
ATOM      4  C   UNL     1       7.303   5.545  16.408  0.00  0.00    +0.000 C 
ATOM      5  C   UNL     1       6.945   4.925  15.066  0.00  0.00    +0.000 C 
ATOM      6  C   UNL     1       5.447   4.683  14.988  0.00  0.00    +0.000 C 
ATOM      7  C   UNL     1       4.981   3.843  16.165  0.00  0.00    +0.000 C 
ATOM      8  N   UNL     1       5.331   4.440  17.472  0.00  0.00    +0.000 N 
BRANCH   3  10
ATOM      9  C   UNL     1       8.017   6.785  18.656  0.00  0.00    +0.000 C 
ATOM     10  C   UNL     1       7.237   5.500  18.903  0.00  0.00    +0.000 C 
ENDBRANCH   3  10
ENDBRANCH   1   8
BRANCH   1  11
ATOM     11  N   UNL     1       3.500   5.347  18.627  0.00  0.00    +0.000 N 
ATOM     12  C   UNL     1       2.772   5.808  19.725  0.00  0.00    +0.000 C 
ATOM     13  O   UNL     1       2.512   5.115  20.706  0.00  0.00    +0.000 OA
ATOM     14  H   UNL     1       3.523   5.979  17.840  0.00  0.00    +0.000 HD
BRANCH  12  15
ATOM     15  C   UNL     1       2.202   7.150  19.580  0.00  0.00    +0.000 A 
ATOM     16  C   UNL     1       1.538   7.875  20.555  0.00  0.00    +0.000 A 
ATOM     17  C   UNL     1       1.139   9.167  20.106  0.00  0.00    +0.000 A 
ATOM     18  C   UNL     1       1.496   9.386  18.795  0.00  0.00    +0.000 A 
ATOM     19  S   UNL     1       2.293   8.035  18.112  0.00  0.00    +0.000 S 
ENDBRANCH  12  15
ENDBRANCH   1  11
TORSDOF 4
ENDMDL
MODEL 7
REMARK VINA RESULT:      -5.9      2.657      6.309
REMARK  Name = 
REMARK  5 active torsions:
REMARK  status: ('A' for Active; 'I' for Inactive)
REMARK    1  A    between atoms: C_1  and  C_2
REMARK    2  A    between atoms: C_2  and  C_3
REMARK    3  A    between atoms: N_8  and  C_9
REMARK    4  A    between atoms: C_9  and  N_11
REMARK    5  A    between atoms: C_12  and  C_14
REMARK                            x       y       z     vdW  Elec       q    Type
REMARK                         _______ _______ _______ _____ _____    ______ ____
ROOT
ATOM      1  C   UNL     1       4.094   6.231  17.650  0.00  0.00    +0.000 C 
ATOM      2  S   UNL     1       3.703   7.825  17.281  0.00  0.00    +0.000 S 
ENDROOT
BRANCH   1   8
ATOM      3  C   UNL     1       6.480   5.283  17.323  0.00  0.00    +0.000 C 
ATOM      4  C   UNL     1       7.378   5.144  16.066  0.00  0.00    +0.000 C 
ATOM      5  C   UNL     1       6.866   4.133  15.052  0.00  0.00    +0.000 C 
ATOM      6  C   UNL     1       5.426   4.450  14.684  0.00  0.00    +0.000 C 
ATOM      7  C   UNL     1       4.560   4.521  15.931  0.00  0.00    +0.000 C 
ATOM      8  N   UNL     1       5.058   5.500  16.921  0.00  0.00    +0.000 N 
BRANCH   3  10
ATOM      9  C   UNL     1       7.625   7.604  17.549  0.00  0.00    +0.000 C 
ATOM     10  C   UNL     1       7.143   6.338  18.245  0.00  0.00    +0.000 C 
ENDBRANCH   3  10
ENDBRANCH   1   8
BRANCH   1  11
ATOM     11  N   UNL     1       3.499   5.508  18.676  0.00  0.00    +0.000 N 
ATOM     12  C   UNL     1       2.396   4.653  18.656  0.00  0.00    +0.000 C 
ATOM     13  O   UNL     1       1.522   4.692  17.792  0.00  0.00    +0.000 OA
ATOM     14  H   UNL     1       4.062   5.451  19.512  0.00  0.00    +0.000 HD
BRANCH  12  15
ATOM     15  C   UNL     1       2.258   3.780  19.824  0.00  0.00    +0.000 A 
ATOM     16  C   UNL     1       1.146   3.659  20.639  0.00  0.00    +0.000 A 
ATOM     17  C   UNL     1       1.320   2.692  21.671  0.00  0.00    +0.000 A 
ATOM     18  C   UNL     1       2.567   2.112  21.624  0.00  0.00    +0.000 A 
ATOM     19  S   UNL     1       3.521   2.743  20.352  0.00  0.00    +0.000 S 
ENDBRANCH  12  15
ENDBRANCH   1  11
TORSDOF 4
ENDMDL
MODEL 8
REMARK VINA RESULT:      -5.9      2.566      6.074
REMARK  Name = 
REMARK  5 active torsions:
REMARK  status: ('A' for Active; 'I' for Inactive)
REMARK    1  A    between atoms: C_1  and  C_2
REMARK    2  A    between atoms: C_2  and  C_3
REMARK    3  A    between atoms: N_8  and  C_9
REMARK    4  A    between atoms: C_9  and  N_11
REMARK    5  A    between atoms: C_12  and  C_14
REMARK                            x       y       z     vdW  Elec       q    Type
REMARK                         _______ _______ _______ _____ _____    ______ ____
ROOT
ATOM      1  C   UNL     1       4.481   5.263  19.350  0.00  0.00    +0.000 C 
ATOM      2  S   UNL     1       6.161   5.327  19.289  0.00  0.00    +0.000 S 
ENDROOT
BRANCH   1   8
ATOM      3  C   UNL     1       3.837   3.346  17.734  0.00  0.00    +0.000 C 
ATOM      4  C   UNL     1       2.480   2.663  17.424  0.00  0.00    +0.000 C 
ATOM      5  C   UNL     1       1.926   1.841  18.577  0.00  0.00    +0.000 C 
ATOM      6  C   UNL     1       1.854   2.692  19.834  0.00  0.00    +0.000 C 
ATOM      7  C   UNL     1       3.212   3.299  20.145  0.00  0.00    +0.000 C 
ATOM      8  N   UNL     1       3.756   4.096  19.024  0.00  0.00    +0.000 N 
BRANCH   3  10
ATOM      9  C   UNL     1       5.622   3.768  15.894  0.00  0.00    +0.000 C 
ATOM     10  C   UNL     1       4.257   4.130  16.464  0.00  0.00    +0.000 C 
ENDBRANCH   3  10
ENDBRANCH   1   8
BRANCH   1  11
ATOM     11  N   UNL     1       3.680   6.340  19.705  0.00  0.00    +0.000 N 
ATOM     12  C   UNL     1       2.835   7.133  18.926  0.00  0.00    +0.000 C 
ATOM     13  O   UNL     1       2.950   7.253  17.708  0.00  0.00    +0.000 OA
ATOM     14  H   UNL     1       3.552   6.440  20.701  0.00  0.00    +0.000 HD
BRANCH  12  15
ATOM     15  C   UNL     1       1.870   7.943  19.673  0.00  0.00    +0.000 A 
ATOM     16  C   UNL     1       1.372   7.677  20.937  0.00  0.00    +0.000 A 
ATOM     17  C   UNL     1       0.477   8.684  21.400  0.00  0.00    +0.000 A 
ATOM     18  C   UNL     1       0.305   9.683  20.471  0.00  0.00    +0.000 A 
ATOM     19  S   UNL     1       1.207   9.397  19.045  0.00  0.00    +0.000 S 
ENDBRANCH  12  15
ENDBRANCH   1  11
TORSDOF 4
ENDMDL
MODEL 9
REMARK VINA RESULT:      -5.9      1.016      2.387
REMARK  Name = 
REMARK  5 active torsions:
REMARK  status: ('A' for Active; 'I' for Inactive)
REMARK    1  A    between atoms: C_1  and  C_2
REMARK    2  A    between atoms: C_2  and  C_3
REMARK    3  A    between atoms: N_8  and  C_9
REMARK    4  A    between atoms: C_9  and  N_11
REMARK    5  A    between atoms: C_12  and  C_14
REMARK                            x       y       z     vdW  Elec       q    Type
REMARK                         _______ _______ _______ _____ _____    ______ ____
ROOT
ATOM      1  C   UNL     1       5.778   4.863  17.823  0.00  0.00    +0.000 C 
ATOM      2  S   UNL     1       7.198   5.152  18.677  0.00  0.00    +0.000 S 
ENDROOT
BRANCH   1   8
ATOM      3  C   UNL     1       3.929   3.943  19.383  0.00  0.00    +0.000 C 
ATOM      4  C   UNL     1       2.385   3.897  19.247  0.00  0.00    +0.000 C 
ATOM      5  C   UNL     1       1.721   5.264  19.310  0.00  0.00    +0.000 C 
ATOM      6  C   UNL     1       2.349   6.195  18.287  0.00  0.00    +0.000 C 
ATOM      7  C   UNL     1       3.855   6.264  18.483  0.00  0.00    +0.000 C 
ATOM      8  N   UNL     1       4.504   4.937  18.427  0.00  0.00    +0.000 N 
BRANCH   3  10
ATOM      9  C   UNL     1       3.603   1.542  18.445  0.00  0.00    +0.000 C 
ATOM     10  C   UNL     1       4.439   2.481  19.304  0.00  0.00    +0.000 C 
ENDBRANCH   3  10
ENDBRANCH   1   8
BRANCH   1  11
ATOM     11  N   UNL     1       5.742   4.518  16.478  0.00  0.00    +0.000 N 
ATOM     12  C   UNL     1       5.761   5.324  15.338  0.00  0.00    +0.000 C 
ATOM     13  O   UNL     1       5.425   6.506  15.337  0.00  0.00    +0.000 OA
ATOM     14  H   UNL     1       5.916   3.539  16.306  0.00  0.00    +0.000 HD
BRANCH  12  15
ATOM     15  C   UNL     1       6.076   4.631  14.086  0.00  0.00    +0.000 A 
ATOM     16  C   UNL     1       5.294   3.686  13.446  0.00  0.00    +0.000 A 
ATOM     17  C   UNL     1       5.867   3.231  12.224  0.00  0.00    +0.000 A 
ATOM     18  C   UNL     1       7.080   3.830  11.973  0.00  0.00    +0.000 A 
ATOM     19  S   UNL     1       7.525   4.922  13.213  0.00  0.00    +0.000 S 
ENDBRANCH  12  15
ENDBRANCH   1  11
TORSDOF 4
ENDMDL
