MODEL 1
REMARK VINA RESULT:      -7.6      0.000      0.000
REMARK  Name = 
REMARK  5 active torsions:
REMARK  status: ('A' for Active; 'I' for Inactive)
REMARK    1  A    between atoms: C_1  and  O_2
REMARK    2  A    between atoms: O_2  and  C_3
REMARK    3  A    between atoms: C_7  and  N_8
REMARK    4  A    between atoms: C_9  and  C_11
REMARK    5  A    between atoms: C_15  and  N_16
REMARK                            x       y       z     vdW  Elec       q    Type
REMARK                         _______ _______ _______ _____ _____    ______ ____
ROOT
ATOM      1  C   UNL     1       2.529   7.362  18.724  0.00  0.00    +0.000 A 
ATOM      2  C   UNL     1       2.081   6.744  19.887  0.00  0.00    +0.000 A 
ATOM      3  N   UNL     1       2.552   5.562  20.347  0.00  0.00    +0.000 NA
ATOM      4  C   UNL     1       3.506   4.970  19.590  0.00  0.00    +0.000 A 
ATOM      5  C   UNL     1       4.020   5.472  18.386  0.00  0.00    +0.000 A 
ATOM      6  C   UNL     1       3.497   6.703  17.960  0.00  0.00    +0.000 A 
ENDROOT
BRANCH   5   7
ATOM      7  N   UNL     1       5.000   4.760  17.691  0.00  0.00    +0.000 N 
ATOM      8  C   UNL     1       4.651   4.056  16.440  0.00  0.00    +0.000 C 
ATOM      9  C   UNL     1       5.495   4.532  15.237  0.00  0.00    +0.000 C 
ATOM     10  C   UNL     1       7.009   4.310  15.446  0.00  0.00    +0.000 C 
ATOM     11  C   UNL     1       6.891   5.618  16.262  0.00  0.00    +0.000 C 
ATOM     12  C   UNL     1       6.345   5.395  17.698  0.00  0.00    +0.000 C 
ATOM     13  N   UNL     1       5.799   6.019  15.283  0.00  0.00    +0.000 NA
ATOM     14  H   UNL     1       6.175   6.375  14.403  0.00  0.00    +0.000 HD
ENDBRANCH   5   7
BRANCH   1  16
ATOM     15  N   UNL     1       1.075   9.262  19.303  0.00  0.00    +0.000 N 
ATOM     16  C   UNL     1       1.929   8.673  18.382  0.00  0.00    +0.000 C 
ATOM     17  O   UNL     1       2.235   9.146  17.289  0.00  0.00    +0.000 OA
ATOM     18  H   UNL     1       0.980   8.843  20.219  0.00  0.00    +0.000 HD
BRANCH  15  23
ATOM     19  C   UNL     1      -1.610  11.498  18.023  0.00  0.00    +0.000 A 
ATOM     20  C   UNL     1      -1.234  12.725  18.574  0.00  0.00    +0.000 A 
ATOM     21  C   UNL     1      -0.086  12.821  19.352  0.00  0.00    +0.000 A 
ATOM     22  C   UNL     1       0.684  11.685  19.595  0.00  0.00    +0.000 A 
ATOM     23  C   UNL     1       0.317  10.441  19.072  0.00  0.00    +0.000 A 
ATOM     24  C   UNL     1      -0.829  10.358  18.266  0.00  0.00    +0.000 A 
BRANCH  19  26
ATOM     25  C   UNL     1      -2.739  10.867  16.026  0.00  0.00    +0.000 C 
ATOM     26  O   UNL     1      -2.751  11.550  17.270  0.00  0.00    +0.000 OA
ENDBRANCH  19  26
ENDBRANCH  15  23
ENDBRANCH   1  16
TORSDOF 4
ENDMDL
MODEL 2
REMARK VINA RESULT:      -7.5      1.894      2.278
REMARK  Name = 
REMARK  5 active torsions:
REMARK  status: ('A' for Active; 'I' for Inactive)
REMARK    1  A    between atoms: C_1  and  O_2
REMARK    2  A    between atoms: O_2  and  C_3
REMARK    3  A    between atoms: C_7  and  N_8
REMARK    4  A    between atoms: C_9  and  C_11
REMARK    5  A    between atoms: C_15  and  N_16
REMARK                            x       y       z     vdW  Elec       q    Type
REMARK                         _______ _______ _______ _____ _____    ______ ____
ROOT
ATOM      1  C   UNL     1       2.624   6.214  19.730  0.00  0.00    +0.000 A 
ATOM      2  C   UNL     1       2.215   5.171  20.553  0.00  0.00    +0.000 A 
ATOM      3  N   UNL     1       2.728   3.920  20.504  0.00  0.00    +0.000 NA
ATOM      4  C   UNL     1       3.686   3.710  19.571  0.00  0.00    +0.000 A 
ATOM      5  C   UNL     1       4.165   4.665  18.664  0.00  0.00    +0.000 A 
ATOM      6  C   UNL     1       3.598   5.946  18.763  0.00  0.00    +0.000 A 
ENDROOT
BRANCH   5   7
ATOM      7  N   UNL     1       5.153   4.321  17.739  0.00  0.00    +0.000 N 
ATOM      8  C   UNL     1       4.787   4.056  16.333  0.00  0.00    +0.000 C 
ATOM      9  C   UNL     1       5.524   4.985  15.343  0.00  0.00    +0.000 C 
ATOM     10  C   UNL     1       7.061   4.840  15.421  0.00  0.00    +0.000 C 
ATOM     11  C   UNL     1       6.892   5.778  16.639  0.00  0.00    +0.000 C 
ATOM     12  C   UNL     1       6.447   5.033  17.926  0.00  0.00    +0.000 C 
ATOM     13  N   UNL     1       5.720   6.388  15.887  0.00  0.00    +0.000 NA
ATOM     14  H   UNL     1       6.018   7.054  15.173  0.00  0.00    +0.000 HD
ENDBRANCH   5   7
BRANCH   1  16
ATOM     15  N   UNL     1       1.416   7.796  21.179  0.00  0.00    +0.000 N 
ATOM     16  C   UNL     1       1.980   7.532  19.939  0.00  0.00    +0.000 C 
ATOM     17  O   UNL     1       1.991   8.305  18.981  0.00  0.00    +0.000 OA
ATOM     18  H   UNL     1       1.561   7.136  21.932  0.00  0.00    +0.000 HD
BRANCH  15  23
ATOM     19  C   UNL     1      -0.378  11.027  20.752  0.00  0.00    +0.000 A 
ATOM     20  C   UNL     1      -0.869  11.243  22.042  0.00  0.00    +0.000 A 
ATOM     21  C   UNL     1      -0.595  10.334  23.057  0.00  0.00    +0.000 A 
ATOM     22  C   UNL     1       0.162   9.196  22.783  0.00  0.00    +0.000 A 
ATOM     23  C   UNL     1       0.647   8.947  21.495  0.00  0.00    +0.000 A 
ATOM     24  C   UNL     1       0.387   9.883  20.482  0.00  0.00    +0.000 A 
BRANCH  19  26
ATOM     25  C   UNL     1      -1.991  11.913  19.243  0.00  0.00    +0.000 C 
ATOM     26  O   UNL     1      -0.714  12.005  19.855  0.00  0.00    +0.000 OA
ENDBRANCH  19  26
ENDBRANCH  15  23
ENDBRANCH   1  16
TORSDOF 4
ENDMDL
MODEL 3
REMARK VINA RESULT:      -7.3      1.133      1.831
REMARK  Name = 
REMARK  5 active torsions:
REMARK  status: ('A' for Active; 'I' for Inactive)
REMARK    1  A    between atoms: C_1  and  O_2
REMARK    2  A    between atoms: O_2  and  C_3
REMARK    3  A    between atoms: C_7  and  N_8
REMARK    4  A    between atoms: C_9  and  C_11
REMARK    5  A    between atoms: C_15  and  N_16
REMARK                            x       y       z     vdW  Elec       q    Type
REMARK                         _______ _______ _______ _____ _____    ______ ____
ROOT
ATOM      1  C   UNL     1       2.527   7.354  18.736  0.00  0.00    +0.000 A 
ATOM      2  C   UNL     1       2.091   6.730  19.899  0.00  0.00    +0.000 A 
ATOM      3  N   UNL     1       2.572   5.550  20.353  0.00  0.00    +0.000 NA
ATOM      4  C   UNL     1       3.525   4.967  19.589  0.00  0.00    +0.000 A 
ATOM      5  C   UNL     1       4.029   5.475  18.383  0.00  0.00    +0.000 A 
ATOM      6  C   UNL     1       3.495   6.704  17.964  0.00  0.00    +0.000 A 
ENDROOT
BRANCH   5   7
ATOM      7  N   UNL     1       5.009   4.772  17.680  0.00  0.00    +0.000 N 
ATOM      8  C   UNL     1       4.657   4.066  16.432  0.00  0.00    +0.000 C 
ATOM      9  C   UNL     1       5.487   4.549  15.222  0.00  0.00    +0.000 C 
ATOM     10  C   UNL     1       7.005   4.340  15.419  0.00  0.00    +0.000 C 
ATOM     11  C   UNL     1       6.882   5.647  16.237  0.00  0.00    +0.000 C 
ATOM     12  C   UNL     1       6.349   5.419  17.677  0.00  0.00    +0.000 C 
ATOM     13  N   UNL     1       5.778   6.038  15.266  0.00  0.00    +0.000 NA
ATOM     14  H   UNL     1       6.144   6.398  14.384  0.00  0.00    +0.000 HD
ENDBRANCH   5   7
BRANCH   1  16
ATOM     15  N   UNL     1       1.096   9.262  19.345  0.00  0.00    +0.000 N 
ATOM     16  C   UNL     1       1.916   8.662  18.402  0.00  0.00    +0.000 C 
ATOM     17  O   UNL     1       2.185   9.124  17.293  0.00  0.00    +0.000 OA
ATOM     18  H   UNL     1       1.032   8.852  20.268  0.00  0.00    +0.000 HD
BRANCH  15  23
ATOM     19  C   UNL     1       0.166  12.864  19.273  0.00  0.00    +0.000 A 
ATOM     20  C   UNL     1      -1.119  12.807  18.727  0.00  0.00    +0.000 A 
ATOM     21  C   UNL     1      -1.686  11.581  18.398  0.00  0.00    +0.000 A 
ATOM     22  C   UNL     1      -0.965  10.406  18.602  0.00  0.00    +0.000 A 
ATOM     23  C   UNL     1       0.331  10.438  19.129  0.00  0.00    +0.000 A 
ATOM     24  C   UNL     1       0.886  11.678  19.481  0.00  0.00    +0.000 A 
BRANCH  19  26
ATOM     25  C   UNL     1      -0.035  15.200  18.869  0.00  0.00    +0.000 C 
ATOM     26  O   UNL     1       0.595  14.131  19.559  0.00  0.00    +0.000 OA
ENDBRANCH  19  26
ENDBRANCH  15  23
ENDBRANCH   1  16
TORSDOF 4
ENDMDL
MODEL 4
REMARK VINA RESULT:      -7.3      5.207      7.834
REMARK  Name = 
REMARK  5 active torsions:
REMARK  status: ('A' for Active; 'I' for Inactive)
REMARK    1  A    between atoms: C_1  and  O_2
REMARK    2  A    between atoms: O_2  and  C_3
REMARK    3  A    between atoms: C_7  and  N_8
REMARK    4  A    between atoms: C_9  and  C_11
REMARK    5  A    between atoms: C_15  and  N_16
REMARK                            x       y       z     vdW  Elec       q    Type
REMARK                         _______ _______ _______ _____ _____    ______ ____
ROOT
ATOM      1  C   UNL     1       7.456   7.351  18.116  0.00  0.00    +0.000 A 
ATOM      2  C   UNL     1       8.207   6.298  18.625  0.00  0.00    +0.000 A 
ATOM      3  N   UNL     1       7.780   5.016  18.675  0.00  0.00    +0.000 NA
ATOM      4  C   UNL     1       6.531   4.790  18.204  0.00  0.00    +0.000 A 
ATOM      5  C   UNL     1       5.663   5.765  17.693  0.00  0.00    +0.000 A 
ATOM      6  C   UNL     1       6.162   7.077  17.663  0.00  0.00    +0.000 A 
ENDROOT
BRANCH   5   7
ATOM      7  N   UNL     1       4.390   5.406  17.244  0.00  0.00    +0.000 N 
ATOM      8  C   UNL     1       4.101   4.000  16.898  0.00  0.00    +0.000 C 
ATOM      9  C   UNL     1       2.934   3.414  17.723  0.00  0.00    +0.000 C 
ATOM     10  C   UNL     1       1.612   4.187  17.518  0.00  0.00    +0.000 C 
ATOM     11  C   UNL     1       2.246   5.155  18.544  0.00  0.00    +0.000 C 
ATOM     12  C   UNL     1       3.274   6.130  17.910  0.00  0.00    +0.000 C 
ATOM     13  N   UNL     1       2.908   3.928  19.151  0.00  0.00    +0.000 NA
ATOM     14  H   UNL     1       2.274   3.400  19.753  0.00  0.00    +0.000 HD
ENDBRANCH   5   7
BRANCH   1  16
ATOM     15  N   UNL     1       8.977   9.003  19.125  0.00  0.00    +0.000 N 
ATOM     16  C   UNL     1       8.090   8.690  18.106  0.00  0.00    +0.000 C 
ATOM     17  O   UNL     1       7.775   9.438  17.180  0.00  0.00    +0.000 OA
ATOM     18  H   UNL     1       9.252   8.276  19.773  0.00  0.00    +0.000 HD
BRANCH  15  23
ATOM     19  C   UNL     1      10.999  12.066  18.519  0.00  0.00    +0.000 A 
ATOM     20  C   UNL     1      10.741  12.802  19.678  0.00  0.00    +0.000 A 
ATOM     21  C   UNL     1       9.915  12.282  20.668  0.00  0.00    +0.000 A 
ATOM     22  C   UNL     1       9.331  11.028  20.496  0.00  0.00    +0.000 A 
ATOM     23  C   UNL     1       9.558  10.281  19.335  0.00  0.00    +0.000 A 
ATOM     24  C   UNL     1      10.414  10.802  18.353  0.00  0.00    +0.000 A 
BRANCH  19  26
ATOM     25  C   UNL     1      11.242  13.557  16.681  0.00  0.00    +0.000 C 
ATOM     26  O   UNL     1      11.837  12.692  17.636  0.00  0.00    +0.000 OA
ENDBRANCH  19  26
ENDBRANCH  15  23
ENDBRANCH   1  16
TORSDOF 4
ENDMDL
MODEL 5
REMARK VINA RESULT:      -7.3      5.058      7.636
REMARK  Name = 
REMARK  5 active torsions:
REMARK  status: ('A' for Active; 'I' for Inactive)
REMARK    1  A    between atoms: C_1  and  O_2
REMARK    2  A    between atoms: O_2  and  C_3
REMARK    3  A    between atoms: C_7  and  N_8
REMARK    4  A    between atoms: C_9  and  C_11
REMARK    5  A    between atoms: C_15  and  N_16
REMARK                            x       y       z     vdW  Elec       q    Type
REMARK                         _______ _______ _______ _____ _____    ______ ____
ROOT
ATOM      1  C   UNL     1       7.355   7.244  18.074  0.00  0.00    +0.000 A 
ATOM      2  C   UNL     1       8.121   6.227  18.632  0.00  0.00    +0.000 A 
ATOM      3  N   UNL     1       7.716   4.941  18.734  0.00  0.00    +0.000 NA
ATOM      4  C   UNL     1       6.474   4.673  18.266  0.00  0.00    +0.000 A 
ATOM      5  C   UNL     1       5.592   5.611  17.709  0.00  0.00    +0.000 A 
ATOM      6  C   UNL     1       6.069   6.929  17.626  0.00  0.00    +0.000 A 
ENDROOT
BRANCH   5   7
ATOM      7  N   UNL     1       4.329   5.211  17.269  0.00  0.00    +0.000 N 
ATOM      8  C   UNL     1       4.071   3.789  16.962  0.00  0.00    +0.000 C 
ATOM      9  C   UNL     1       2.916   3.200  17.802  0.00  0.00    +0.000 C 
ATOM     10  C   UNL     1       1.578   3.938  17.575  0.00  0.00    +0.000 C 
ATOM     11  C   UNL     1       2.188   4.949  18.574  0.00  0.00    +0.000 C 
ATOM     12  C   UNL     1       3.196   5.928  17.914  0.00  0.00    +0.000 C 
ATOM     13  N   UNL     1       2.876   3.754  19.216  0.00  0.00    +0.000 NA
ATOM     14  H   UNL     1       2.253   3.228  19.831  0.00  0.00    +0.000 HD
ENDBRANCH   5   7
BRANCH   1  16
ATOM     15  N   UNL     1       8.893   8.938  18.983  0.00  0.00    +0.000 N 
ATOM     16  C   UNL     1       7.966   8.592  18.011  0.00  0.00    +0.000 C 
ATOM     17  O   UNL     1       7.598   9.318  17.087  0.00  0.00    +0.000 OA
ATOM     18  H   UNL     1       9.209   8.228  19.631  0.00  0.00    +0.000 HD
BRANCH  15  23
ATOM     19  C   UNL     1       9.915  12.134  20.592  0.00  0.00    +0.000 A 
ATOM     20  C   UNL     1      10.566  12.778  19.537  0.00  0.00    +0.000 A 
ATOM     21  C   UNL     1      10.653  12.168  18.291  0.00  0.00    +0.000 A 
ATOM     22  C   UNL     1      10.101  10.903  18.097  0.00  0.00    +0.000 A 
ATOM     23  C   UNL     1       9.462  10.229  19.143  0.00  0.00    +0.000 A 
ATOM     24  C   UNL     1       9.356  10.863  20.391  0.00  0.00    +0.000 A 
BRANCH  19  26
ATOM     25  C   UNL     1       8.814  12.610  22.646  0.00  0.00    +0.000 C 
ATOM     26  O   UNL     1       9.893  12.851  21.756  0.00  0.00    +0.000 OA
ENDBRANCH  19  26
ENDBRANCH  15  23
ENDBRANCH   1  16
TORSDOF 4
ENDMDL
MODEL 6
REMARK VINA RESULT:      -7.3      2.378      3.143
REMARK  Name = 
REMARK  5 active torsions:
REMARK  status: ('A' for Active; 'I' for Inactive)
REMARK    1  A    between atoms: C_1  and  O_2
REMARK    2  A    between atoms: O_2  and  C_3
REMARK    3  A    between atoms: C_7  and  N_8
REMARK    4  A    between atoms: C_9  and  C_11
REMARK    5  A    between atoms: C_15  and  N_16
REMARK                            x       y       z     vdW  Elec       q    Type
REMARK                         _______ _______ _______ _____ _____    ______ ____
ROOT
ATOM      1  C   UNL     1       2.854   5.048  19.767  0.00  0.00    +0.000 A 
ATOM      2  C   UNL     1       2.805   3.904  20.555  0.00  0.00    +0.000 A 
ATOM      3  N   UNL     1       3.613   2.833  20.388  0.00  0.00    +0.000 NA
ATOM      4  C   UNL     1       4.500   2.914  19.369  0.00  0.00    +0.000 A 
ATOM      5  C   UNL     1       4.631   3.995  18.486  0.00  0.00    +0.000 A 
ATOM      6  C   UNL     1       3.768   5.080  18.709  0.00  0.00    +0.000 A 
ENDROOT
BRANCH   5   7
ATOM      7  N   UNL     1       5.583   3.956  17.464  0.00  0.00    +0.000 N 
ATOM      8  C   UNL     1       5.150   3.825  16.058  0.00  0.00    +0.000 C 
ATOM      9  C   UNL     1       5.642   4.993  15.175  0.00  0.00    +0.000 C 
ATOM     10  C   UNL     1       7.183   5.105  15.141  0.00  0.00    +0.000 C 
ATOM     11  C   UNL     1       6.966   5.825  16.492  0.00  0.00    +0.000 C 
ATOM     12  C   UNL     1       6.755   4.847  17.679  0.00  0.00    +0.000 C 
ATOM     13  N   UNL     1       5.652   6.322  15.909  0.00  0.00    +0.000 NA
ATOM     14  H   UNL     1       5.779   7.120  15.285  0.00  0.00    +0.000 HD
ENDBRANCH   5   7
BRANCH   1  16
ATOM     15  N   UNL     1       2.219   7.425  19.669  0.00  0.00    +0.000 N 
ATOM     16  C   UNL     1       1.917   6.144  20.108  0.00  0.00    +0.000 C 
ATOM     17  O   UNL     1       0.926   5.832  20.768  0.00  0.00    +0.000 OA
ATOM     18  H   UNL     1       2.999   7.553  19.037  0.00  0.00    +0.000 HD
BRANCH  15  23
ATOM     19  C   UNL     1       0.459   9.945  21.765  0.00  0.00    +0.000 A 
ATOM     20  C   UNL     1       0.092  10.893  20.807  0.00  0.00    +0.000 A 
ATOM     21  C   UNL     1       0.407  10.695  19.468  0.00  0.00    +0.000 A 
ATOM     22  C   UNL     1       1.106   9.552  19.082  0.00  0.00    +0.000 A 
ATOM     23  C   UNL     1       1.503   8.598  20.026  0.00  0.00    +0.000 A 
ATOM     24  C   UNL     1       1.158   8.794  21.372  0.00  0.00    +0.000 A 
BRANCH  19  26
ATOM     25  C   UNL     1      -1.126  11.002  23.190  0.00  0.00    +0.000 C 
ATOM     26  O   UNL     1       0.076  10.262  23.040  0.00  0.00    +0.000 OA
ENDBRANCH  19  26
ENDBRANCH  15  23
ENDBRANCH   1  16
TORSDOF 4
ENDMDL
MODEL 7
REMARK VINA RESULT:      -7.2      1.981      2.568
REMARK  Name = 
REMARK  5 active torsions:
REMARK  status: ('A' for Active; 'I' for Inactive)
REMARK    1  A    between atoms: C_1  and  O_2
REMARK    2  A    between atoms: O_2  and  C_3
REMARK    3  A    between atoms: C_7  and  N_8
REMARK    4  A    between atoms: C_9  and  C_11
REMARK    5  A    between atoms: C_15  and  N_16
REMARK                            x       y       z     vdW  Elec       q    Type
REMARK                         _______ _______ _______ _____ _____    ______ ____
ROOT
ATOM      1  C   UNL     1       2.505   6.671  19.464  0.00  0.00    +0.000 A 
ATOM      2  C   UNL     1       2.043   5.749  20.396  0.00  0.00    +0.000 A 
ATOM      3  N   UNL     1       2.521   4.490  20.518  0.00  0.00    +0.000 NA
ATOM      4  C   UNL     1       3.498   4.141  19.649  0.00  0.00    +0.000 A 
ATOM      5  C   UNL     1       4.030   4.964  18.646  0.00  0.00    +0.000 A 
ATOM      6  C   UNL     1       3.498   6.261  18.569  0.00  0.00    +0.000 A 
ENDROOT
BRANCH   5   7
ATOM      7  N   UNL     1       5.034   4.483  17.803  0.00  0.00    +0.000 N 
ATOM      8  C   UNL     1       4.699   4.043  16.434  0.00  0.00    +0.000 C 
ATOM      9  C   UNL     1       5.482   4.820  15.353  0.00  0.00    +0.000 C 
ATOM     10  C   UNL     1       7.013   4.657  15.493  0.00  0.00    +0.000 C 
ATOM     11  C   UNL     1       6.834   5.749  16.574  0.00  0.00    +0.000 C 
ATOM     12  C   UNL     1       6.338   5.188  17.934  0.00  0.00    +0.000 C 
ATOM     13  N   UNL     1       5.696   6.279  15.716  0.00  0.00    +0.000 NA
ATOM     14  H   UNL     1       6.028   6.840  14.930  0.00  0.00    +0.000 HD
ENDBRANCH   5   7
BRANCH   1  16
ATOM     15  N   UNL     1       1.073   8.348  20.557  0.00  0.00    +0.000 N 
ATOM     16  C   UNL     1       1.893   8.020  19.488  0.00  0.00    +0.000 C 
ATOM     17  O   UNL     1       2.161   8.760  18.541  0.00  0.00    +0.000 OA
ATOM     18  H   UNL     1       1.009   7.709  21.338  0.00  0.00    +0.000 HD
BRANCH  15  23
ATOM     19  C   UNL     1      -0.476  11.393  22.032  0.00  0.00    +0.000 A 
ATOM     20  C   UNL     1      -1.182  11.902  20.939  0.00  0.00    +0.000 A 
ATOM     21  C   UNL     1      -1.162  11.233  19.721  0.00  0.00    +0.000 A 
ATOM     22  C   UNL     1      -0.425  10.058  19.586  0.00  0.00    +0.000 A 
ATOM     23  C   UNL     1       0.307   9.540  20.660  0.00  0.00    +0.000 A 
ATOM     24  C   UNL     1       0.261  10.207  21.893  0.00  0.00    +0.000 A 
BRANCH  19  26
ATOM     25  C   UNL     1      -1.544  13.196  23.158  0.00  0.00    +0.000 C 
ATOM     26  O   UNL     1      -0.591  12.145  23.170  0.00  0.00    +0.000 OA
ENDBRANCH  19  26
ENDBRANCH  15  23
ENDBRANCH   1  16
TORSDOF 4
ENDMDL
MODEL 8
REMARK VINA RESULT:      -7.2      1.276      1.385
REMARK  Name = 
REMARK  5 active torsions:
REMARK  status: ('A' for Active; 'I' for Inactive)
REMARK    1  A    between atoms: C_1  and  O_2
REMARK    2  A    between atoms: O_2  and  C_3
REMARK    3  A    between atoms: C_7  and  N_8
REMARK    4  A    between atoms: C_9  and  C_11
REMARK    5  A    between atoms: C_15  and  N_16
REMARK                            x       y       z     vdW  Elec       q    Type
REMARK                         _______ _______ _______ _____ _____    ______ ____
ROOT
ATOM      1  C   UNL     1       2.493   6.545  19.610  0.00  0.00    +0.000 A 
ATOM      2  C   UNL     1       2.037   5.546  20.463  0.00  0.00    +0.000 A 
ATOM      3  N   UNL     1       2.515   4.281  20.474  0.00  0.00    +0.000 NA
ATOM      4  C   UNL     1       3.487   4.008  19.573  0.00  0.00    +0.000 A 
ATOM      5  C   UNL     1       4.013   4.914  18.640  0.00  0.00    +0.000 A 
ATOM      6  C   UNL     1       3.480   6.212  18.677  0.00  0.00    +0.000 A 
ENDROOT
BRANCH   5   7
ATOM      7  N   UNL     1       5.012   4.507  17.753  0.00  0.00    +0.000 N 
ATOM      8  C   UNL     1       4.680   4.251  16.337  0.00  0.00    +0.000 C 
ATOM      9  C   UNL     1       5.501   5.128  15.367  0.00  0.00    +0.000 C 
ATOM     10  C   UNL     1       7.023   4.898  15.499  0.00  0.00    +0.000 C 
ATOM     11  C   UNL     1       6.867   5.854  16.705  0.00  0.00    +0.000 C 
ATOM     12  C   UNL     1       6.336   5.147  17.980  0.00  0.00    +0.000 C 
ATOM     13  N   UNL     1       5.757   6.523  15.909  0.00  0.00    +0.000 NA
ATOM     14  H   UNL     1       6.117   7.165  15.201  0.00  0.00    +0.000 HD
ENDBRANCH   5   7
BRANCH   1  16
ATOM     15  N   UNL     1       1.674   8.637  18.606  0.00  0.00    +0.000 N 
ATOM     16  C   UNL     1       1.882   7.886  19.753  0.00  0.00    +0.000 C 
ATOM     17  O   UNL     1       1.602   8.241  20.898  0.00  0.00    +0.000 OA
ATOM     18  H   UNL     1       1.834   8.207  17.705  0.00  0.00    +0.000 HD
BRANCH  15  23
ATOM     19  C   UNL     1      -0.628  11.561  18.625  0.00  0.00    +0.000 A 
ATOM     20  C   UNL     1       0.275  12.624  18.550  0.00  0.00    +0.000 A 
ATOM     21  C   UNL     1       1.641  12.378  18.475  0.00  0.00    +0.000 A 
ATOM     22  C   UNL     1       2.112  11.067  18.489  0.00  0.00    +0.000 A 
ATOM     23  C   UNL     1       1.229   9.986  18.584  0.00  0.00    +0.000 A 
ATOM     24  C   UNL     1      -0.150  10.242  18.634  0.00  0.00    +0.000 A 
BRANCH  19  26
ATOM     25  C   UNL     1      -2.844  11.300  17.799  0.00  0.00    +0.000 C 
ATOM     26  O   UNL     1      -1.940  11.945  18.683  0.00  0.00    +0.000 OA
ENDBRANCH  19  26
ENDBRANCH  15  23
ENDBRANCH   1  16
TORSDOF 4
ENDMDL
MODEL 9
REMARK VINA RESULT:      -7.2      1.142      1.604
REMARK  Name = 
REMARK  5 active torsions:
REMARK  status: ('A' for Active; 'I' for Inactive)
REMARK    1  A    between atoms: C_1  and  O_2
REMARK    2  A    between atoms: O_2  and  C_3
REMARK    3  A    between atoms: C_7  and  N_8
REMARK    4  A    between atoms: C_9  and  C_11
REMARK    5  A    between atoms: C_15  and  N_16
REMARK                            x       y       z     vdW  Elec       q    Type
REMARK                         _______ _______ _______ _____ _____    ______ ____
ROOT
ATOM      1  C   UNL     1       2.258   8.111  18.673  0.00  0.00    +0.000 A 
ATOM      2  C   UNL     1       2.091   7.232  19.737  0.00  0.00    +0.000 A 
ATOM      3  N   UNL     1       2.797   6.089  19.895  0.00  0.00    +0.000 NA
ATOM      4  C   UNL     1       3.701   5.814  18.926  0.00  0.00    +0.000 A 
ATOM      5  C   UNL     1       3.944   6.600  17.790  0.00  0.00    +0.000 A 
ATOM      6  C   UNL     1       3.185   7.775  17.681  0.00  0.00    +0.000 A 
ENDROOT
BRANCH   5   7
ATOM      7  N   UNL     1       4.901   6.202  16.854  0.00  0.00    +0.000 N 
ATOM      8  C   UNL     1       6.318   6.573  17.045  0.00  0.00    +0.000 C 
ATOM      9  C   UNL     1       7.250   5.343  17.105  0.00  0.00    +0.000 C 
ATOM     10  C   UNL     1       7.199   4.492  15.816  0.00  0.00    +0.000 C 
ATOM     11  C   UNL     1       5.918   3.927  16.471  0.00  0.00    +0.000 C 
ATOM     12  C   UNL     1       4.680   4.845  16.285  0.00  0.00    +0.000 C 
ATOM     13  N   UNL     1       6.613   4.156  17.805  0.00  0.00    +0.000 NA
ATOM     14  H   UNL     1       7.283   3.418  18.027  0.00  0.00    +0.000 HD
ENDBRANCH   5   7
BRANCH   1  16
ATOM     15  N   UNL     1       0.300   9.364  19.484  0.00  0.00    +0.000 N 
ATOM     16  C   UNL     1       1.424   9.336  18.672  0.00  0.00    +0.000 C 
ATOM     17  O   UNL     1       1.796  10.251  17.937  0.00  0.00    +0.000 OA
ATOM     18  H   UNL     1       0.147   8.604  20.133  0.00  0.00    +0.000 HD
BRANCH  15  23
ATOM     19  C   UNL     1      -2.619  11.431  18.456  0.00  0.00    +0.000 A 
ATOM     20  C   UNL     1      -2.625  12.413  19.449  0.00  0.00    +0.000 A 
ATOM     21  C   UNL     1      -1.658  12.406  20.447  0.00  0.00    +0.000 A 
ATOM     22  C   UNL     1      -0.686  11.407  20.465  0.00  0.00    +0.000 A 
ATOM     23  C   UNL     1      -0.671  10.400  19.494  0.00  0.00    +0.000 A 
ATOM     24  C   UNL     1      -1.636  10.430  18.475  0.00  0.00    +0.000 A 
BRANCH  19  26
ATOM     25  C   UNL     1      -3.404  10.980  16.256  0.00  0.00    +0.000 C 
ATOM     26  O   UNL     1      -3.619  11.564  17.531  0.00  0.00    +0.000 OA
ENDBRANCH  19  26
ENDBRANCH  15  23
ENDBRANCH   1  16
TORSDOF 4
ENDMDL
