MODEL 1
REMARK VINA RESULT:      -7.3      0.000      0.000
REMARK  Name = 
REMARK  7 active torsions:
REMARK  status: ('A' for Active; 'I' for Inactive)
REMARK    1  A    between atoms: C_1  and  C_2
REMARK    2  A    between atoms: C_2  and  C_3
REMARK    3  A    between atoms: C_3  and  C_4
REMARK    4  A    between atoms: C_4  and  C_5
REMARK    5  A    between atoms: C_5  and  C_6
REMARK    6  A    between atoms: C_6  and  C_7
REMARK    7  A    between atoms: C_7  and  C_8
REMARK                            x       y       z     vdW  Elec       q    Type
REMARK                         _______ _______ _______ _____ _____    ______ ____
ROOT
ATOM      1  C   UNL     1       5.178   4.390  15.574  0.00  0.00    +0.000 C 
ATOM      2  C   UNL     1       5.839   5.684  16.019  0.00  0.00    +0.000 C 
ATOM      3  C   UNL     1       4.813   6.436  16.816  0.00  0.00    +0.000 C 
ATOM      4  O   UNL     1       4.691   7.655  16.766  0.00  0.00    +0.000 OA
ATOM      5  C   UNL     1       3.991   5.621  17.727  0.00  0.00    +0.000 A 
ATOM      6  C   UNL     1       3.188   6.250  18.687  0.00  0.00    +0.000 A 
ATOM      7  C   UNL     1       2.474   5.466  19.588  0.00  0.00    +0.000 A 
ATOM      8 CL   UNL     1       1.514   6.223  20.795  0.00  0.00    +0.000 Cl
ATOM      9  C   UNL     1       2.546   4.073  19.530  0.00  0.00    +0.000 A 
ATOM     10  C   UNL     1       3.343   3.457  18.561  0.00  0.00    +0.000 A 
ATOM     11 BR   UNL     1       3.393   1.561  18.519  0.00  0.00    +0.000 Br
ATOM     12  C   UNL     1       4.068   4.228  17.646  0.00  0.00    +0.000 A 
ATOM     13  O   UNL     1       4.863   3.588  16.725  0.00  0.00    +0.000 OA
ENDROOT
BRANCH   1  14
ATOM     14  C   UNL     1       6.113   3.590  14.654  0.00  0.00    +0.000 C 
BRANCH  14  15
ATOM     15  C   UNL     1       6.734   4.488  13.580  0.00  0.00    +0.000 C 
BRANCH  15  16
ATOM     16  C   UNL     1       6.769   3.806  12.213  0.00  0.00    +0.000 C 
BRANCH  16  17
ATOM     17  C   UNL     1       5.514   2.958  11.999  0.00  0.00    +0.000 C 
BRANCH  17  18
ATOM     18  C   UNL     1       4.320   3.825  11.602  0.00  0.00    +0.000 C 
BRANCH  18  20
ATOM     19  C   UNL     1       2.896   4.116   9.551  0.00  0.00    +0.000 C 
ATOM     20  C   UNL     1       3.441   3.126  10.567  0.00  0.00    +0.000 C 
ENDBRANCH  18  20
ENDBRANCH  17  18
ENDBRANCH  16  17
ENDBRANCH  15  16
ENDBRANCH  14  15
ENDBRANCH   1  14
TORSDOF 6
ENDMDL
MODEL 2
REMARK VINA RESULT:      -6.8      2.109      3.357
REMARK  Name = 
REMARK  7 active torsions:
REMARK  status: ('A' for Active; 'I' for Inactive)
REMARK    1  A    between atoms: C_1  and  C_2
REMARK    2  A    between atoms: C_2  and  C_3
REMARK    3  A    between atoms: C_3  and  C_4
REMARK    4  A    between atoms: C_4  and  C_5
REMARK    5  A    between atoms: C_5  and  C_6
REMARK    6  A    between atoms: C_6  and  C_7
REMARK    7  A    between atoms: C_7  and  C_8
REMARK                            x       y       z     vdW  Elec       q    Type
REMARK                         _______ _______ _______ _____ _____    ______ ____
ROOT
ATOM      1  C   UNL     1       4.583   5.018  17.190  0.00  0.00    +0.000 C 
ATOM      2  C   UNL     1       4.092   3.698  16.620  0.00  0.00    +0.000 C 
ATOM      3  C   UNL     1       3.742   2.829  17.793  0.00  0.00    +0.000 C 
ATOM      4  O   UNL     1       3.956   1.623  17.818  0.00  0.00    +0.000 OA
ATOM      5  C   UNL     1       3.054   3.508  18.905  0.00  0.00    +0.000 A 
ATOM      6  C   UNL     1       2.467   2.748  19.925  0.00  0.00    +0.000 A 
ATOM      7  C   UNL     1       1.758   3.399  20.929  0.00  0.00    +0.000 A 
ATOM      8 CL   UNL     1       1.000   2.479  22.166  0.00  0.00    +0.000 Cl
ATOM      9  C   UNL     1       1.643   4.790  20.930  0.00  0.00    +0.000 A 
ATOM     10  C   UNL     1       2.242   5.539  19.912  0.00  0.00    +0.000 A 
ATOM     11 BR   UNL     1       2.065   7.427  19.969  0.00  0.00    +0.000 Br
ATOM     12  C   UNL     1       2.959   4.903  18.893  0.00  0.00    +0.000 A 
ATOM     13  O   UNL     1       3.510   5.668  17.895  0.00  0.00    +0.000 OA
ENDROOT
BRANCH   1  14
ATOM     14  C   UNL     1       5.072   5.947  16.068  0.00  0.00    +0.000 C 
BRANCH  14  15
ATOM     15  C   UNL     1       6.601   6.010  16.029  0.00  0.00    +0.000 C 
BRANCH  15  16
ATOM     16  C   UNL     1       7.206   4.822  15.283  0.00  0.00    +0.000 C 
BRANCH  16  17
ATOM     17  C   UNL     1       6.711   4.782  13.836  0.00  0.00    +0.000 C 
BRANCH  17  18
ATOM     18  C   UNL     1       6.109   3.421  13.493  0.00  0.00    +0.000 C 
BRANCH  18  20
ATOM     19  C   UNL     1       4.445   3.339  11.611  0.00  0.00    +0.000 C 
ATOM     20  C   UNL     1       5.915   3.259  11.986  0.00  0.00    +0.000 C 
ENDBRANCH  18  20
ENDBRANCH  17  18
ENDBRANCH  16  17
ENDBRANCH  15  16
ENDBRANCH  14  15
ENDBRANCH   1  14
TORSDOF 6
ENDMDL
MODEL 3
REMARK VINA RESULT:      -6.8      2.243      3.286
REMARK  Name = 
REMARK  7 active torsions:
REMARK  status: ('A' for Active; 'I' for Inactive)
REMARK    1  A    between atoms: C_1  and  C_2
REMARK    2  A    between atoms: C_2  and  C_3
REMARK    3  A    between atoms: C_3  and  C_4
REMARK    4  A    between atoms: C_4  and  C_5
REMARK    5  A    between atoms: C_5  and  C_6
REMARK    6  A    between atoms: C_6  and  C_7
REMARK    7  A    between atoms: C_7  and  C_8
REMARK                            x       y       z     vdW  Elec       q    Type
REMARK                         _______ _______ _______ _____ _____    ______ ____
ROOT
ATOM      1  C   UNL     1       4.715   4.705  17.011  0.00  0.00    +0.000 C 
ATOM      2  C   UNL     1       4.183   3.364  16.533  0.00  0.00    +0.000 C 
ATOM      3  C   UNL     1       3.800   2.593  17.763  0.00  0.00    +0.000 C 
ATOM      4  O   UNL     1       3.974   1.384  17.874  0.00  0.00    +0.000 OA
ATOM      5  C   UNL     1       3.131   3.371  18.821  0.00  0.00    +0.000 A 
ATOM      6  C   UNL     1       2.515   2.705  19.888  0.00  0.00    +0.000 A 
ATOM      7  C   UNL     1       1.825   3.449  20.839  0.00  0.00    +0.000 A 
ATOM      8 CL   UNL     1       1.033   2.644  22.134  0.00  0.00    +0.000 Cl
ATOM      9  C   UNL     1       1.756   4.840  20.741  0.00  0.00    +0.000 A 
ATOM     10  C   UNL     1       2.383   5.494  19.676  0.00  0.00    +0.000 A 
ATOM     11 BR   UNL     1       2.269   7.386  19.598  0.00  0.00    +0.000 Br
ATOM     12  C   UNL     1       3.082   4.764  18.709  0.00  0.00    +0.000 A 
ATOM     13  O   UNL     1       3.662   5.437  17.662  0.00  0.00    +0.000 OA
ENDROOT
BRANCH   1  14
ATOM     14  C   UNL     1       5.238   5.534  15.829  0.00  0.00    +0.000 C 
BRANCH  14  15
ATOM     15  C   UNL     1       6.626   5.058  15.390  0.00  0.00    +0.000 C 
BRANCH  15  16
ATOM     16  C   UNL     1       6.696   4.809  13.884  0.00  0.00    +0.000 C 
BRANCH  16  17
ATOM     17  C   UNL     1       6.135   3.428  13.536  0.00  0.00    +0.000 C 
BRANCH  17  18
ATOM     18  C   UNL     1       5.563   3.403  12.120  0.00  0.00    +0.000 C 
BRANCH  18  20
ATOM     19  C   UNL     1       7.185   1.798  11.065  0.00  0.00    +0.000 C 
ATOM     20  C   UNL     1       5.739   2.032  11.470  0.00  0.00    +0.000 C 
ENDBRANCH  18  20
ENDBRANCH  17  18
ENDBRANCH  16  17
ENDBRANCH  15  16
ENDBRANCH  14  15
ENDBRANCH   1  14
TORSDOF 6
ENDMDL
MODEL 4
REMARK VINA RESULT:      -6.7      1.988      2.970
REMARK  Name = 
REMARK  7 active torsions:
REMARK  status: ('A' for Active; 'I' for Inactive)
REMARK    1  A    between atoms: C_1  and  C_2
REMARK    2  A    between atoms: C_2  and  C_3
REMARK    3  A    between atoms: C_3  and  C_4
REMARK    4  A    between atoms: C_4  and  C_5
REMARK    5  A    between atoms: C_5  and  C_6
REMARK    6  A    between atoms: C_6  and  C_7
REMARK    7  A    between atoms: C_7  and  C_8
REMARK                            x       y       z     vdW  Elec       q    Type
REMARK                         _______ _______ _______ _____ _____    ______ ____
ROOT
ATOM      1  C   UNL     1       4.904   4.503  16.934  0.00  0.00    +0.000 C 
ATOM      2  C   UNL     1       4.384   3.134  16.529  0.00  0.00    +0.000 C 
ATOM      3  C   UNL     1       3.968   2.443  17.795  0.00  0.00    +0.000 C 
ATOM      4  O   UNL     1       4.137   1.244  17.988  0.00  0.00    +0.000 OA
ATOM      5  C   UNL     1       3.271   3.287  18.782  0.00  0.00    +0.000 A 
ATOM      6  C   UNL     1       2.627   2.691  19.873  0.00  0.00    +0.000 A 
ATOM      7  C   UNL     1       1.912   3.493  20.756  0.00  0.00    +0.000 A 
ATOM      8 CL   UNL     1       1.085   2.772  22.078  0.00  0.00    +0.000 Cl
ATOM      9  C   UNL     1       1.848   4.875  20.567  0.00  0.00    +0.000 A 
ATOM     10  C   UNL     1       2.503   5.459  19.479  0.00  0.00    +0.000 A 
ATOM     11 BR   UNL     1       2.394   7.343  19.278  0.00  0.00    +0.000 Br
ATOM     12  C   UNL     1       3.227   4.670  18.581  0.00  0.00    +0.000 A 
ATOM     13  O   UNL     1       3.836   5.275  17.508  0.00  0.00    +0.000 OA
ENDROOT
BRANCH   1  14
ATOM     14  C   UNL     1       5.460   5.255  15.716  0.00  0.00    +0.000 C 
BRANCH  14  15
ATOM     15  C   UNL     1       6.627   4.495  15.080  0.00  0.00    +0.000 C 
BRANCH  15  16
ATOM     16  C   UNL     1       6.791   4.831  13.598  0.00  0.00    +0.000 C 
BRANCH  16  17
ATOM     17  C   UNL     1       6.360   3.652  12.724  0.00  0.00    +0.000 C 
BRANCH  17  18
ATOM     18  C   UNL     1       4.845   3.630  12.531  0.00  0.00    +0.000 C 
BRANCH  18  20
ATOM     19  C   UNL     1       3.471   3.712  10.427  0.00  0.00    +0.000 C 
ATOM     20  C   UNL     1       4.455   2.897  11.249  0.00  0.00    +0.000 C 
ENDBRANCH  18  20
ENDBRANCH  17  18
ENDBRANCH  16  17
ENDBRANCH  15  16
ENDBRANCH  14  15
ENDBRANCH   1  14
TORSDOF 6
ENDMDL
MODEL 5
REMARK VINA RESULT:      -6.7      3.601      5.770
REMARK  Name = 
REMARK  7 active torsions:
REMARK  status: ('A' for Active; 'I' for Inactive)
REMARK    1  A    between atoms: C_1  and  C_2
REMARK    2  A    between atoms: C_2  and  C_3
REMARK    3  A    between atoms: C_3  and  C_4
REMARK    4  A    between atoms: C_4  and  C_5
REMARK    5  A    between atoms: C_5  and  C_6
REMARK    6  A    between atoms: C_6  and  C_7
REMARK    7  A    between atoms: C_7  and  C_8
REMARK                            x       y       z     vdW  Elec       q    Type
REMARK                         _______ _______ _______ _____ _____    ______ ____
ROOT
ATOM      1  C   UNL     1       4.648   5.159  17.272  0.00  0.00    +0.000 C 
ATOM      2  C   UNL     1       4.176   3.849  16.663  0.00  0.00    +0.000 C 
ATOM      3  C   UNL     1       3.806   2.953  17.810  0.00  0.00    +0.000 C 
ATOM      4  O   UNL     1       4.025   1.747  17.812  0.00  0.00    +0.000 OA
ATOM      5  C   UNL     1       3.091   3.605  18.922  0.00  0.00    +0.000 A 
ATOM      6  C   UNL     1       2.486   2.820  19.912  0.00  0.00    +0.000 A 
ATOM      7  C   UNL     1       1.754   3.446  20.915  0.00  0.00    +0.000 A 
ATOM      8 CL   UNL     1       0.975   2.495  22.115  0.00  0.00    +0.000 Cl
ATOM      9  C   UNL     1       1.631   4.836  20.943  0.00  0.00    +0.000 A 
ATOM     10  C   UNL     1       2.248   5.609  19.954  0.00  0.00    +0.000 A 
ATOM     11 BR   UNL     1       2.061   7.495  20.049  0.00  0.00    +0.000 Br
ATOM     12  C   UNL     1       2.989   4.999  18.938  0.00  0.00    +0.000 A 
ATOM     13  O   UNL     1       3.558   5.788  17.968  0.00  0.00    +0.000 OA
ENDROOT
BRANCH   1  14
ATOM     14  C   UNL     1       5.156   6.113  16.181  0.00  0.00    +0.000 C 
BRANCH  14  15
ATOM     15  C   UNL     1       6.350   6.934  16.676  0.00  0.00    +0.000 C 
BRANCH  15  16
ATOM     16  C   UNL     1       6.979   6.332  17.932  0.00  0.00    +0.000 C 
BRANCH  16  17
ATOM     17  C   UNL     1       8.124   7.211  18.439  0.00  0.00    +0.000 C 
BRANCH  17  18
ATOM     18  C   UNL     1       8.014   8.633  17.893  0.00  0.00    +0.000 C 
BRANCH  18  20
ATOM     19  C   UNL     1       8.760  11.020  18.152  0.00  0.00    +0.000 C 
ATOM     20  C   UNL     1       8.920   9.597  18.658  0.00  0.00    +0.000 C 
ENDBRANCH  18  20
ENDBRANCH  17  18
ENDBRANCH  16  17
ENDBRANCH  15  16
ENDBRANCH  14  15
ENDBRANCH   1  14
TORSDOF 6
ENDMDL
MODEL 6
REMARK VINA RESULT:      -6.6      4.809      7.295
REMARK  Name = 
REMARK  7 active torsions:
REMARK  status: ('A' for Active; 'I' for Inactive)
REMARK    1  A    between atoms: C_1  and  C_2
REMARK    2  A    between atoms: C_2  and  C_3
REMARK    3  A    between atoms: C_3  and  C_4
REMARK    4  A    between atoms: C_4  and  C_5
REMARK    5  A    between atoms: C_5  and  C_6
REMARK    6  A    between atoms: C_6  and  C_7
REMARK    7  A    between atoms: C_7  and  C_8
REMARK                            x       y       z     vdW  Elec       q    Type
REMARK                         _______ _______ _______ _____ _____    ______ ____
ROOT
ATOM      1  C   UNL     1       6.916   7.390  17.633  0.00  0.00    +0.000 C 
ATOM      2  C   UNL     1       7.533   6.470  16.593  0.00  0.00    +0.000 C 
ATOM      3  C   UNL     1       7.014   5.091  16.881  0.00  0.00    +0.000 C 
ATOM      4  O   UNL     1       7.700   4.082  16.763  0.00  0.00    +0.000 OA
ATOM      5  C   UNL     1       5.591   5.011  17.255  0.00  0.00    +0.000 A 
ATOM      6  C   UNL     1       4.954   3.765  17.298  0.00  0.00    +0.000 A 
ATOM      7  C   UNL     1       3.593   3.712  17.581  0.00  0.00    +0.000 A 
ATOM      8 CL   UNL     1       2.789   2.193  17.601  0.00  0.00    +0.000 Cl
ATOM      9  C   UNL     1       2.873   4.881  17.832  0.00  0.00    +0.000 A 
ATOM     10  C   UNL     1       3.523   6.119  17.796  0.00  0.00    +0.000 A 
ATOM     11 BR   UNL     1       2.499   7.675  18.157  0.00  0.00    +0.000 Br
ATOM     12  C   UNL     1       4.890   6.193  17.513  0.00  0.00    +0.000 A 
ATOM     13  O   UNL     1       5.489   7.428  17.459  0.00  0.00    +0.000 OA
ENDROOT
BRANCH   1  14
ATOM     14  C   UNL     1       7.470   8.816  17.494  0.00  0.00    +0.000 C 
BRANCH  14  15
ATOM     15  C   UNL     1       8.591   9.076  18.504  0.00  0.00    +0.000 C 
BRANCH  15  16
ATOM     16  C   UNL     1       9.060  10.530  18.478  0.00  0.00    +0.000 C 
BRANCH  16  17
ATOM     17  C   UNL     1      10.004  10.816  19.647  0.00  0.00    +0.000 C 
BRANCH  17  18
ATOM     18  C   UNL     1      11.167  11.707  19.216  0.00  0.00    +0.000 C 
BRANCH  18  20
ATOM     19  C   UNL     1      12.027  13.099  17.306  0.00  0.00    +0.000 C 
ATOM     20  C   UNL     1      11.202  11.885  17.699  0.00  0.00    +0.000 C 
ENDBRANCH  18  20
ENDBRANCH  17  18
ENDBRANCH  16  17
ENDBRANCH  15  16
ENDBRANCH  14  15
ENDBRANCH   1  14
TORSDOF 6
ENDMDL
MODEL 7
REMARK VINA RESULT:      -6.6      3.767      5.671
REMARK  Name = 
REMARK  7 active torsions:
REMARK  status: ('A' for Active; 'I' for Inactive)
REMARK    1  A    between atoms: C_1  and  C_2
REMARK    2  A    between atoms: C_2  and  C_3
REMARK    3  A    between atoms: C_3  and  C_4
REMARK    4  A    between atoms: C_4  and  C_5
REMARK    5  A    between atoms: C_5  and  C_6
REMARK    6  A    between atoms: C_6  and  C_7
REMARK    7  A    between atoms: C_7  and  C_8
REMARK                            x       y       z     vdW  Elec       q    Type
REMARK                         _______ _______ _______ _____ _____    ______ ____
ROOT
ATOM      1  C   UNL     1       3.662   6.330  18.300  0.00  0.00    +0.000 C 
ATOM      2  C   UNL     1       2.844   5.153  18.804  0.00  0.00    +0.000 C 
ATOM      3  C   UNL     1       2.295   5.556  20.142  0.00  0.00    +0.000 C 
ATOM      4  O   UNL     1       2.193   4.778  21.084  0.00  0.00    +0.000 OA
ATOM      5  C   UNL     1       1.816   6.947  20.242  0.00  0.00    +0.000 A 
ATOM      6  C   UNL     1       1.064   7.343  21.355  0.00  0.00    +0.000 A 
ATOM      7  C   UNL     1       0.557   8.637  21.400  0.00  0.00    +0.000 A 
ATOM      8 CL   UNL     1      -0.398   9.128  22.742  0.00  0.00    +0.000 Cl
ATOM      9  C   UNL     1       0.802   9.534  20.358  0.00  0.00    +0.000 A 
ATOM     10  C   UNL     1       1.562   9.128  19.257  0.00  0.00    +0.000 A 
ATOM     11 BR   UNL     1       1.876  10.391  17.875  0.00  0.00    +0.000 Br
ATOM     12  C   UNL     1       2.081   7.832  19.193  0.00  0.00    +0.000 A 
ATOM     13  O   UNL     1       2.800   7.460  18.082  0.00  0.00    +0.000 OA
ENDROOT
BRANCH   1  14
ATOM     14  C   UNL     1       4.361   5.979  16.978  0.00  0.00    +0.000 C 
BRANCH  14  15
ATOM     15  C   UNL     1       4.660   4.480  16.891  0.00  0.00    +0.000 C 
BRANCH  15  16
ATOM     16  C   UNL     1       5.860   4.186  15.991  0.00  0.00    +0.000 C 
BRANCH  16  17
ATOM     17  C   UNL     1       7.058   5.052  16.385  0.00  0.00    +0.000 C 
BRANCH  17  18
ATOM     18  C   UNL     1       7.563   4.697  17.782  0.00  0.00    +0.000 C 
BRANCH  18  20
ATOM     19  C   UNL     1       7.659   7.209  17.810  0.00  0.00    +0.000 C 
ATOM     20  C   UNL     1       7.736   5.943  18.648  0.00  0.00    +0.000 C 
ENDBRANCH  18  20
ENDBRANCH  17  18
ENDBRANCH  16  17
ENDBRANCH  15  16
ENDBRANCH  14  15
ENDBRANCH   1  14
TORSDOF 6
ENDMDL
MODEL 8
REMARK VINA RESULT:      -6.6      4.764      6.886
REMARK  Name = 
REMARK  7 active torsions:
REMARK  status: ('A' for Active; 'I' for Inactive)
REMARK    1  A    between atoms: C_1  and  C_2
REMARK    2  A    between atoms: C_2  and  C_3
REMARK    3  A    between atoms: C_3  and  C_4
REMARK    4  A    between atoms: C_4  and  C_5
REMARK    5  A    between atoms: C_5  and  C_6
REMARK    6  A    between atoms: C_6  and  C_7
REMARK    7  A    between atoms: C_7  and  C_8
REMARK                            x       y       z     vdW  Elec       q    Type
REMARK                         _______ _______ _______ _____ _____    ______ ____
ROOT
ATOM      1  C   UNL     1       1.703   6.461  19.991  0.00  0.00    +0.000 C 
ATOM      2  C   UNL     1       2.851   6.850  19.075  0.00  0.00    +0.000 C 
ATOM      3  C   UNL     1       2.390   8.048  18.297  0.00  0.00    +0.000 C 
ATOM      4  O   UNL     1       2.672   8.227  17.117  0.00  0.00    +0.000 OA
ATOM      5  C   UNL     1       1.621   9.047  19.060  0.00  0.00    +0.000 A 
ATOM      6  C   UNL     1       1.364  10.303  18.498  0.00  0.00    +0.000 A 
ATOM      7  C   UNL     1       0.700  11.260  19.258  0.00  0.00    +0.000 A 
ATOM      8 CL   UNL     1       0.410  12.819  18.595  0.00  0.00    +0.000 Cl
ATOM      9  C   UNL     1       0.285  10.972  20.559  0.00  0.00    +0.000 A 
ATOM     10  C   UNL     1       0.539   9.710  21.106  0.00  0.00    +0.000 A 
ATOM     11 BR   UNL     1      -0.059   9.367  22.874  0.00  0.00    +0.000 Br
ATOM     12  C   UNL     1       1.204   8.734  20.358  0.00  0.00    +0.000 A 
ATOM     13  O   UNL     1       1.461   7.516  20.938  0.00  0.00    +0.000 OA
ENDROOT
BRANCH   1  14
ATOM     14  C   UNL     1       2.033   5.172  20.759  0.00  0.00    +0.000 C 
BRANCH  14  15
ATOM     15  C   UNL     1       0.994   4.082  20.485  0.00  0.00    +0.000 C 
BRANCH  15  16
ATOM     16  C   UNL     1       1.612   2.685  20.497  0.00  0.00    +0.000 C 
BRANCH  16  17
ATOM     17  C   UNL     1       1.689   2.113  19.080  0.00  0.00    +0.000 C 
BRANCH  17  18
ATOM     18  C   UNL     1       3.128   1.771  18.698  0.00  0.00    +0.000 C 
BRANCH  18  20
ATOM     19  C   UNL     1       3.219   3.736  17.133  0.00  0.00    +0.000 C 
ATOM     20  C   UNL     1       3.907   3.017  18.281  0.00  0.00    +0.000 C 
ENDBRANCH  18  20
ENDBRANCH  17  18
ENDBRANCH  16  17
ENDBRANCH  15  16
ENDBRANCH  14  15
ENDBRANCH   1  14
TORSDOF 6
ENDMDL
MODEL 9
REMARK VINA RESULT:      -6.5      3.950      7.558
REMARK  Name = 
REMARK  7 active torsions:
REMARK  status: ('A' for Active; 'I' for Inactive)
REMARK    1  A    between atoms: C_1  and  C_2
REMARK    2  A    between atoms: C_2  and  C_3
REMARK    3  A    between atoms: C_3  and  C_4
REMARK    4  A    between atoms: C_4  and  C_5
REMARK    5  A    between atoms: C_5  and  C_6
REMARK    6  A    between atoms: C_6  and  C_7
REMARK    7  A    between atoms: C_7  and  C_8
REMARK                            x       y       z     vdW  Elec       q    Type
REMARK                         _______ _______ _______ _____ _____    ______ ____
ROOT
ATOM      1  C   UNL     1       2.364   7.537  18.205  0.00  0.00    +0.000 C 
ATOM      2  C   UNL     1       2.276   7.212  19.687  0.00  0.00    +0.000 C 
ATOM      3  C   UNL     1       2.080   5.727  19.788  0.00  0.00    +0.000 C 
ATOM      4  O   UNL     1       1.353   5.205  20.625  0.00  0.00    +0.000 OA
ATOM      5  C   UNL     1       2.876   4.914  18.851  0.00  0.00    +0.000 A 
ATOM      6  C   UNL     1       2.956   3.527  19.031  0.00  0.00    +0.000 A 
ATOM      7  C   UNL     1       3.769   2.783  18.183  0.00  0.00    +0.000 A 
ATOM      8 CL   UNL     1       3.906   1.085  18.414  0.00  0.00    +0.000 Cl
ATOM      9  C   UNL     1       4.487   3.404  17.160  0.00  0.00    +0.000 A 
ATOM     10  C   UNL     1       4.392   4.788  16.985  0.00  0.00    +0.000 A 
ATOM     11 BR   UNL     1       5.379   5.579  15.571  0.00  0.00    +0.000 Br
ATOM     12  C   UNL     1       3.580   5.554  17.827  0.00  0.00    +0.000 A 
ATOM     13  O   UNL     1       3.532   6.915  17.642  0.00  0.00    +0.000 OA
ENDROOT
BRANCH   1  14
ATOM     14  C   UNL     1       2.457   9.054  17.986  0.00  0.00    +0.000 C 
BRANCH  14  15
ATOM     15  C   UNL     1       1.094   9.726  18.173  0.00  0.00    +0.000 C 
BRANCH  15  16
ATOM     16  C   UNL     1       1.203  11.038  18.949  0.00  0.00    +0.000 C 
BRANCH  16  17
ATOM     17  C   UNL     1       0.609  10.890  20.351  0.00  0.00    +0.000 C 
BRANCH  17  18
ATOM     18  C   UNL     1      -0.379   9.727  20.414  0.00  0.00    +0.000 C 
BRANCH  18  20
ATOM     19  C   UNL     1       1.081   9.230  22.399  0.00  0.00    +0.000 C 
ATOM     20  C   UNL     1      -0.255   8.958  21.729  0.00  0.00    +0.000 C 
ENDBRANCH  18  20
ENDBRANCH  17  18
ENDBRANCH  16  17
ENDBRANCH  15  16
ENDBRANCH  14  15
ENDBRANCH   1  14
TORSDOF 6
ENDMDL
