MODEL 1
REMARK VINA RESULT:      -7.6      0.000      0.000
REMARK  Name = 
REMARK  6 active torsions:
REMARK  status: ('A' for Active; 'I' for Inactive)
REMARK    1  A    between atoms: N_1  and  C_2
REMARK    2  A    between atoms: C_4  and  C_5
REMARK    3  A    between atoms: N_7  and  C_8
REMARK    4  A    between atoms: C_8  and  C_9
REMARK    5  A    between atoms: C_9  and  O_10
REMARK    6  A    between atoms: O_10  and  C_11
REMARK                            x       y       z     vdW  Elec       q    Type
REMARK                         _______ _______ _______ _____ _____    ______ ____
ROOT
ATOM      1  C   UNL     1       6.866   5.630  16.145  0.00  0.00    +0.000 C 
ATOM      2  O   UNL     1       6.405   6.746  16.364  0.00  0.00    +0.000 OA
ATOM      3  N   UNL     1       7.410   4.824  17.121  0.00  0.00    +0.000 N 
ATOM      4  H   UNL     1       7.871   3.985  16.776  0.00  0.00    +0.000 HD
ENDROOT
BRANCH   1   7
ATOM      5  C   UNL     1       6.456   3.714  13.059  0.00  0.00    +0.000 A 
ATOM      6  C   UNL     1       6.083   3.940  14.358  0.00  0.00    +0.000 A 
ATOM      7  C   UNL     1       6.884   5.027  14.802  0.00  0.00    +0.000 A 
ATOM      8  N   UNL     1       7.705   5.461  13.819  0.00  0.00    +0.000 NA
ATOM      9  N   UNL     1       7.422   4.644  12.785  0.00  0.00    +0.000 N 
ATOM     10  H   UNL     1       7.923   4.769  11.913  0.00  0.00    +0.000 HD
BRANCH   5  11
ATOM     11  N   UNL     1       6.037   2.811  12.157  0.00  0.00    +0.000 N 
ATOM     12  H   UNL     1       5.061   2.525  12.112  0.00  0.00    +0.000 HD
ATOM     13  H   UNL     1       6.649   2.281  11.543  0.00  0.00    +0.000 HD
ENDBRANCH   5  11
ENDBRANCH   1   7
BRANCH   3  14
ATOM     14  C   UNL     1       7.563   5.259  18.495  0.00  0.00    +0.000 C 
BRANCH  14  15
ATOM     15  C   UNL     1       6.244   5.195  19.265  0.00  0.00    +0.000 C 
BRANCH  15  16
ATOM     16  O   UNL     1       5.617   3.927  19.056  0.00  0.00    +0.000 OA
BRANCH  16  17
ATOM     17  C   UNL     1       4.314   3.957  18.628  0.00  0.00    +0.000 A 
ATOM     18  C   UNL     1       3.786   5.242  18.453  0.00  0.00    +0.000 A 
ATOM     19  C   UNL     1       2.464   5.420  18.026  0.00  0.00    +0.000 A 
ATOM     20  C   UNL     1       1.656   4.313  17.770  0.00  0.00    +0.000 A 
ATOM     21  C   UNL     1       2.171   3.031  17.940  0.00  0.00    +0.000 A 
ATOM     22  C   UNL     1       3.489   2.858  18.365  0.00  0.00    +0.000 A 
ATOM     23  F   UNL     1       3.923   1.598  18.512  0.00  0.00    +0.000 F 
ENDBRANCH  16  17
ENDBRANCH  15  16
ENDBRANCH  14  15
ENDBRANCH   3  14
TORSDOF 6
ENDMDL
MODEL 2
REMARK VINA RESULT:      -7.5      1.694      1.916
REMARK  Name = 
REMARK  6 active torsions:
REMARK  status: ('A' for Active; 'I' for Inactive)
REMARK    1  A    between atoms: N_1  and  C_2
REMARK    2  A    between atoms: C_4  and  C_5
REMARK    3  A    between atoms: N_7  and  C_8
REMARK    4  A    between atoms: C_8  and  C_9
REMARK    5  A    between atoms: C_9  and  O_10
REMARK    6  A    between atoms: O_10  and  C_11
REMARK                            x       y       z     vdW  Elec       q    Type
REMARK                         _______ _______ _______ _____ _____    ______ ____
ROOT
ATOM      1  C   UNL     1       7.101   4.609  16.884  0.00  0.00    +0.000 C 
ATOM      2  O   UNL     1       8.138   4.330  17.478  0.00  0.00    +0.000 OA
ATOM      3  N   UNL     1       5.933   4.975  17.517  0.00  0.00    +0.000 N 
ATOM      4  H   UNL     1       5.121   5.047  16.909  0.00  0.00    +0.000 HD
ENDROOT
BRANCH   1   7
ATOM      5  C   UNL     1       6.430   4.030  13.337  0.00  0.00    +0.000 A 
ATOM      6  C   UNL     1       6.195   3.696  14.645  0.00  0.00    +0.000 A 
ATOM      7  C   UNL     1       6.994   4.584  15.415  0.00  0.00    +0.000 A 
ATOM      8  N   UNL     1       7.681   5.436  14.621  0.00  0.00    +0.000 NA
ATOM      9  N   UNL     1       7.320   5.069  13.375  0.00  0.00    +0.000 N 
ATOM     10  H   UNL     1       7.715   5.568  12.587  0.00  0.00    +0.000 HD
BRANCH   5  11
ATOM     11  N   UNL     1       5.952   3.522  12.189  0.00  0.00    +0.000 N 
ATOM     12  H   UNL     1       5.016   3.751  11.862  0.00  0.00    +0.000 HD
ATOM     13  H   UNL     1       6.422   2.814  11.631  0.00  0.00    +0.000 HD
ENDBRANCH   5  11
ENDBRANCH   1   7
BRANCH   3  14
ATOM     14  C   UNL     1       5.800   4.984  18.960  0.00  0.00    +0.000 C 
BRANCH  14  15
ATOM     15  C   UNL     1       4.563   5.758  19.415  0.00  0.00    +0.000 C 
BRANCH  15  16
ATOM     16  O   UNL     1       3.494   5.560  18.487  0.00  0.00    +0.000 OA
BRANCH  16  17
ATOM     17  C   UNL     1       2.571   4.599  18.817  0.00  0.00    +0.000 A 
ATOM     18  C   UNL     1       2.004   4.747  20.088  0.00  0.00    +0.000 A 
ATOM     19  C   UNL     1       1.052   3.833  20.557  0.00  0.00    +0.000 A 
ATOM     20  C   UNL     1       0.659   2.760  19.758  0.00  0.00    +0.000 A 
ATOM     21  C   UNL     1       1.216   2.605  18.492  0.00  0.00    +0.000 A 
ATOM     22  C   UNL     1       2.164   3.518  18.028  0.00  0.00    +0.000 A 
ATOM     23  F   UNL     1       2.663   3.310  16.802  0.00  0.00    +0.000 F 
ENDBRANCH  16  17
ENDBRANCH  15  16
ENDBRANCH  14  15
ENDBRANCH   3  14
TORSDOF 6
ENDMDL
MODEL 3
REMARK VINA RESULT:      -7.3      1.199      1.542
REMARK  Name = 
REMARK  6 active torsions:
REMARK  status: ('A' for Active; 'I' for Inactive)
REMARK    1  A    between atoms: N_1  and  C_2
REMARK    2  A    between atoms: C_4  and  C_5
REMARK    3  A    between atoms: N_7  and  C_8
REMARK    4  A    between atoms: C_8  and  C_9
REMARK    5  A    between atoms: C_9  and  O_10
REMARK    6  A    between atoms: O_10  and  C_11
REMARK                            x       y       z     vdW  Elec       q    Type
REMARK                         _______ _______ _______ _____ _____    ______ ____
ROOT
ATOM      1  C   UNL     1       7.312   5.420  16.036  0.00  0.00    +0.000 C 
ATOM      2  O   UNL     1       7.398   6.621  16.271  0.00  0.00    +0.000 OA
ATOM      3  N   UNL     1       7.394   4.444  17.005  0.00  0.00    +0.000 N 
ATOM      4  H   UNL     1       7.439   3.492  16.651  0.00  0.00    +0.000 HD
ENDROOT
BRANCH   1   7
ATOM      5  C   UNL     1       6.380   3.675  12.961  0.00  0.00    +0.000 A 
ATOM      6  C   UNL     1       6.221   3.837  14.312  0.00  0.00    +0.000 A 
ATOM      7  C   UNL     1       7.105   4.888  14.678  0.00  0.00    +0.000 A 
ATOM      8  N   UNL     1       7.769   5.364  13.601  0.00  0.00    +0.000 NA
ATOM      9  N   UNL     1       7.309   4.607  12.584  0.00  0.00    +0.000 N 
ATOM     10  H   UNL     1       7.670   4.773  11.652  0.00  0.00    +0.000 HD
BRANCH   5  11
ATOM     11  N   UNL     1       5.806   2.827  12.093  0.00  0.00    +0.000 N 
ATOM     12  H   UNL     1       5.836   1.820  12.241  0.00  0.00    +0.000 HD
ATOM     13  H   UNL     1       5.405   3.099  11.199  0.00  0.00    +0.000 HD
ENDBRANCH   5  11
ENDBRANCH   1   7
BRANCH   3  14
ATOM     14  C   UNL     1       7.676   4.748  18.394  0.00  0.00    +0.000 C 
BRANCH  14  15
ATOM     15  C   UNL     1       6.419   5.169  19.153  0.00  0.00    +0.000 C 
BRANCH  15  16
ATOM     16  O   UNL     1       5.565   4.039  19.351  0.00  0.00    +0.000 OA
BRANCH  16  17
ATOM     17  C   UNL     1       4.298   4.137  18.834  0.00  0.00    +0.000 A 
ATOM     18  C   UNL     1       3.988   3.176  17.864  0.00  0.00    +0.000 A 
ATOM     19  C   UNL     1       2.731   3.163  17.247  0.00  0.00    +0.000 A 
ATOM     20  C   UNL     1       1.770   4.112  17.594  0.00  0.00    +0.000 A 
ATOM     21  C   UNL     1       2.068   5.071  18.559  0.00  0.00    +0.000 A 
ATOM     22  C   UNL     1       3.321   5.080  19.171  0.00  0.00    +0.000 A 
ATOM     23  F   UNL     1       3.545   6.031  20.089  0.00  0.00    +0.000 F 
ENDBRANCH  16  17
ENDBRANCH  15  16
ENDBRANCH  14  15
ENDBRANCH   3  14
TORSDOF 6
ENDMDL
MODEL 4
REMARK VINA RESULT:      -7.3      1.248      1.361
REMARK  Name = 
REMARK  6 active torsions:
REMARK  status: ('A' for Active; 'I' for Inactive)
REMARK    1  A    between atoms: N_1  and  C_2
REMARK    2  A    between atoms: C_4  and  C_5
REMARK    3  A    between atoms: N_7  and  C_8
REMARK    4  A    between atoms: C_8  and  C_9
REMARK    5  A    between atoms: C_9  and  O_10
REMARK    6  A    between atoms: O_10  and  C_11
REMARK                            x       y       z     vdW  Elec       q    Type
REMARK                         _______ _______ _______ _____ _____    ______ ____
ROOT
ATOM      1  C   UNL     1       6.959   5.352  16.191  0.00  0.00    +0.000 C 
ATOM      2  O   UNL     1       7.455   6.433  16.494  0.00  0.00    +0.000 OA
ATOM      3  N   UNL     1       6.395   4.488  17.104  0.00  0.00    +0.000 N 
ATOM      4  H   UNL     1       6.145   3.575  16.732  0.00  0.00    +0.000 HD
ENDROOT
BRANCH   1   7
ATOM      5  C   UNL     1       6.408   3.684  12.985  0.00  0.00    +0.000 A 
ATOM      6  C   UNL     1       6.102   3.799  14.315  0.00  0.00    +0.000 A 
ATOM      7  C   UNL     1       6.913   4.859  14.804  0.00  0.00    +0.000 A 
ATOM      8  N   UNL     1       7.675   5.384  13.819  0.00  0.00    +0.000 NA
ATOM      9  N   UNL     1       7.346   4.649  12.737  0.00  0.00    +0.000 N 
ATOM     10  H   UNL     1       7.799   4.852  11.854  0.00  0.00    +0.000 HD
BRANCH   5  11
ATOM     11  N   UNL     1       5.952   2.851  12.035  0.00  0.00    +0.000 N 
ATOM     12  H   UNL     1       6.586   2.247  11.516  0.00  0.00    +0.000 HD
ATOM     13  H   UNL     1       4.994   2.831  11.695  0.00  0.00    +0.000 HD
ENDBRANCH   5  11
ENDBRANCH   1   7
BRANCH   3  14
ATOM     14  C   UNL     1       6.409   4.745  18.531  0.00  0.00    +0.000 C 
BRANCH  14  15
ATOM     15  C   UNL     1       5.053   5.235  19.037  0.00  0.00    +0.000 C 
BRANCH  15  16
ATOM     16  O   UNL     1       4.508   4.294  19.964  0.00  0.00    +0.000 OA
BRANCH  16  17
ATOM     17  C   UNL     1       3.291   3.752  19.636  0.00  0.00    +0.000 A 
ATOM     18  C   UNL     1       2.227   4.174  20.443  0.00  0.00    +0.000 A 
ATOM     19  C   UNL     1       0.930   3.694  20.224  0.00  0.00    +0.000 A 
ATOM     20  C   UNL     1       0.683   2.786  19.196  0.00  0.00    +0.000 A 
ATOM     21  C   UNL     1       1.733   2.360  18.387  0.00  0.00    +0.000 A 
ATOM     22  C   UNL     1       3.024   2.841  18.608  0.00  0.00    +0.000 A 
ATOM     23  F   UNL     1       3.991   2.390  17.796  0.00  0.00    +0.000 F 
ENDBRANCH  16  17
ENDBRANCH  15  16
ENDBRANCH  14  15
ENDBRANCH   3  14
TORSDOF 6
ENDMDL
MODEL 5
REMARK VINA RESULT:      -7.3      1.711      2.062
REMARK  Name = 
REMARK  6 active torsions:
REMARK  status: ('A' for Active; 'I' for Inactive)
REMARK    1  A    between atoms: N_1  and  C_2
REMARK    2  A    between atoms: C_4  and  C_5
REMARK    3  A    between atoms: N_7  and  C_8
REMARK    4  A    between atoms: C_8  and  C_9
REMARK    5  A    between atoms: C_9  and  O_10
REMARK    6  A    between atoms: O_10  and  C_11
REMARK                            x       y       z     vdW  Elec       q    Type
REMARK                         _______ _______ _______ _____ _____    ______ ____
ROOT
ATOM      1  C   UNL     1       6.854   5.374  16.329  0.00  0.00    +0.000 C 
ATOM      2  O   UNL     1       7.477   6.370  16.683  0.00  0.00    +0.000 OA
ATOM      3  N   UNL     1       6.101   4.600  17.186  0.00  0.00    +0.000 N 
ATOM      4  H   UNL     1       5.750   3.734  16.783  0.00  0.00    +0.000 HD
ENDROOT
BRANCH   1   7
ATOM      5  C   UNL     1       6.389   3.739  13.093  0.00  0.00    +0.000 A 
ATOM      6  C   UNL     1       6.056   3.831  14.419  0.00  0.00    +0.000 A 
ATOM      7  C   UNL     1       6.841   4.898  14.935  0.00  0.00    +0.000 A 
ATOM      8  N   UNL     1       7.612   5.448  13.972  0.00  0.00    +0.000 NA
ATOM      9  N   UNL     1       7.317   4.720  12.875  0.00  0.00    +0.000 N 
ATOM     10  H   UNL     1       7.783   4.942  12.003  0.00  0.00    +0.000 HD
BRANCH   5  11
ATOM     11  N   UNL     1       5.965   2.910  12.125  0.00  0.00    +0.000 N 
ATOM     12  H   UNL     1       6.358   2.950  11.187  0.00  0.00    +0.000 HD
ATOM     13  H   UNL     1       5.176   2.275  12.213  0.00  0.00    +0.000 HD
ENDBRANCH   5  11
ENDBRANCH   1   7
BRANCH   3  14
ATOM     14  C   UNL     1       6.045   4.846  18.612  0.00  0.00    +0.000 C 
BRANCH  14  15
ATOM     15  C   UNL     1       4.844   5.711  18.996  0.00  0.00    +0.000 C 
BRANCH  15  16
ATOM     16  O   UNL     1       3.737   5.418  18.139  0.00  0.00    +0.000 OA
BRANCH  16  17
ATOM     17  C   UNL     1       2.764   4.603  18.661  0.00  0.00    +0.000 A 
ATOM     18  C   UNL     1       2.591   3.391  17.981  0.00  0.00    +0.000 A 
ATOM     19  C   UNL     1       1.627   2.467  18.401  0.00  0.00    +0.000 A 
ATOM     20  C   UNL     1       0.823   2.747  19.506  0.00  0.00    +0.000 A 
ATOM     21  C   UNL     1       0.988   3.949  20.190  0.00  0.00    +0.000 A 
ATOM     22  C   UNL     1       1.950   4.866  19.768  0.00  0.00    +0.000 A 
ATOM     23  F   UNL     1       2.056   6.005  20.468  0.00  0.00    +0.000 F 
ENDBRANCH  16  17
ENDBRANCH  15  16
ENDBRANCH  14  15
ENDBRANCH   3  14
TORSDOF 6
ENDMDL
MODEL 6
REMARK VINA RESULT:      -7.2      1.790      2.011
REMARK  Name = 
REMARK  6 active torsions:
REMARK  status: ('A' for Active; 'I' for Inactive)
REMARK    1  A    between atoms: N_1  and  C_2
REMARK    2  A    between atoms: C_4  and  C_5
REMARK    3  A    between atoms: N_7  and  C_8
REMARK    4  A    between atoms: C_8  and  C_9
REMARK    5  A    between atoms: C_9  and  O_10
REMARK    6  A    between atoms: O_10  and  C_11
REMARK                            x       y       z     vdW  Elec       q    Type
REMARK                         _______ _______ _______ _____ _____    ______ ____
ROOT
ATOM      1  C   UNL     1       7.224   4.700  16.818  0.00  0.00    +0.000 C 
ATOM      2  O   UNL     1       8.186   4.205  17.399  0.00  0.00    +0.000 OA
ATOM      3  N   UNL     1       6.208   5.373  17.460  0.00  0.00    +0.000 N 
ATOM      4  H   UNL     1       5.414   5.613  16.871  0.00  0.00    +0.000 HD
ENDROOT
BRANCH   1   7
ATOM      5  C   UNL     1       6.395   4.016  13.324  0.00  0.00    +0.000 A 
ATOM      6  C   UNL     1       6.209   3.731  14.651  0.00  0.00    +0.000 A 
ATOM      7  C   UNL     1       7.056   4.628  15.356  0.00  0.00    +0.000 A 
ATOM      8  N   UNL     1       7.724   5.439  14.506  0.00  0.00    +0.000 NA
ATOM      9  N   UNL     1       7.304   5.038  13.289  0.00  0.00    +0.000 N 
ATOM     10  H   UNL     1       7.675   5.502  12.468  0.00  0.00    +0.000 HD
BRANCH   5  11
ATOM     11  N   UNL     1       5.860   3.479  12.215  0.00  0.00    +0.000 N 
ATOM     12  H   UNL     1       5.605   2.494  12.176  0.00  0.00    +0.000 HD
ATOM     13  H   UNL     1       5.768   3.962  11.326  0.00  0.00    +0.000 HD
ENDBRANCH   5  11
ENDBRANCH   1   7
BRANCH   3  14
ATOM     14  C   UNL     1       6.140   5.488  18.903  0.00  0.00    +0.000 C 
BRANCH  14  15
ATOM     15  C   UNL     1       4.697   5.516  19.406  0.00  0.00    +0.000 C 
BRANCH  15  16
ATOM     16  O   UNL     1       4.391   4.294  20.082  0.00  0.00    +0.000 OA
BRANCH  16  17
ATOM     17  C   UNL     1       3.167   3.737  19.807  0.00  0.00    +0.000 A 
ATOM     18  C   UNL     1       2.950   3.445  18.455  0.00  0.00    +0.000 A 
ATOM     19  C   UNL     1       1.741   2.880  18.031  0.00  0.00    +0.000 A 
ATOM     20  C   UNL     1       0.735   2.601  18.957  0.00  0.00    +0.000 A 
ATOM     21  C   UNL     1       0.942   2.887  20.304  0.00  0.00    +0.000 A 
ATOM     22  C   UNL     1       2.148   3.450  20.722  0.00  0.00    +0.000 A 
ATOM     23  F   UNL     1       2.283   3.703  22.031  0.00  0.00    +0.000 F 
ENDBRANCH  16  17
ENDBRANCH  15  16
ENDBRANCH  14  15
ENDBRANCH   3  14
TORSDOF 6
ENDMDL
MODEL 7
REMARK VINA RESULT:      -7.2      1.386      1.636
REMARK  Name = 
REMARK  6 active torsions:
REMARK  status: ('A' for Active; 'I' for Inactive)
REMARK    1  A    between atoms: N_1  and  C_2
REMARK    2  A    between atoms: C_4  and  C_5
REMARK    3  A    between atoms: N_7  and  C_8
REMARK    4  A    between atoms: C_8  and  C_9
REMARK    5  A    between atoms: C_9  and  O_10
REMARK    6  A    between atoms: O_10  and  C_11
REMARK                            x       y       z     vdW  Elec       q    Type
REMARK                         _______ _______ _______ _____ _____    ______ ____
ROOT
ATOM      1  C   UNL     1       6.557   5.680  16.289  0.00  0.00    +0.000 C 
ATOM      2  O   UNL     1       6.306   6.870  16.453  0.00  0.00    +0.000 OA
ATOM      3  N   UNL     1       6.740   4.788  17.323  0.00  0.00    +0.000 N 
ATOM      4  H   UNL     1       7.072   3.869  17.042  0.00  0.00    +0.000 HD
ENDROOT
BRANCH   1   7
ATOM      5  C   UNL     1       6.392   3.766  13.178  0.00  0.00    +0.000 A 
ATOM      6  C   UNL     1       5.902   4.007  14.435  0.00  0.00    +0.000 A 
ATOM      7  C   UNL     1       6.687   5.072  14.953  0.00  0.00    +0.000 A 
ATOM      8  N   UNL     1       7.610   5.481  14.055  0.00  0.00    +0.000 NA
ATOM      9  N   UNL     1       7.405   4.668  12.998  0.00  0.00    +0.000 N 
ATOM     10  H   UNL     1       7.992   4.777  12.179  0.00  0.00    +0.000 HD
BRANCH   5  11
ATOM     11  N   UNL     1       6.037   2.873  12.241  0.00  0.00    +0.000 N 
ATOM     12  H   UNL     1       6.228   1.880  12.360  0.00  0.00    +0.000 HD
ATOM     13  H   UNL     1       5.662   3.113  11.327  0.00  0.00    +0.000 HD
ENDBRANCH   5  11
ENDBRANCH   1   7
BRANCH   3  14
ATOM     14  C   UNL     1       6.734   5.196  18.714  0.00  0.00    +0.000 C 
BRANCH  14  15
ATOM     15  C   UNL     1       5.338   5.110  19.329  0.00  0.00    +0.000 C 
BRANCH  15  16
ATOM     16  O   UNL     1       5.017   3.748  19.624  0.00  0.00    +0.000 OA
BRANCH  16  17
ATOM     17  C   UNL     1       3.723   3.361  19.381  0.00  0.00    +0.000 A 
ATOM     18  C   UNL     1       3.530   2.705  18.159  0.00  0.00    +0.000 A 
ATOM     19  C   UNL     1       2.258   2.262  17.779  0.00  0.00    +0.000 A 
ATOM     20  C   UNL     1       1.164   2.471  18.619  0.00  0.00    +0.000 A 
ATOM     21  C   UNL     1       1.345   3.121  19.836  0.00  0.00    +0.000 A 
ATOM     22  C   UNL     1       2.615   3.561  20.211  0.00  0.00    +0.000 A 
ATOM     23  F   UNL     1       2.722   4.182  21.394  0.00  0.00    +0.000 F 
ENDBRANCH  16  17
ENDBRANCH  15  16
ENDBRANCH  14  15
ENDBRANCH   3  14
TORSDOF 6
ENDMDL
MODEL 8
REMARK VINA RESULT:      -7.1      1.521      1.660
REMARK  Name = 
REMARK  6 active torsions:
REMARK  status: ('A' for Active; 'I' for Inactive)
REMARK    1  A    between atoms: N_1  and  C_2
REMARK    2  A    between atoms: C_4  and  C_5
REMARK    3  A    between atoms: N_7  and  C_8
REMARK    4  A    between atoms: C_8  and  C_9
REMARK    5  A    between atoms: C_9  and  O_10
REMARK    6  A    between atoms: O_10  and  C_11
REMARK                            x       y       z     vdW  Elec       q    Type
REMARK                         _______ _______ _______ _____ _____    ______ ____
ROOT
ATOM      1  C   UNL     1       6.546   5.710  15.809  0.00  0.00    +0.000 C 
ATOM      2  O   UNL     1       7.513   6.190  16.392  0.00  0.00    +0.000 OA
ATOM      3  N   UNL     1       5.257   5.768  16.291  0.00  0.00    +0.000 N 
ATOM      4  H   UNL     1       4.580   5.215  15.771  0.00  0.00    +0.000 HD
ENDROOT
BRANCH   1   7
ATOM      5  C   UNL     1       6.376   3.575  12.846  0.00  0.00    +0.000 A 
ATOM      6  C   UNL     1       5.918   3.879  14.100  0.00  0.00    +0.000 A 
ATOM      7  C   UNL     1       6.663   5.016  14.515  0.00  0.00    +0.000 A 
ATOM      8  N   UNL     1       7.532   5.405  13.556  0.00  0.00    +0.000 NA
ATOM      9  N   UNL     1       7.335   4.511  12.566  0.00  0.00    +0.000 N 
ATOM     10  H   UNL     1       7.887   4.591  11.720  0.00  0.00    +0.000 HD
BRANCH   5  11
ATOM     11  N   UNL     1       6.037   2.601  11.986  0.00  0.00    +0.000 N 
ATOM     12  H   UNL     1       5.097   2.209  11.978  0.00  0.00    +0.000 HD
ATOM     13  H   UNL     1       6.689   2.119  11.373  0.00  0.00    +0.000 HD
ENDBRANCH   5  11
ENDBRANCH   1   7
BRANCH   3  14
ATOM     14  C   UNL     1       4.935   6.335  17.585  0.00  0.00    +0.000 C 
BRANCH  14  15
ATOM     15  C   UNL     1       4.997   5.291  18.699  0.00  0.00    +0.000 C 
BRANCH  15  16
ATOM     16  O   UNL     1       4.369   4.080  18.270  0.00  0.00    +0.000 OA
BRANCH  16  17
ATOM     17  C   UNL     1       3.166   3.778  18.857  0.00  0.00    +0.000 A 
ATOM     18  C   UNL     1       2.891   4.496  20.027  0.00  0.00    +0.000 A 
ATOM     19  C   UNL     1       1.701   4.283  20.733  0.00  0.00    +0.000 A 
ATOM     20  C   UNL     1       0.773   3.348  20.276  0.00  0.00    +0.000 A 
ATOM     21  C   UNL     1       1.036   2.630  19.113  0.00  0.00    +0.000 A 
ATOM     22  C   UNL     1       2.223   2.845  18.412  0.00  0.00    +0.000 A 
ATOM     23  F   UNL     1       2.416   2.120  17.302  0.00  0.00    +0.000 F 
ENDBRANCH  16  17
ENDBRANCH  15  16
ENDBRANCH  14  15
ENDBRANCH   3  14
TORSDOF 6
ENDMDL
MODEL 9
REMARK VINA RESULT:      -7.1      2.131      2.419
REMARK  Name = 
REMARK  6 active torsions:
REMARK  status: ('A' for Active; 'I' for Inactive)
REMARK    1  A    between atoms: N_1  and  C_2
REMARK    2  A    between atoms: C_4  and  C_5
REMARK    3  A    between atoms: N_7  and  C_8
REMARK    4  A    between atoms: C_8  and  C_9
REMARK    5  A    between atoms: C_9  and  O_10
REMARK    6  A    between atoms: O_10  and  C_11
REMARK                            x       y       z     vdW  Elec       q    Type
REMARK                         _______ _______ _______ _____ _____    ______ ____
ROOT
ATOM      1  C   UNL     1       5.383   4.215  16.413  0.00  0.00    +0.000 C 
ATOM      2  O   UNL     1       4.210   3.863  16.329  0.00  0.00    +0.000 OA
ATOM      3  N   UNL     1       6.053   4.359  17.608  0.00  0.00    +0.000 N 
ATOM      4  H   UNL     1       6.975   4.783  17.534  0.00  0.00    +0.000 HD
ENDROOT
BRANCH   1   7
ATOM      5  C   UNL     1       7.040   4.536  13.170  0.00  0.00    +0.000 A 
ATOM      6  C   UNL     1       6.040   3.985  13.927  0.00  0.00    +0.000 A 
ATOM      7  C   UNL     1       6.207   4.523  15.232  0.00  0.00    +0.000 A 
ATOM      8  N   UNL     1       7.253   5.377  15.276  0.00  0.00    +0.000 NA
ATOM      9  N   UNL     1       7.734   5.357  14.016  0.00  0.00    +0.000 N 
ATOM     10  H   UNL     1       8.541   5.927  13.794  0.00  0.00    +0.000 HD
BRANCH   5  11
ATOM     11  N   UNL     1       7.365   4.382  11.876  0.00  0.00    +0.000 N 
ATOM     12  H   UNL     1       6.671   4.504  11.140  0.00  0.00    +0.000 HD
ATOM     13  H   UNL     1       8.262   4.040  11.543  0.00  0.00    +0.000 HD
ENDBRANCH   5  11
ENDBRANCH   1   7
BRANCH   3  14
ATOM     14  C   UNL     1       5.403   4.184  18.892  0.00  0.00    +0.000 C 
BRANCH  14  15
ATOM     15  C   UNL     1       4.817   5.493  19.418  0.00  0.00    +0.000 C 
BRANCH  15  16
ATOM     16  O   UNL     1       3.441   5.598  19.044  0.00  0.00    +0.000 OA
BRANCH  16  17
ATOM     17  C   UNL     1       2.593   4.660  19.576  0.00  0.00    +0.000 A 
ATOM     18  C   UNL     1       2.766   4.426  20.945  0.00  0.00    +0.000 A 
ATOM     19  C   UNL     1       1.972   3.488  21.616  0.00  0.00    +0.000 A 
ATOM     20  C   UNL     1       0.995   2.774  20.923  0.00  0.00    +0.000 A 
ATOM     21  C   UNL     1       0.813   3.000  19.562  0.00  0.00    +0.000 A 
ATOM     22  C   UNL     1       1.607   3.936  18.897  0.00  0.00    +0.000 A 
ATOM     23  F   UNL     1       1.383   4.105  17.586  0.00  0.00    +0.000 F 
ENDBRANCH  16  17
ENDBRANCH  15  16
ENDBRANCH  14  15
ENDBRANCH   3  14
TORSDOF 6
ENDMDL
