MODEL 1
REMARK VINA RESULT:      -7.2      0.000      0.000
REMARK  Name = 
REMARK  5 active torsions:
REMARK  status: ('A' for Active; 'I' for Inactive)
REMARK    1  A    between atoms: C_1  and  O_2
REMARK    2  A    between atoms: O_2  and  C_3
REMARK    3  A    between atoms: C_6  and  C_7
REMARK    4  A    between atoms: C_7  and  C_9
REMARK    5  A    between atoms: C_10  and  C_11
REMARK                            x       y       z     vdW  Elec       q    Type
REMARK                         _______ _______ _______ _____ _____    ______ ____
ROOT
ATOM      1  C   UNL     1       7.283   6.906  17.268  0.00  0.00    +0.000 C 
ATOM      2  O   UNL     1       7.672   6.478  16.186  0.00  0.00    +0.000 OA
ENDROOT
BRANCH   1   6
ATOM      3  C   UNL     1       3.490   5.648  18.864  0.00  0.00    +0.000 A 
ATOM      4  C   UNL     1       3.560   6.574  17.824  0.00  0.00    +0.000 A 
ATOM      5  C   UNL     1       4.803   6.966  17.308  0.00  0.00    +0.000 A 
ATOM      6  C   UNL     1       5.987   6.434  17.832  0.00  0.00    +0.000 A 
ATOM      7  C   UNL     1       5.914   5.522  18.890  0.00  0.00    +0.000 A 
ATOM      8  C   UNL     1       4.670   5.133  19.403  0.00  0.00    +0.000 A 
BRANCH   3  10
ATOM      9  C   UNL     1       1.728   4.075  18.962  0.00  0.00    +0.000 C 
ATOM     10  O   UNL     1       2.231   5.359  19.317  0.00  0.00    +0.000 OA
ENDBRANCH   3  10
ENDBRANCH   1   6
BRANCH   1  11
ATOM     11  C   UNL     1       8.098   7.864  18.066  0.00  0.00    +0.000 C 
ATOM     12  C   UNL     1       8.134   9.163  17.728  0.00  0.00    +0.000 C 
BRANCH  12  13
ATOM     13  C   UNL     1       8.973  10.111  18.461  0.00  0.00    +0.000 A 
ATOM     14  C   UNL     1       8.967  10.109  19.864  0.00  0.00    +0.000 A 
ATOM     15  C   UNL     1       9.742  11.031  20.571  0.00  0.00    +0.000 A 
ATOM     16  C   UNL     1      10.519  11.950  19.877  0.00  0.00    +0.000 A 
ATOM     17  F   UNL     1      11.258  12.837  20.557  0.00  0.00    +0.000 F 
ATOM     18  C   UNL     1      10.539  11.962  18.486  0.00  0.00    +0.000 A 
ATOM     19  C   UNL     1       9.763  11.044  17.776  0.00  0.00    +0.000 A 
ENDBRANCH  12  13
ENDBRANCH   1  11
TORSDOF 4
ENDMDL
MODEL 2
REMARK VINA RESULT:      -7.2      0.536      1.227
REMARK  Name = 
REMARK  5 active torsions:
REMARK  status: ('A' for Active; 'I' for Inactive)
REMARK    1  A    between atoms: C_1  and  O_2
REMARK    2  A    between atoms: O_2  and  C_3
REMARK    3  A    between atoms: C_6  and  C_7
REMARK    4  A    between atoms: C_7  and  C_9
REMARK    5  A    between atoms: C_10  and  C_11
REMARK                            x       y       z     vdW  Elec       q    Type
REMARK                         _______ _______ _______ _____ _____    ______ ____
ROOT
ATOM      1  C   UNL     1       7.293   6.914  17.242  0.00  0.00    +0.000 C 
ATOM      2  O   UNL     1       7.674   6.491  16.155  0.00  0.00    +0.000 OA
ENDROOT
BRANCH   1   6
ATOM      3  C   UNL     1       3.612   5.445  18.920  0.00  0.00    +0.000 A 
ATOM      4  C   UNL     1       4.846   4.989  19.385  0.00  0.00    +0.000 A 
ATOM      5  C   UNL     1       6.035   5.485  18.835  0.00  0.00    +0.000 A 
ATOM      6  C   UNL     1       6.000   6.441  17.812  0.00  0.00    +0.000 A 
ATOM      7  C   UNL     1       4.761   6.879  17.334  0.00  0.00    +0.000 A 
ATOM      8  C   UNL     1       3.574   6.381  17.886  0.00  0.00    +0.000 A 
BRANCH   3  10
ATOM      9  C   UNL     1       1.888   5.639  20.525  0.00  0.00    +0.000 C 
ATOM     10  O   UNL     1       2.513   4.873  19.500  0.00  0.00    +0.000 OA
ENDBRANCH   3  10
ENDBRANCH   1   6
BRANCH   1  11
ATOM     11  C   UNL     1       8.115   7.865  18.041  0.00  0.00    +0.000 C 
ATOM     12  C   UNL     1       8.121   9.173  17.735  0.00  0.00    +0.000 C 
BRANCH  12  13
ATOM     13  C   UNL     1       8.965  10.116  18.468  0.00  0.00    +0.000 A 
ATOM     14  C   UNL     1       8.951  10.121  19.870  0.00  0.00    +0.000 A 
ATOM     15  C   UNL     1       9.731  11.039  20.577  0.00  0.00    +0.000 A 
ATOM     16  C   UNL     1      10.522  11.946  19.883  0.00  0.00    +0.000 A 
ATOM     17  F   UNL     1      11.266  12.829  20.562  0.00  0.00    +0.000 F 
ATOM     18  C   UNL     1      10.550  11.951  18.492  0.00  0.00    +0.000 A 
ATOM     19  C   UNL     1       9.769  11.036  17.782  0.00  0.00    +0.000 A 
ENDBRANCH  12  13
ENDBRANCH   1  11
TORSDOF 4
ENDMDL
MODEL 3
REMARK VINA RESULT:      -7.1      0.678      1.207
REMARK  Name = 
REMARK  5 active torsions:
REMARK  status: ('A' for Active; 'I' for Inactive)
REMARK    1  A    between atoms: C_1  and  O_2
REMARK    2  A    between atoms: O_2  and  C_3
REMARK    3  A    between atoms: C_6  and  C_7
REMARK    4  A    between atoms: C_7  and  C_9
REMARK    5  A    between atoms: C_10  and  C_11
REMARK                            x       y       z     vdW  Elec       q    Type
REMARK                         _______ _______ _______ _____ _____    ______ ____
ROOT
ATOM      1  C   UNL     1       7.323   7.009  17.293  0.00  0.00    +0.000 C 
ATOM      2  O   UNL     1       7.809   6.612  16.239  0.00  0.00    +0.000 OA
ENDROOT
BRANCH   1   6
ATOM      3  C   UNL     1       3.656   5.311  18.774  0.00  0.00    +0.000 A 
ATOM      4  C   UNL     1       3.647   6.264  17.756  0.00  0.00    +0.000 A 
ATOM      5  C   UNL     1       4.850   6.799  17.278  0.00  0.00    +0.000 A 
ATOM      6  C   UNL     1       6.075   6.387  17.818  0.00  0.00    +0.000 A 
ATOM      7  C   UNL     1       6.079   5.448  18.854  0.00  0.00    +0.000 A 
ATOM      8  C   UNL     1       4.874   4.914  19.329  0.00  0.00    +0.000 A 
BRANCH   3  10
ATOM      9  C   UNL     1       2.183   4.976  20.592  0.00  0.00    +0.000 C 
ATOM     10  O   UNL     1       2.428   4.878  19.192  0.00  0.00    +0.000 OA
ENDBRANCH   3  10
ENDBRANCH   1   6
BRANCH   1  11
ATOM     11  C   UNL     1       7.974   8.080  18.098  0.00  0.00    +0.000 C 
ATOM     12  C   UNL     1       8.083   9.324  17.603  0.00  0.00    +0.000 C 
BRANCH  12  13
ATOM     13  C   UNL     1       8.769  10.377  18.350  0.00  0.00    +0.000 A 
ATOM     14  C   UNL     1       8.850  11.672  17.819  0.00  0.00    +0.000 A 
ATOM     15  C   UNL     1       9.530  12.676  18.513  0.00  0.00    +0.000 A 
ATOM     16  C   UNL     1      10.126  12.383  19.733  0.00  0.00    +0.000 A 
ATOM     17  F   UNL     1      10.782  13.345  20.396  0.00  0.00    +0.000 F 
ATOM     18  C   UNL     1      10.052  11.104  20.276  0.00  0.00    +0.000 A 
ATOM     19  C   UNL     1       9.375  10.098  19.583  0.00  0.00    +0.000 A 
ENDBRANCH  12  13
ENDBRANCH   1  11
TORSDOF 4
ENDMDL
MODEL 4
REMARK VINA RESULT:      -7.0      6.450      8.570
REMARK  Name = 
REMARK  5 active torsions:
REMARK  status: ('A' for Active; 'I' for Inactive)
REMARK    1  A    between atoms: C_1  and  O_2
REMARK    2  A    between atoms: O_2  and  C_3
REMARK    3  A    between atoms: C_6  and  C_7
REMARK    4  A    between atoms: C_7  and  C_9
REMARK    5  A    between atoms: C_10  and  C_11
REMARK                            x       y       z     vdW  Elec       q    Type
REMARK                         _______ _______ _______ _____ _____    ______ ____
ROOT
ATOM      1  C   UNL     1       1.993   8.546  18.444  0.00  0.00    +0.000 C 
ATOM      2  O   UNL     1       2.113   9.256  17.450  0.00  0.00    +0.000 OA
ENDROOT
BRANCH   1   6
ATOM      3  C   UNL     1      -0.175   9.881  21.914  0.00  0.00    +0.000 A 
ATOM      4  C   UNL     1       0.726   8.820  21.994  0.00  0.00    +0.000 A 
ATOM      5  C   UNL     1       1.432   8.404  20.857  0.00  0.00    +0.000 A 
ATOM      6  C   UNL     1       1.239   9.047  19.628  0.00  0.00    +0.000 A 
ATOM      7  C   UNL     1       0.318  10.096  19.547  0.00  0.00    +0.000 A 
ATOM      8  C   UNL     1      -0.385  10.509  20.685  0.00  0.00    +0.000 A 
BRANCH   3  10
ATOM      9  C   UNL     1      -1.560  11.413  23.064  0.00  0.00    +0.000 C 
ATOM     10  O   UNL     1      -0.837  10.186  23.072  0.00  0.00    +0.000 OA
ENDBRANCH   3  10
ENDBRANCH   1   6
BRANCH   1  11
ATOM     11  C   UNL     1       2.547   7.164  18.488  0.00  0.00    +0.000 C 
ATOM     12  C   UNL     1       1.886   6.154  17.898  0.00  0.00    +0.000 C 
BRANCH  12  13
ATOM     13  C   UNL     1       2.381   4.780  17.978  0.00  0.00    +0.000 A 
ATOM     14  C   UNL     1       3.733   4.508  17.722  0.00  0.00    +0.000 A 
ATOM     15  C   UNL     1       4.206   3.195  17.767  0.00  0.00    +0.000 A 
ATOM     16  C   UNL     1       3.330   2.160  18.068  0.00  0.00    +0.000 A 
ATOM     17  F   UNL     1       3.784   0.900  18.107  0.00  0.00    +0.000 F 
ATOM     18  C   UNL     1       1.987   2.413  18.328  0.00  0.00    +0.000 A 
ATOM     19  C   UNL     1       1.510   3.725  18.281  0.00  0.00    +0.000 A 
ENDBRANCH  12  13
ENDBRANCH   1  11
TORSDOF 4
ENDMDL
MODEL 5
REMARK VINA RESULT:      -7.0      5.249      6.738
REMARK  Name = 
REMARK  5 active torsions:
REMARK  status: ('A' for Active; 'I' for Inactive)
REMARK    1  A    between atoms: C_1  and  O_2
REMARK    2  A    between atoms: O_2  and  C_3
REMARK    3  A    between atoms: C_6  and  C_7
REMARK    4  A    between atoms: C_7  and  C_9
REMARK    5  A    between atoms: C_10  and  C_11
REMARK                            x       y       z     vdW  Elec       q    Type
REMARK                         _______ _______ _______ _____ _____    ______ ____
ROOT
ATOM      1  C   UNL     1       5.039   4.450  18.764  0.00  0.00    +0.000 C 
ATOM      2  O   UNL     1       5.385   3.562  19.537  0.00  0.00    +0.000 OA
ENDROOT
BRANCH   1   6
ATOM      3  C   UNL     1       6.480   4.486  14.708  0.00  0.00    +0.000 A 
ATOM      4  C   UNL     1       7.280   4.937  15.759  0.00  0.00    +0.000 A 
ATOM      5  C   UNL     1       6.799   4.909  17.075  0.00  0.00    +0.000 A 
ATOM      6  C   UNL     1       5.512   4.431  17.350  0.00  0.00    +0.000 A 
ATOM      7  C   UNL     1       4.706   4.001  16.292  0.00  0.00    +0.000 A 
ATOM      8  C   UNL     1       5.189   4.030  14.978  0.00  0.00    +0.000 A 
BRANCH   3  10
ATOM      9  C   UNL     1       6.524   3.678  12.488  0.00  0.00    +0.000 C 
ATOM     10  O   UNL     1       7.030   4.588  13.460  0.00  0.00    +0.000 OA
ENDBRANCH   3  10
ENDBRANCH   1   6
BRANCH   1  11
ATOM     11  C   UNL     1       4.114   5.537  19.188  0.00  0.00    +0.000 C 
ATOM     12  C   UNL     1       3.525   6.318  18.267  0.00  0.00    +0.000 C 
BRANCH  12  13
ATOM     13  C   UNL     1       2.659   7.429  18.661  0.00  0.00    +0.000 A 
ATOM     14  C   UNL     1       2.112   7.464  19.952  0.00  0.00    +0.000 A 
ATOM     15  C   UNL     1       1.260   8.505  20.326  0.00  0.00    +0.000 A 
ATOM     16  C   UNL     1       0.959   9.507  19.412  0.00  0.00    +0.000 A 
ATOM     17  F   UNL     1       0.138  10.503  19.771  0.00  0.00    +0.000 F 
ATOM     18  C   UNL     1       1.497   9.490  18.130  0.00  0.00    +0.000 A 
ATOM     19  C   UNL     1       2.347   8.448  17.752  0.00  0.00    +0.000 A 
ENDBRANCH  12  13
ENDBRANCH   1  11
TORSDOF 4
ENDMDL
MODEL 6
REMARK VINA RESULT:      -7.0      6.435      8.433
REMARK  Name = 
REMARK  5 active torsions:
REMARK  status: ('A' for Active; 'I' for Inactive)
REMARK    1  A    between atoms: C_1  and  O_2
REMARK    2  A    between atoms: O_2  and  C_3
REMARK    3  A    between atoms: C_6  and  C_7
REMARK    4  A    between atoms: C_7  and  C_9
REMARK    5  A    between atoms: C_10  and  C_11
REMARK                            x       y       z     vdW  Elec       q    Type
REMARK                         _______ _______ _______ _____ _____    ______ ____
ROOT
ATOM      1  C   UNL     1       2.018   8.591  18.331  0.00  0.00    +0.000 C 
ATOM      2  O   UNL     1       2.131   9.381  17.398  0.00  0.00    +0.000 OA
ENDROOT
BRANCH   1   6
ATOM      3  C   UNL     1      -0.201   9.835  21.802  0.00  0.00    +0.000 A 
ATOM      4  C   UNL     1      -0.419  10.429  20.559  0.00  0.00    +0.000 A 
ATOM      5  C   UNL     1       0.304  10.005  19.437  0.00  0.00    +0.000 A 
ATOM      6  C   UNL     1       1.256   8.984  19.550  0.00  0.00    +0.000 A 
ATOM      7  C   UNL     1       1.488   8.407  20.802  0.00  0.00    +0.000 A 
ATOM      8  C   UNL     1       0.763   8.832  21.922  0.00  0.00    +0.000 A 
BRANCH   3  10
ATOM      9  C   UNL     1      -1.110  11.758  22.833  0.00  0.00    +0.000 C 
ATOM     10  O   UNL     1      -0.934  10.344  22.839  0.00  0.00    +0.000 OA
ENDBRANCH   3  10
ENDBRANCH   1   6
BRANCH   1  11
ATOM     11  C   UNL     1       2.592   7.218  18.264  0.00  0.00    +0.000 C 
ATOM     12  C   UNL     1       1.810   6.177  17.932  0.00  0.00    +0.000 C 
BRANCH  12  13
ATOM     13  C   UNL     1       2.337   4.813  17.918  0.00  0.00    +0.000 A 
ATOM     14  C   UNL     1       1.500   3.737  18.247  0.00  0.00    +0.000 A 
ATOM     15  C   UNL     1       2.003   2.435  18.265  0.00  0.00    +0.000 A 
ATOM     16  C   UNL     1       3.339   2.211  17.953  0.00  0.00    +0.000 A 
ATOM     17  F   UNL     1       3.821   0.961  17.975  0.00  0.00    +0.000 F 
ATOM     18  C   UNL     1       4.181   3.266  17.621  0.00  0.00    +0.000 A 
ATOM     19  C   UNL     1       3.682   4.570  17.605  0.00  0.00    +0.000 A 
ENDBRANCH  12  13
ENDBRANCH   1  11
TORSDOF 4
ENDMDL
MODEL 7
REMARK VINA RESULT:      -6.9      4.911      6.906
REMARK  Name = 
REMARK  5 active torsions:
REMARK  status: ('A' for Active; 'I' for Inactive)
REMARK    1  A    between atoms: C_1  and  O_2
REMARK    2  A    between atoms: O_2  and  C_3
REMARK    3  A    between atoms: C_6  and  C_7
REMARK    4  A    between atoms: C_7  and  C_9
REMARK    5  A    between atoms: C_10  and  C_11
REMARK                            x       y       z     vdW  Elec       q    Type
REMARK                         _______ _______ _______ _____ _____    ______ ____
ROOT
ATOM      1  C   UNL     1       4.191   4.327  19.213  0.00  0.00    +0.000 C 
ATOM      2  O   UNL     1       4.150   3.262  19.822  0.00  0.00    +0.000 OA
ENDROOT
BRANCH   1   6
ATOM      3  C   UNL     1       6.806   4.837  15.833  0.00  0.00    +0.000 A 
ATOM      4  C   UNL     1       7.162   5.313  17.095  0.00  0.00    +0.000 A 
ATOM      5  C   UNL     1       6.304   5.129  18.187  0.00  0.00    +0.000 A 
ATOM      6  C   UNL     1       5.080   4.469  18.025  0.00  0.00    +0.000 A 
ATOM      7  C   UNL     1       4.716   4.014  16.754  0.00  0.00    +0.000 A 
ATOM      8  C   UNL     1       5.576   4.198  15.664  0.00  0.00    +0.000 A 
BRANCH   3  10
ATOM      9  C   UNL     1       7.272   4.736  13.518  0.00  0.00    +0.000 C 
ATOM     10  O   UNL     1       7.697   5.097  14.828  0.00  0.00    +0.000 OA
ENDBRANCH   3  10
ENDBRANCH   1   6
BRANCH   1  11
ATOM     11  C   UNL     1       3.339   5.484  19.604  0.00  0.00    +0.000 C 
ATOM     12  C   UNL     1       2.991   6.404  18.690  0.00  0.00    +0.000 C 
BRANCH  12  13
ATOM     13  C   UNL     1       2.204   7.579  19.063  0.00  0.00    +0.000 A 
ATOM     14  C   UNL     1       1.908   8.556  18.101  0.00  0.00    +0.000 A 
ATOM     15  C   UNL     1       1.183   9.695  18.457  0.00  0.00    +0.000 A 
ATOM     16  C   UNL     1       0.755   9.854  19.769  0.00  0.00    +0.000 A 
ATOM     17  F   UNL     1       0.063  10.950  20.110  0.00  0.00    +0.000 F 
ATOM     18  C   UNL     1       1.036   8.893  20.734  0.00  0.00    +0.000 A 
ATOM     19  C   UNL     1       1.764   7.754  20.382  0.00  0.00    +0.000 A 
ENDBRANCH  12  13
ENDBRANCH   1  11
TORSDOF 4
ENDMDL
MODEL 8
REMARK VINA RESULT:      -6.9      5.288      6.758
REMARK  Name = 
REMARK  5 active torsions:
REMARK  status: ('A' for Active; 'I' for Inactive)
REMARK    1  A    between atoms: C_1  and  O_2
REMARK    2  A    between atoms: O_2  and  C_3
REMARK    3  A    between atoms: C_6  and  C_7
REMARK    4  A    between atoms: C_7  and  C_9
REMARK    5  A    between atoms: C_10  and  C_11
REMARK                            x       y       z     vdW  Elec       q    Type
REMARK                         _______ _______ _______ _____ _____    ______ ____
ROOT
ATOM      1  C   UNL     1       4.801   4.422  18.693  0.00  0.00    +0.000 C 
ATOM      2  O   UNL     1       5.100   3.511  19.458  0.00  0.00    +0.000 OA
ENDROOT
BRANCH   1   6
ATOM      3  C   UNL     1       6.581   4.589  14.777  0.00  0.00    +0.000 A 
ATOM      4  C   UNL     1       5.240   4.242  14.943  0.00  0.00    +0.000 A 
ATOM      5  C   UNL     1       4.673   4.203  16.224  0.00  0.00    +0.000 A 
ATOM      6  C   UNL     1       5.446   4.507  17.351  0.00  0.00    +0.000 A 
ATOM      7  C   UNL     1       6.795   4.832  17.183  0.00  0.00    +0.000 A 
ATOM      8  C   UNL     1       7.359   4.871  15.902  0.00  0.00    +0.000 A 
BRANCH   3  10
ATOM      9  C   UNL     1       6.386   3.653  12.616  0.00  0.00    +0.000 C 
ATOM     10  O   UNL     1       7.045   4.564  13.491  0.00  0.00    +0.000 OA
ENDBRANCH   3  10
ENDBRANCH   1   6
BRANCH   1  11
ATOM     11  C   UNL     1       3.768   5.434  19.049  0.00  0.00    +0.000 C 
ATOM     12  C   UNL     1       3.613   6.534  18.294  0.00  0.00    +0.000 C 
BRANCH  12  13
ATOM     13  C   UNL     1       2.646   7.569  18.657  0.00  0.00    +0.000 A 
ATOM     14  C   UNL     1       2.112   7.602  19.953  0.00  0.00    +0.000 A 
ATOM     15  C   UNL     1       1.165   8.569  20.299  0.00  0.00    +0.000 A 
ATOM     16  C   UNL     1       0.756   9.498  19.350  0.00  0.00    +0.000 A 
ATOM     17  F   UNL     1      -0.155  10.423  19.682  0.00  0.00    +0.000 F 
ATOM     18  C   UNL     1       1.279   9.482  18.062  0.00  0.00    +0.000 A 
ATOM     19  C   UNL     1       2.224   8.515  17.712  0.00  0.00    +0.000 A 
ENDBRANCH  12  13
ENDBRANCH   1  11
TORSDOF 4
ENDMDL
MODEL 9
REMARK VINA RESULT:      -6.9      5.036      6.930
REMARK  Name = 
REMARK  5 active torsions:
REMARK  status: ('A' for Active; 'I' for Inactive)
REMARK    1  A    between atoms: C_1  and  O_2
REMARK    2  A    between atoms: O_2  and  C_3
REMARK    3  A    between atoms: C_6  and  C_7
REMARK    4  A    between atoms: C_7  and  C_9
REMARK    5  A    between atoms: C_10  and  C_11
REMARK                            x       y       z     vdW  Elec       q    Type
REMARK                         _______ _______ _______ _____ _____    ______ ____
ROOT
ATOM      1  C   UNL     1       3.676   4.406  19.597  0.00  0.00    +0.000 C 
ATOM      2  O   UNL     1       3.559   3.371  20.245  0.00  0.00    +0.000 OA
ENDROOT
BRANCH   1   6
ATOM      3  C   UNL     1       6.687   4.635  16.530  0.00  0.00    +0.000 A 
ATOM      4  C   UNL     1       5.406   4.161  16.245  0.00  0.00    +0.000 A 
ATOM      5  C   UNL     1       4.434   4.103  17.253  0.00  0.00    +0.000 A 
ATOM      6  C   UNL     1       4.738   4.516  18.556  0.00  0.00    +0.000 A 
ATOM      7  C   UNL     1       6.029   4.970  18.842  0.00  0.00    +0.000 A 
ATOM      8  C   UNL     1       6.998   5.027  17.833  0.00  0.00    +0.000 A 
BRANCH   3  10
ATOM      9  C   UNL     1       6.993   4.741  14.189  0.00  0.00    +0.000 C 
ATOM     10  O   UNL     1       7.570   4.619  15.485  0.00  0.00    +0.000 OA
ENDBRANCH   3  10
ENDBRANCH   1   6
BRANCH   1  11
ATOM     11  C   UNL     1       2.750   5.557  19.790  0.00  0.00    +0.000 C 
ATOM     12  C   UNL     1       2.913   6.681  19.072  0.00  0.00    +0.000 C 
BRANCH  12  13
ATOM     13  C   UNL     1       2.053   7.844  19.286  0.00  0.00    +0.000 A 
ATOM     14  C   UNL     1       1.824   8.746  18.237  0.00  0.00    +0.000 A 
ATOM     15  C   UNL     1       1.028   9.875  18.442  0.00  0.00    +0.000 A 
ATOM     16  C   UNL     1       0.465  10.100  19.692  0.00  0.00    +0.000 A 
ATOM     17  F   UNL     1      -0.294  11.186  19.889  0.00  0.00    +0.000 F 
ATOM     18  C   UNL     1       0.680   9.214  20.742  0.00  0.00    +0.000 A 
ATOM     19  C   UNL     1       1.477   8.085  20.541  0.00  0.00    +0.000 A 
ENDBRANCH  12  13
ENDBRANCH   1  11
TORSDOF 4
ENDMDL
