MODEL 1
REMARK VINA RESULT:      -7.9      0.000      0.000
REMARK  Name = 
REMARK  2 active torsions:
REMARK  status: ('A' for Active; 'I' for Inactive)
REMARK    1  A    between atoms: N_11  and  C_12
REMARK    2  A    between atoms: C_12  and  C_13
REMARK                            x       y       z     vdW  Elec       q    Type
REMARK                         _______ _______ _______ _____ _____    ______ ____
ROOT
ATOM      1  O   UNL     1       2.080   9.691  17.360  0.00  0.00    +0.000 OA
ATOM      2  C   UNL     1       1.748   9.178  18.425  0.00  0.00    +0.000 A 
ATOM      3  C   UNL     1       2.248   7.837  18.785  0.00  0.00    +0.000 A 
ATOM      4  C   UNL     1       3.024   7.094  17.890  0.00  0.00    +0.000 A 
ATOM      5  C   UNL     1       3.486   5.837  18.270  0.00  0.00    +0.000 A 
ATOM      6  C   UNL     1       3.160   5.321  19.528  0.00  0.00    +0.000 A 
ATOM      7  C   UNL     1       2.389   6.072  20.414  0.00  0.00    +0.000 A 
ATOM      8  C   UNL     1       1.917   7.335  20.045  0.00  0.00    +0.000 A 
ATOM      9  N   UNL     1       1.110   8.045  20.946  0.00  0.00    +0.000 NA
ATOM     10  C   UNL     1       0.652   9.189  20.564  0.00  0.00    +0.000 A 
ATOM     11  N   UNL     1       0.918   9.786  19.355  0.00  0.00    +0.000 N 
ATOM     12  O   UNL     1       3.570   4.085  19.962  0.00  0.00    +0.000 OA
ATOM     13  C   UNL     1       4.050   3.277  18.882  0.00  0.00    +0.000 C 
ATOM     14  C   UNL     1       4.963   4.079  17.968  0.00  0.00    +0.000 C 
ATOM     15  O   UNL     1       4.249   5.157  17.355  0.00  0.00    +0.000 OA
ENDROOT
BRANCH  11  16
ATOM     16  C   UNL     1       0.307  11.068  19.032  0.00  0.00    +0.000 C 
BRANCH  16  17
ATOM     17  C   UNL     1      -1.130  10.894  18.588  0.00  0.00    +0.000 A 
ATOM     18  C   UNL     1      -1.451  10.047  17.516  0.00  0.00    +0.000 A 
ATOM     19  C   UNL     1      -2.764   9.960  17.049  0.00  0.00    +0.000 A 
ATOM     20  C   UNL     1      -3.771  10.715  17.649  0.00  0.00    +0.000 A 
ATOM     21  C   UNL     1      -3.461  11.544  18.725  0.00  0.00    +0.000 A 
ATOM     22 BR   UNL     1      -4.826  12.568  19.539  0.00  0.00    +0.000 Br
ATOM     23  C   UNL     1      -2.152  11.636  19.197  0.00  0.00    +0.000 A 
ENDBRANCH  16  17
ENDBRANCH  11  16
TORSDOF 2
ENDMDL
MODEL 2
REMARK VINA RESULT:      -7.8      4.021      8.091
REMARK  Name = 
REMARK  2 active torsions:
REMARK  status: ('A' for Active; 'I' for Inactive)
REMARK    1  A    between atoms: N_11  and  C_12
REMARK    2  A    between atoms: C_12  and  C_13
REMARK                            x       y       z     vdW  Elec       q    Type
REMARK                         _______ _______ _______ _____ _____    ______ ____
ROOT
ATOM      1  O   UNL     1       2.294   5.115  20.940  0.00  0.00    +0.000 OA
ATOM      2  C   UNL     1       2.398   5.903  20.006  0.00  0.00    +0.000 A 
ATOM      3  C   UNL     1       1.800   7.249  20.106  0.00  0.00    +0.000 A 
ATOM      4  C   UNL     1       1.033   7.614  21.217  0.00  0.00    +0.000 A 
ATOM      5  C   UNL     1       0.494   8.897  21.280  0.00  0.00    +0.000 A 
ATOM      6  C   UNL     1       0.707   9.800  20.234  0.00  0.00    +0.000 A 
ATOM      7  C   UNL     1       1.478   9.426  19.134  0.00  0.00    +0.000 A 
ATOM      8  C   UNL     1       2.024   8.141  19.055  0.00  0.00    +0.000 A 
ATOM      9  N   UNL     1       2.759   7.788  17.916  0.00  0.00    +0.000 NA
ATOM     10  C   UNL     1       3.214   6.583  17.849  0.00  0.00    +0.000 A 
ATOM     11  N   UNL     1       3.066   5.624  18.823  0.00  0.00    +0.000 N 
ATOM     12  O   UNL     1       0.196  11.073  20.225  0.00  0.00    +0.000 OA
ATOM     13  C   UNL     1      -0.834  11.237  21.206  0.00  0.00    +0.000 C 
ATOM     14  C   UNL     1      -0.426  10.614  22.532  0.00  0.00    +0.000 C 
ATOM     15  O   UNL     1      -0.244   9.201  22.396  0.00  0.00    +0.000 OA
ENDROOT
BRANCH  11  16
ATOM     16  C   UNL     1       3.601   4.287  18.608  0.00  0.00    +0.000 C 
BRANCH  16  17
ATOM     17  C   UNL     1       4.915   4.337  17.856  0.00  0.00    +0.000 A 
ATOM     18  C   UNL     1       6.106   4.679  18.515  0.00  0.00    +0.000 A 
ATOM     19  C   UNL     1       7.298   4.814  17.801  0.00  0.00    +0.000 A 
ATOM     20  C   UNL     1       7.315   4.607  16.423  0.00  0.00    +0.000 A 
ATOM     21  C   UNL     1       6.140   4.250  15.765  0.00  0.00    +0.000 A 
ATOM     22 BR   UNL     1       6.163   3.969  13.896  0.00  0.00    +0.000 Br
ATOM     23  C   UNL     1       4.945   4.113  16.471  0.00  0.00    +0.000 A 
ENDBRANCH  16  17
ENDBRANCH  11  16
TORSDOF 2
ENDMDL
MODEL 3
REMARK VINA RESULT:      -7.7      1.411      1.785
REMARK  Name = 
REMARK  2 active torsions:
REMARK  status: ('A' for Active; 'I' for Inactive)
REMARK    1  A    between atoms: N_11  and  C_12
REMARK    2  A    between atoms: C_12  and  C_13
REMARK                            x       y       z     vdW  Elec       q    Type
REMARK                         _______ _______ _______ _____ _____    ______ ____
ROOT
ATOM      1  O   UNL     1       2.433   8.880  17.341  0.00  0.00    +0.000 OA
ATOM      2  C   UNL     1       2.037   8.521  18.445  0.00  0.00    +0.000 A 
ATOM      3  C   UNL     1       2.170   7.108  18.853  0.00  0.00    +0.000 A 
ATOM      4  C   UNL     1       2.657   6.145  17.963  0.00  0.00    +0.000 A 
ATOM      5  C   UNL     1       2.777   4.824  18.388  0.00  0.00    +0.000 A 
ATOM      6  C   UNL     1       2.397   4.468  19.686  0.00  0.00    +0.000 A 
ATOM      7  C   UNL     1       1.917   5.438  20.565  0.00  0.00    +0.000 A 
ATOM      8  C   UNL     1       1.789   6.767  20.153  0.00  0.00    +0.000 A 
ATOM      9  N   UNL     1       1.265   7.707  21.051  0.00  0.00    +0.000 NA
ATOM     10  C   UNL     1       1.117   8.917  20.630  0.00  0.00    +0.000 A 
ATOM     11  N   UNL     1       1.464   9.370  19.380  0.00  0.00    +0.000 N 
ATOM     12  O   UNL     1       2.477   3.185  20.165  0.00  0.00    +0.000 OA
ATOM     13  C   UNL     1       2.650   2.234  19.109  0.00  0.00    +0.000 C 
ATOM     14  C   UNL     1       3.691   2.716  18.111  0.00  0.00    +0.000 C 
ATOM     15  O   UNL     1       3.267   3.926  17.476  0.00  0.00    +0.000 OA
ENDROOT
BRANCH  11  16
ATOM     16  C   UNL     1       1.211  10.758  19.018  0.00  0.00    +0.000 C 
BRANCH  16  17
ATOM     17  C   UNL     1      -0.256  10.989  18.722  0.00  0.00    +0.000 A 
ATOM     18  C   UNL     1      -1.065  11.699  19.622  0.00  0.00    +0.000 A 
ATOM     19  C   UNL     1      -2.436  11.830  19.391  0.00  0.00    +0.000 A 
ATOM     20  C   UNL     1      -3.013  11.256  18.258  0.00  0.00    +0.000 A 
ATOM     21  C   UNL     1      -2.211  10.565  17.352  0.00  0.00    +0.000 A 
ATOM     22 BR   UNL     1      -2.992   9.787  15.816  0.00  0.00    +0.000 Br
ATOM     23  C   UNL     1      -0.841  10.430  17.576  0.00  0.00    +0.000 A 
ENDBRANCH  16  17
ENDBRANCH  11  16
TORSDOF 2
ENDMDL
MODEL 4
REMARK VINA RESULT:      -7.4      1.482      2.272
REMARK  Name = 
REMARK  2 active torsions:
REMARK  status: ('A' for Active; 'I' for Inactive)
REMARK    1  A    between atoms: N_11  and  C_12
REMARK    2  A    between atoms: C_12  and  C_13
REMARK                            x       y       z     vdW  Elec       q    Type
REMARK                         _______ _______ _______ _____ _____    ______ ____
ROOT
ATOM      1  O   UNL     1       0.669   8.666  21.075  0.00  0.00    +0.000 OA
ATOM      2  C   UNL     1       1.310   8.477  20.046  0.00  0.00    +0.000 A 
ATOM      3  C   UNL     1       1.930   7.161  19.795  0.00  0.00    +0.000 A 
ATOM      4  C   UNL     1       1.879   6.147  20.756  0.00  0.00    +0.000 A 
ATOM      5  C   UNL     1       2.468   4.916  20.478  0.00  0.00    +0.000 A 
ATOM      6  C   UNL     1       3.115   4.707  19.256  0.00  0.00    +0.000 A 
ATOM      7  C   UNL     1       3.156   5.726  18.304  0.00  0.00    +0.000 A 
ATOM      8  C   UNL     1       2.571   6.967  18.569  0.00  0.00    +0.000 A 
ATOM      9  N   UNL     1       2.667   7.980  17.604  0.00  0.00    +0.000 NA
ATOM     10  C   UNL     1       2.157   9.129  17.893  0.00  0.00    +0.000 A 
ATOM     11  N   UNL     1       1.496   9.434  19.059  0.00  0.00    +0.000 N 
ATOM     12  O   UNL     1       3.726   3.525  18.922  0.00  0.00    +0.000 OA
ATOM     13  C   UNL     1       3.922   2.688  20.066  0.00  0.00    +0.000 C 
ATOM     14  C   UNL     1       2.674   2.655  20.935  0.00  0.00    +0.000 C 
ATOM     15  O   UNL     1       2.380   3.956  21.454  0.00  0.00    +0.000 OA
ENDROOT
BRANCH  11  16
ATOM     16  C   UNL     1       0.997  10.784  19.275  0.00  0.00    +0.000 C 
BRANCH  16  17
ATOM     17  C   UNL     1      -0.475  10.885  18.934  0.00  0.00    +0.000 A 
ATOM     18  C   UNL     1      -0.994  10.241  17.800  0.00  0.00    +0.000 A 
ATOM     19  C   UNL     1      -2.332  10.412  17.438  0.00  0.00    +0.000 A 
ATOM     20  C   UNL     1      -3.166  11.225  18.205  0.00  0.00    +0.000 A 
ATOM     21  C   UNL     1      -2.661  11.852  19.341  0.00  0.00    +0.000 A 
ATOM     22 BR   UNL     1      -3.792  12.954  20.381  0.00  0.00    +0.000 Br
ATOM     23  C   UNL     1      -1.326  11.687  19.710  0.00  0.00    +0.000 A 
ENDBRANCH  16  17
ENDBRANCH  11  16
TORSDOF 2
ENDMDL
MODEL 5
REMARK VINA RESULT:      -7.4      1.663      2.542
REMARK  Name = 
REMARK  2 active torsions:
REMARK  status: ('A' for Active; 'I' for Inactive)
REMARK    1  A    between atoms: N_11  and  C_12
REMARK    2  A    between atoms: C_12  and  C_13
REMARK                            x       y       z     vdW  Elec       q    Type
REMARK                         _______ _______ _______ _____ _____    ______ ____
ROOT
ATOM      1  O   UNL     1       0.596   8.783  21.164  0.00  0.00    +0.000 OA
ATOM      2  C   UNL     1       1.198   8.777  20.095  0.00  0.00    +0.000 A 
ATOM      3  C   UNL     1       1.895   7.554  19.649  0.00  0.00    +0.000 A 
ATOM      4  C   UNL     1       1.959   6.423  20.469  0.00  0.00    +0.000 A 
ATOM      5  C   UNL     1       2.617   5.285  20.008  0.00  0.00    +0.000 A 
ATOM      6  C   UNL     1       3.217   5.284  18.746  0.00  0.00    +0.000 A 
ATOM      7  C   UNL     1       3.143   6.417  17.935  0.00  0.00    +0.000 A 
ATOM      8  C   UNL     1       2.488   7.567  18.384  0.00  0.00    +0.000 A 
ATOM      9  N   UNL     1       2.467   8.700  17.559  0.00  0.00    +0.000 NA
ATOM     10  C   UNL     1       1.895   9.761  18.016  0.00  0.00    +0.000 A 
ATOM     11  N   UNL     1       1.271   9.863  19.236  0.00  0.00    +0.000 N 
ATOM     12  O   UNL     1       3.891   4.204  18.235  0.00  0.00    +0.000 OA
ATOM     13  C   UNL     1       4.198   3.243  19.251  0.00  0.00    +0.000 C 
ATOM     14  C   UNL     1       2.999   3.006  20.155  0.00  0.00    +0.000 C 
ATOM     15  O   UNL     1       2.642   4.204  20.852  0.00  0.00    +0.000 OA
ENDROOT
BRANCH  11  16
ATOM     16  C   UNL     1       0.691  11.134  19.648  0.00  0.00    +0.000 C 
BRANCH  16  17
ATOM     17  C   UNL     1      -0.714  11.295  19.108  0.00  0.00    +0.000 A 
ATOM     18  C   UNL     1      -1.682  12.010  19.830  0.00  0.00    +0.000 A 
ATOM     19  C   UNL     1      -3.000  12.078  19.375  0.00  0.00    +0.000 A 
ATOM     20  C   UNL     1      -3.366  11.435  18.193  0.00  0.00    +0.000 A 
ATOM     21  C   UNL     1      -2.406  10.738  17.462  0.00  0.00    +0.000 A 
ATOM     22 BR   UNL     1      -2.901   9.867  15.859  0.00  0.00    +0.000 Br
ATOM     23  C   UNL     1      -1.087  10.666  17.911  0.00  0.00    +0.000 A 
ENDBRANCH  16  17
ENDBRANCH  11  16
TORSDOF 2
ENDMDL
MODEL 6
REMARK VINA RESULT:      -7.3      3.499      7.261
REMARK  Name = 
REMARK  2 active torsions:
REMARK  status: ('A' for Active; 'I' for Inactive)
REMARK    1  A    between atoms: N_11  and  C_12
REMARK    2  A    between atoms: C_12  and  C_13
REMARK                            x       y       z     vdW  Elec       q    Type
REMARK                         _______ _______ _______ _____ _____    ______ ____
ROOT
ATOM      1  O   UNL     1       1.754   9.573  17.486  0.00  0.00    +0.000 OA
ATOM      2  C   UNL     1       1.756   8.944  18.540  0.00  0.00    +0.000 A 
ATOM      3  C   UNL     1       0.982   9.440  19.695  0.00  0.00    +0.000 A 
ATOM      4  C   UNL     1       0.315  10.668  19.641  0.00  0.00    +0.000 A 
ATOM      5  C   UNL     1      -0.413  11.096  20.748  0.00  0.00    +0.000 A 
ATOM      6  C   UNL     1      -0.461  10.310  21.904  0.00  0.00    +0.000 A 
ATOM      7  C   UNL     1       0.204   9.085  21.944  0.00  0.00    +0.000 A 
ATOM      8  C   UNL     1       0.941   8.643  20.841  0.00  0.00    +0.000 A 
ATOM      9  N   UNL     1       1.630   7.425  20.933  0.00  0.00    +0.000 NA
ATOM     10  C   UNL     1       2.337   7.062  19.917  0.00  0.00    +0.000 A 
ATOM     11  N   UNL     1       2.445   7.757  18.736  0.00  0.00    +0.000 N 
ATOM     12  O   UNL     1      -1.148  10.677  23.033  0.00  0.00    +0.000 OA
ATOM     13  C   UNL     1      -1.499  12.064  23.013  0.00  0.00    +0.000 C 
ATOM     14  C   UNL     1      -2.046  12.467  21.653  0.00  0.00    +0.000 C 
ATOM     15  O   UNL     1      -1.052  12.305  20.636  0.00  0.00    +0.000 OA
ENDROOT
BRANCH  11  16
ATOM     16  C   UNL     1       3.307   7.252  17.677  0.00  0.00    +0.000 C 
BRANCH  16  17
ATOM     17  C   UNL     1       3.384   5.740  17.707  0.00  0.00    +0.000 A 
ATOM     18  C   UNL     1       4.506   5.069  17.197  0.00  0.00    +0.000 A 
ATOM     19  C   UNL     1       4.534   3.674  17.142  0.00  0.00    +0.000 A 
ATOM     20  C   UNL     1       3.444   2.934  17.598  0.00  0.00    +0.000 A 
ATOM     21  C   UNL     1       2.335   3.594  18.123  0.00  0.00    +0.000 A 
ATOM     22 BR   UNL     1       0.856   2.591  18.742  0.00  0.00    +0.000 Br
ATOM     23  C   UNL     1       2.299   4.987  18.181  0.00  0.00    +0.000 A 
ENDBRANCH  16  17
ENDBRANCH  11  16
TORSDOF 2
ENDMDL
MODEL 7
REMARK VINA RESULT:      -7.2      1.136      1.572
REMARK  Name = 
REMARK  2 active torsions:
REMARK  status: ('A' for Active; 'I' for Inactive)
REMARK    1  A    between atoms: N_11  and  C_12
REMARK    2  A    between atoms: C_12  and  C_13
REMARK                            x       y       z     vdW  Elec       q    Type
REMARK                         _______ _______ _______ _____ _____    ______ ____
ROOT
ATOM      1  O   UNL     1       2.214   9.866  17.352  0.00  0.00    +0.000 OA
ATOM      2  C   UNL     1       1.828   9.469  18.447  0.00  0.00    +0.000 A 
ATOM      3  C   UNL     1       2.064   8.068  18.849  0.00  0.00    +0.000 A 
ATOM      4  C   UNL     1       2.642   7.154  17.963  0.00  0.00    +0.000 A 
ATOM      5  C   UNL     1       2.858   5.843  18.382  0.00  0.00    +0.000 A 
ATOM      6  C   UNL     1       2.485   5.448  19.671  0.00  0.00    +0.000 A 
ATOM      7  C   UNL     1       1.913   6.371  20.547  0.00  0.00    +0.000 A 
ATOM      8  C   UNL     1       1.688   7.689  20.139  0.00  0.00    +0.000 A 
ATOM      9  N   UNL     1       1.075   8.577  21.033  0.00  0.00    +0.000 NA
ATOM     10  C   UNL     1       0.839   9.775  20.617  0.00  0.00    +0.000 A 
ATOM     11  N   UNL     1       1.172  10.264  19.376  0.00  0.00    +0.000 N 
ATOM     12  O   UNL     1       2.657   4.172  20.144  0.00  0.00    +0.000 OA
ATOM     13  C   UNL     1       2.924   3.246  19.086  0.00  0.00    +0.000 C 
ATOM     14  C   UNL     1       3.942   3.815  18.110  0.00  0.00    +0.000 C 
ATOM     15  O   UNL     1       3.434   4.993  17.474  0.00  0.00    +0.000 OA
ENDROOT
BRANCH  11  16
ATOM     16  C   UNL     1       0.817  11.629  19.018  0.00  0.00    +0.000 C 
BRANCH  16  17
ATOM     17  C   UNL     1      -0.685  11.824  19.023  0.00  0.00    +0.000 A 
ATOM     18  C   UNL     1      -1.333  12.373  20.140  0.00  0.00    +0.000 A 
ATOM     19  C   UNL     1      -2.726  12.465  20.178  0.00  0.00    +0.000 A 
ATOM     20  C   UNL     1      -3.486  12.014  19.100  0.00  0.00    +0.000 A 
ATOM     21  C   UNL     1      -2.848  11.485  17.980  0.00  0.00    +0.000 A 
ATOM     22 BR   UNL     1      -3.878  10.873  16.518  0.00  0.00    +0.000 Br
ATOM     23  C   UNL     1      -1.457  11.389  17.935  0.00  0.00    +0.000 A 
ENDBRANCH  16  17
ENDBRANCH  11  16
TORSDOF 2
ENDMDL
MODEL 8
REMARK VINA RESULT:      -7.1      3.852      7.746
REMARK  Name = 
REMARK  2 active torsions:
REMARK  status: ('A' for Active; 'I' for Inactive)
REMARK    1  A    between atoms: N_11  and  C_12
REMARK    2  A    between atoms: C_12  and  C_13
REMARK                            x       y       z     vdW  Elec       q    Type
REMARK                         _______ _______ _______ _____ _____    ______ ____
ROOT
ATOM      1  O   UNL     1       2.094   5.605  20.716  0.00  0.00    +0.000 OA
ATOM      2  C   UNL     1       2.090   6.492  19.868  0.00  0.00    +0.000 A 
ATOM      3  C   UNL     1       1.444   7.787  20.160  0.00  0.00    +0.000 A 
ATOM      4  C   UNL     1       0.751   7.992  21.357  0.00  0.00    +0.000 A 
ATOM      5  C   UNL     1       0.163   9.231  21.600  0.00  0.00    +0.000 A 
ATOM      6  C   UNL     1       0.255  10.250  20.647  0.00  0.00    +0.000 A 
ATOM      7  C   UNL     1       0.951  10.035  19.458  0.00  0.00    +0.000 A 
ATOM      8  C   UNL     1       1.545   8.796  19.200  0.00  0.00    +0.000 A 
ATOM      9  N   UNL     1       2.203   8.604  17.977  0.00  0.00    +0.000 NA
ATOM     10  C   UNL     1       2.704   7.438  17.746  0.00  0.00    +0.000 A 
ATOM     11  N   UNL     1       2.675   6.375  18.616  0.00  0.00    +0.000 N 
ATOM     12  O   UNL     1      -0.311  11.489  20.815  0.00  0.00    +0.000 OA
ATOM     13  C   UNL     1      -1.267  11.494  21.881  0.00  0.00    +0.000 C 
ATOM     14  C   UNL     1      -0.729  10.756  23.097  0.00  0.00    +0.000 C 
ATOM     15  O   UNL     1      -0.497   9.377  22.794  0.00  0.00    +0.000 OA
ENDROOT
BRANCH  11  16
ATOM     16  C   UNL     1       3.248   5.098  18.217  0.00  0.00    +0.000 C 
BRANCH  16  17
ATOM     17  C   UNL     1       4.542   5.293  17.454  0.00  0.00    +0.000 A 
ATOM     18  C   UNL     1       4.916   4.401  16.438  0.00  0.00    +0.000 A 
ATOM     19  C   UNL     1       6.152   4.531  15.800  0.00  0.00    +0.000 A 
ATOM     20  C   UNL     1       7.025   5.554  16.168  0.00  0.00    +0.000 A 
ATOM     21  C   UNL     1       6.651   6.453  17.164  0.00  0.00    +0.000 A 
ATOM     22 BR   UNL     1       7.835   7.841  17.663  0.00  0.00    +0.000 Br
ATOM     23  C   UNL     1       5.419   6.330  17.805  0.00  0.00    +0.000 A 
ENDBRANCH  16  17
ENDBRANCH  11  16
TORSDOF 2
ENDMDL
MODEL 9
REMARK VINA RESULT:      -7.1      3.394      7.487
REMARK  Name = 
REMARK  2 active torsions:
REMARK  status: ('A' for Active; 'I' for Inactive)
REMARK    1  A    between atoms: N_11  and  C_12
REMARK    2  A    between atoms: C_12  and  C_13
REMARK                            x       y       z     vdW  Elec       q    Type
REMARK                         _______ _______ _______ _____ _____    ______ ____
ROOT
ATOM      1  O   UNL     1       1.849   9.464  17.311  0.00  0.00    +0.000 OA
ATOM      2  C   UNL     1       1.701   9.030  18.450  0.00  0.00    +0.000 A 
ATOM      3  C   UNL     1       0.842   9.754  19.408  0.00  0.00    +0.000 A 
ATOM      4  C   UNL     1       0.262  10.981  19.071  0.00  0.00    +0.000 A 
ATOM      5  C   UNL     1      -0.550  11.628  19.999  0.00  0.00    +0.000 A 
ATOM      6  C   UNL     1      -0.768  11.059  21.257  0.00  0.00    +0.000 A 
ATOM      7  C   UNL     1      -0.188   9.833  21.581  0.00  0.00    +0.000 A 
ATOM      8  C   UNL     1       0.631   9.173  20.661  0.00  0.00    +0.000 A 
ATOM      9  N   UNL     1       1.230   7.962  21.035  0.00  0.00    +0.000 NA
ATOM     10  C   UNL     1       2.016   7.396  20.183  0.00  0.00    +0.000 A 
ATOM     11  N   UNL     1       2.290   7.867  18.922  0.00  0.00    +0.000 N 
ATOM     12  O   UNL     1      -1.545  11.648  22.223  0.00  0.00    +0.000 OA
ATOM     13  C   UNL     1      -1.805  13.024  21.927  0.00  0.00    +0.000 C 
ATOM     14  C   UNL     1      -2.181  13.205  20.465  0.00  0.00    +0.000 C 
ATOM     15  O   UNL     1      -1.097  12.824  19.611  0.00  0.00    +0.000 OA
ENDROOT
BRANCH  11  16
ATOM     16  C   UNL     1       3.226   7.148  18.069  0.00  0.00    +0.000 C 
BRANCH  16  17
ATOM     17  C   UNL     1       3.386   5.712  18.521  0.00  0.00    +0.000 A 
ATOM     18  C   UNL     1       4.647   5.208  18.877  0.00  0.00    +0.000 A 
ATOM     19  C   UNL     1       4.806   3.860  19.204  0.00  0.00    +0.000 A 
ATOM     20  C   UNL     1       3.708   3.001  19.182  0.00  0.00    +0.000 A 
ATOM     21  C   UNL     1       2.450   3.498  18.847  0.00  0.00    +0.000 A 
ATOM     22 BR   UNL     1       0.961   2.334  18.817  0.00  0.00    +0.000 Br
ATOM     23  C   UNL     1       2.284   4.843  18.519  0.00  0.00    +0.000 A 
ENDBRANCH  16  17
ENDBRANCH  11  16
TORSDOF 2
ENDMDL
