MODEL 1
REMARK VINA RESULT:      -8.0      0.000      0.000
REMARK  Name = 
REMARK  8 active torsions:
REMARK  status: ('A' for Active; 'I' for Inactive)
REMARK    1  A    between atoms: C_1  and  N_2
REMARK    2  A    between atoms: N_2  and  C_3
REMARK    3  A    between atoms: N_2  and  C_4
REMARK    4  A    between atoms: C_7  and  C_8
REMARK    5  A    between atoms: N_10  and  C_11
REMARK    6  A    between atoms: N_10  and  C_18
REMARK    7  A    between atoms: C_11  and  C_12
REMARK    8  A    between atoms: C_18  and  C_19
REMARK                            x       y       z     vdW  Elec       q    Type
REMARK                         _______ _______ _______ _____ _____    ______ ____
ROOT
ATOM      1  C   UNL     1       4.446   6.019  17.837  0.00  0.00    +0.000 C 
ATOM      2  O   UNL     1       5.555   6.554  17.958  0.00  0.00    +0.000 OA
ATOM      3  N   UNL     1       4.339   4.706  17.363  0.00  0.00    +0.000 N 
ENDROOT
BRANCH   1   7
ATOM      4  C   UNL     1       1.414   8.785  19.278  0.00  0.00    +0.000 A 
ATOM      5  C   UNL     1       1.826   8.826  17.940  0.00  0.00    +0.000 A 
ATOM      6  C   UNL     1       2.761   7.913  17.416  0.00  0.00    +0.000 A 
ATOM      7  C   UNL     1       3.283   6.889  18.201  0.00  0.00    +0.000 A 
ATOM      8  C   UNL     1       2.810   6.782  19.514  0.00  0.00    +0.000 A 
ATOM      9  C   UNL     1       1.902   7.714  20.037  0.00  0.00    +0.000 A 
BRANCH   4  11
ATOM     10  C   UNL     1      -0.319  10.547  19.024  0.00  0.00    +0.000 C 
ATOM     11  N   UNL     1       0.588   9.751  19.837  0.00  0.00    +0.000 N 
ATOM     12  C   UNL     1       0.775  10.143  21.229  0.00  0.00    +0.000 C 
ENDBRANCH   4  11
ENDBRANCH   1   7
BRANCH   3  13
ATOM     13  C   UNL     1       3.120   3.903  17.294  0.00  0.00    +0.000 C 
BRANCH  13  14
ATOM     14  C   UNL     1       2.533   3.494  18.634  0.00  0.00    +0.000 A 
ATOM     15  C   UNL     1       1.170   3.621  18.955  0.00  0.00    +0.000 A 
ATOM     16  C   UNL     1       0.714   3.352  20.248  0.00  0.00    +0.000 A 
ATOM     17  C   UNL     1       1.605   2.937  21.234  0.00  0.00    +0.000 A 
ATOM     18  C   UNL     1       2.951   2.769  20.925  0.00  0.00    +0.000 A 
ATOM     19  C   UNL     1       3.411   3.045  19.635  0.00  0.00    +0.000 A 
ENDBRANCH  13  14
ENDBRANCH   3  13
BRANCH   3  20
ATOM     20  C   UNL     1       5.593   4.017  17.032  0.00  0.00    +0.000 C 
BRANCH  20  21
ATOM     21  C   UNL     1       6.003   4.198  15.584  0.00  0.00    +0.000 A 
ATOM     22  C   UNL     1       5.298   3.563  14.552  0.00  0.00    +0.000 A 
ATOM     23  C   UNL     1       5.699   3.710  13.222  0.00  0.00    +0.000 A 
ATOM     24  C   UNL     1       6.808   4.494  12.907  0.00  0.00    +0.000 A 
ATOM     25  C   UNL     1       7.511   5.140  13.920  0.00  0.00    +0.000 A 
ATOM     26  C   UNL     1       7.109   4.993  15.250  0.00  0.00    +0.000 A 
ENDBRANCH  20  21
ENDBRANCH   3  20
TORSDOF 6
ENDMDL
MODEL 2
REMARK VINA RESULT:      -7.9      0.350      1.183
REMARK  Name = 
REMARK  8 active torsions:
REMARK  status: ('A' for Active; 'I' for Inactive)
REMARK    1  A    between atoms: C_1  and  N_2
REMARK    2  A    between atoms: N_2  and  C_3
REMARK    3  A    between atoms: N_2  and  C_4
REMARK    4  A    between atoms: C_7  and  C_8
REMARK    5  A    between atoms: N_10  and  C_11
REMARK    6  A    between atoms: N_10  and  C_18
REMARK    7  A    between atoms: C_11  and  C_12
REMARK    8  A    between atoms: C_18  and  C_19
REMARK                            x       y       z     vdW  Elec       q    Type
REMARK                         _______ _______ _______ _____ _____    ______ ____
ROOT
ATOM      1  C   UNL     1       4.626   5.896  17.709  0.00  0.00    +0.000 C 
ATOM      2  O   UNL     1       5.736   6.420  17.868  0.00  0.00    +0.000 OA
ATOM      3  N   UNL     1       4.519   4.605  17.180  0.00  0.00    +0.000 N 
ENDROOT
BRANCH   1   7
ATOM      4  C   UNL     1       1.586   8.615  19.221  0.00  0.00    +0.000 A 
ATOM      5  C   UNL     1       2.022   8.714  17.894  0.00  0.00    +0.000 A 
ATOM      6  C   UNL     1       2.960   7.819  17.345  0.00  0.00    +0.000 A 
ATOM      7  C   UNL     1       3.462   6.757  18.092  0.00  0.00    +0.000 A 
ATOM      8  C   UNL     1       2.965   6.594  19.390  0.00  0.00    +0.000 A 
ATOM      9  C   UNL     1       2.054   7.508  19.939  0.00  0.00    +0.000 A 
BRANCH   4  11
ATOM     10  C   UNL     1       0.154   9.345  21.116  0.00  0.00    +0.000 C 
ATOM     11  N   UNL     1       0.757   9.561  19.809  0.00  0.00    +0.000 N 
ATOM     12  C   UNL     1       0.293  10.701  19.027  0.00  0.00    +0.000 C 
ENDBRANCH   4  11
ENDBRANCH   1   7
BRANCH   3  13
ATOM     13  C   UNL     1       3.298   3.812  17.060  0.00  0.00    +0.000 C 
BRANCH  13  14
ATOM     14  C   UNL     1       2.649   3.413  18.374  0.00  0.00    +0.000 A 
ATOM     15  C   UNL     1       1.275   3.561  18.637  0.00  0.00    +0.000 A 
ATOM     16  C   UNL     1       0.761   3.300  19.910  0.00  0.00    +0.000 A 
ATOM     17  C   UNL     1       1.604   2.873  20.933  0.00  0.00    +0.000 A 
ATOM     18  C   UNL     1       2.959   2.684  20.681  0.00  0.00    +0.000 A 
ATOM     19  C   UNL     1       3.477   2.952  19.411  0.00  0.00    +0.000 A 
ENDBRANCH  13  14
ENDBRANCH   3  13
BRANCH   3  20
ATOM     20  C   UNL     1       5.775   3.923  16.838  0.00  0.00    +0.000 C 
BRANCH  20  21
ATOM     21  C   UNL     1       6.185   4.127  15.394  0.00  0.00    +0.000 A 
ATOM     22  C   UNL     1       7.224   5.006  15.058  0.00  0.00    +0.000 A 
ATOM     23  C   UNL     1       7.578   5.212  13.722  0.00  0.00    +0.000 A 
ATOM     24  C   UNL     1       6.900   4.540  12.706  0.00  0.00    +0.000 A 
ATOM     25  C   UNL     1       5.874   3.655  13.025  0.00  0.00    +0.000 A 
ATOM     26  C   UNL     1       5.521   3.449  14.361  0.00  0.00    +0.000 A 
ENDBRANCH  20  21
ENDBRANCH   3  20
TORSDOF 6
ENDMDL
MODEL 3
REMARK VINA RESULT:      -7.8      0.334      1.000
REMARK  Name = 
REMARK  8 active torsions:
REMARK  status: ('A' for Active; 'I' for Inactive)
REMARK    1  A    between atoms: C_1  and  N_2
REMARK    2  A    between atoms: N_2  and  C_3
REMARK    3  A    between atoms: N_2  and  C_4
REMARK    4  A    between atoms: C_7  and  C_8
REMARK    5  A    between atoms: N_10  and  C_11
REMARK    6  A    between atoms: N_10  and  C_18
REMARK    7  A    between atoms: C_11  and  C_12
REMARK    8  A    between atoms: C_18  and  C_19
REMARK                            x       y       z     vdW  Elec       q    Type
REMARK                         _______ _______ _______ _____ _____    ______ ____
ROOT
ATOM      1  C   UNL     1       4.532   6.056  17.758  0.00  0.00    +0.000 C 
ATOM      2  O   UNL     1       5.631   6.621  17.831  0.00  0.00    +0.000 OA
ATOM      3  N   UNL     1       4.444   4.728  17.325  0.00  0.00    +0.000 N 
ENDROOT
BRANCH   1   7
ATOM      4  C   UNL     1       1.468   8.768  19.233  0.00  0.00    +0.000 A 
ATOM      5  C   UNL     1       1.878   8.829  17.895  0.00  0.00    +0.000 A 
ATOM      6  C   UNL     1       2.824   7.934  17.360  0.00  0.00    +0.000 A 
ATOM      7  C   UNL     1       3.359   6.907  18.133  0.00  0.00    +0.000 A 
ATOM      8  C   UNL     1       2.889   6.779  19.445  0.00  0.00    +0.000 A 
ATOM      9  C   UNL     1       1.970   7.694  19.979  0.00  0.00    +0.000 A 
BRANCH   4  11
ATOM     10  C   UNL     1       0.586  11.088  19.320  0.00  0.00    +0.000 C 
ATOM     11  N   UNL     1       0.631   9.717  19.803  0.00  0.00    +0.000 N 
ATOM     12  C   UNL     1      -0.063   9.413  21.050  0.00  0.00    +0.000 C 
ENDBRANCH   4  11
ENDBRANCH   1   7
BRANCH   3  13
ATOM     13  C   UNL     1       3.245   3.893  17.316  0.00  0.00    +0.000 C 
BRANCH  13  14
ATOM     14  C   UNL     1       2.672   3.561  18.682  0.00  0.00    +0.000 A 
ATOM     15  C   UNL     1       3.452   3.117  19.765  0.00  0.00    +0.000 A 
ATOM     16  C   UNL     1       2.850   2.703  20.955  0.00  0.00    +0.000 A 
ATOM     17  C   UNL     1       1.464   2.740  21.091  0.00  0.00    +0.000 A 
ATOM     18  C   UNL     1       0.678   3.213  20.044  0.00  0.00    +0.000 A 
ATOM     19  C   UNL     1       1.278   3.621  18.850  0.00  0.00    +0.000 A 
ENDBRANCH  13  14
ENDBRANCH   3  13
BRANCH   3  20
ATOM     20  C   UNL     1       5.705   4.060  16.975  0.00  0.00    +0.000 C 
BRANCH  20  21
ATOM     21  C   UNL     1       6.066   4.207  15.511  0.00  0.00    +0.000 A 
ATOM     22  C   UNL     1       5.320   3.557  14.518  0.00  0.00    +0.000 A 
ATOM     23  C   UNL     1       5.676   3.673  13.171  0.00  0.00    +0.000 A 
ATOM     24  C   UNL     1       6.779   4.440  12.801  0.00  0.00    +0.000 A 
ATOM     25  C   UNL     1       7.522   5.101  13.776  0.00  0.00    +0.000 A 
ATOM     26  C   UNL     1       7.166   4.986  15.121  0.00  0.00    +0.000 A 
ENDBRANCH  20  21
ENDBRANCH   3  20
TORSDOF 6
ENDMDL
MODEL 4
REMARK VINA RESULT:      -7.7      0.770      1.552
REMARK  Name = 
REMARK  8 active torsions:
REMARK  status: ('A' for Active; 'I' for Inactive)
REMARK    1  A    between atoms: C_1  and  N_2
REMARK    2  A    between atoms: N_2  and  C_3
REMARK    3  A    between atoms: N_2  and  C_4
REMARK    4  A    between atoms: C_7  and  C_8
REMARK    5  A    between atoms: N_10  and  C_11
REMARK    6  A    between atoms: N_10  and  C_18
REMARK    7  A    between atoms: C_11  and  C_12
REMARK    8  A    between atoms: C_18  and  C_19
REMARK                            x       y       z     vdW  Elec       q    Type
REMARK                         _______ _______ _______ _____ _____    ______ ____
ROOT
ATOM      1  C   UNL     1       4.961   6.040  17.471  0.00  0.00    +0.000 C 
ATOM      2  O   UNL     1       6.032   6.624  17.681  0.00  0.00    +0.000 OA
ATOM      3  N   UNL     1       4.946   4.786  16.850  0.00  0.00    +0.000 N 
ENDROOT
BRANCH   1   7
ATOM      4  C   UNL     1       1.735   8.441  19.129  0.00  0.00    +0.000 A 
ATOM      5  C   UNL     1       2.163   8.649  17.811  0.00  0.00    +0.000 A 
ATOM      6  C   UNL     1       3.163   7.858  17.214  0.00  0.00    +0.000 A 
ATOM      7  C   UNL     1       3.739   6.791  17.899  0.00  0.00    +0.000 A 
ATOM      8  C   UNL     1       3.256   6.517  19.184  0.00  0.00    +0.000 A 
ATOM      9  C   UNL     1       2.282   7.330  19.782  0.00  0.00    +0.000 A 
BRANCH   4  11
ATOM     10  C   UNL     1       0.442  10.561  19.186  0.00  0.00    +0.000 C 
ATOM     11  N   UNL     1       0.841   9.289  19.768  0.00  0.00    +0.000 N 
ATOM     12  C   UNL     1       0.451   9.020  21.147  0.00  0.00    +0.000 C 
ENDBRANCH   4  11
ENDBRANCH   1   7
BRANCH   3  13
ATOM     13  C   UNL     1       3.782   3.923  16.660  0.00  0.00    +0.000 C 
BRANCH  13  14
ATOM     14  C   UNL     1       3.100   3.458  17.934  0.00  0.00    +0.000 A 
ATOM     15  C   UNL     1       3.792   2.911  19.030  0.00  0.00    +0.000 A 
ATOM     16  C   UNL     1       3.097   2.380  20.119  0.00  0.00    +0.000 A 
ATOM     17  C   UNL     1       1.704   2.401  20.141  0.00  0.00    +0.000 A 
ATOM     18  C   UNL     1       1.004   2.972  19.083  0.00  0.00    +0.000 A 
ATOM     19  C   UNL     1       1.697   3.497  17.989  0.00  0.00    +0.000 A 
ENDBRANCH  13  14
ENDBRANCH   3  13
BRANCH   3  20
ATOM     20  C   UNL     1       6.248   4.215  16.477  0.00  0.00    +0.000 C 
BRANCH  20  21
ATOM     21  C   UNL     1       6.513   4.272  14.987  0.00  0.00    +0.000 A 
ATOM     22  C   UNL     1       7.469   5.151  14.459  0.00  0.00    +0.000 A 
ATOM     23  C   UNL     1       7.688   5.219  13.081  0.00  0.00    +0.000 A 
ATOM     24  C   UNL     1       6.957   4.409  12.214  0.00  0.00    +0.000 A 
ATOM     25  C   UNL     1       6.013   3.522  12.724  0.00  0.00    +0.000 A 
ATOM     26  C   UNL     1       5.794   3.454  14.102  0.00  0.00    +0.000 A 
ENDBRANCH  20  21
ENDBRANCH   3  20
TORSDOF 6
ENDMDL
MODEL 5
REMARK VINA RESULT:      -7.5      2.501      3.297
REMARK  Name = 
REMARK  8 active torsions:
REMARK  status: ('A' for Active; 'I' for Inactive)
REMARK    1  A    between atoms: C_1  and  N_2
REMARK    2  A    between atoms: N_2  and  C_3
REMARK    3  A    between atoms: N_2  and  C_4
REMARK    4  A    between atoms: C_7  and  C_8
REMARK    5  A    between atoms: N_10  and  C_11
REMARK    6  A    between atoms: N_10  and  C_18
REMARK    7  A    between atoms: C_11  and  C_12
REMARK    8  A    between atoms: C_18  and  C_19
REMARK                            x       y       z     vdW  Elec       q    Type
REMARK                         _______ _______ _______ _____ _____    ______ ____
ROOT
ATOM      1  C   UNL     1       2.439   8.026  18.212  0.00  0.00    +0.000 C 
ATOM      2  O   UNL     1       2.725   8.555  17.131  0.00  0.00    +0.000 OA
ATOM      3  N   UNL     1       2.950   6.765  18.542  0.00  0.00    +0.000 N 
ENDROOT
BRANCH   1   7
ATOM      4  C   UNL     1       0.205  10.482  21.021  0.00  0.00    +0.000 A 
ATOM      5  C   UNL     1       0.202  10.794  19.656  0.00  0.00    +0.000 A 
ATOM      6  C   UNL     1       0.863   9.994  18.704  0.00  0.00    +0.000 A 
ATOM      7  C   UNL     1       1.511   8.820  19.077  0.00  0.00    +0.000 A 
ATOM      8  C   UNL     1       1.443   8.450  20.425  0.00  0.00    +0.000 A 
ATOM      9  C   UNL     1       0.810   9.268  21.372  0.00  0.00    +0.000 A 
BRANCH   4  11
ATOM     10  C   UNL     1      -1.148  10.816  23.078  0.00  0.00    +0.000 C 
ATOM     11  N   UNL     1      -0.337  11.324  21.983  0.00  0.00    +0.000 N 
ATOM     12  C   UNL     1      -0.288  12.769  21.788  0.00  0.00    +0.000 C 
ENDBRANCH   4  11
ENDBRANCH   1   7
BRANCH   3  13
ATOM     13  C   UNL     1       2.812   6.079  19.825  0.00  0.00    +0.000 C 
BRANCH  13  14
ATOM     14  C   UNL     1       2.187   4.696  19.761  0.00  0.00    +0.000 A 
ATOM     15  C   UNL     1       1.641   4.145  18.588  0.00  0.00    +0.000 A 
ATOM     16  C   UNL     1       0.962   2.924  18.623  0.00  0.00    +0.000 A 
ATOM     17  C   UNL     1       0.832   2.227  19.822  0.00  0.00    +0.000 A 
ATOM     18  C   UNL     1       1.399   2.739  20.985  0.00  0.00    +0.000 A 
ATOM     19  C   UNL     1       2.071   3.963  20.954  0.00  0.00    +0.000 A 
ENDBRANCH  13  14
ENDBRANCH   3  13
BRANCH   3  20
ATOM     20  C   UNL     1       3.828   6.126  17.553  0.00  0.00    +0.000 C 
BRANCH  20  21
ATOM     21  C   UNL     1       5.297   6.239  17.905  0.00  0.00    +0.000 A 
ATOM     22  C   UNL     1       5.857   5.449  18.919  0.00  0.00    +0.000 A 
ATOM     23  C   UNL     1       7.206   5.579  19.259  0.00  0.00    +0.000 A 
ATOM     24  C   UNL     1       8.012   6.498  18.589  0.00  0.00    +0.000 A 
ATOM     25  C   UNL     1       7.472   7.281  17.572  0.00  0.00    +0.000 A 
ATOM     26  C   UNL     1       6.124   7.150  17.232  0.00  0.00    +0.000 A 
ENDBRANCH  20  21
ENDBRANCH   3  20
TORSDOF 6
ENDMDL
MODEL 6
REMARK VINA RESULT:      -7.4      2.534      3.435
REMARK  Name = 
REMARK  8 active torsions:
REMARK  status: ('A' for Active; 'I' for Inactive)
REMARK    1  A    between atoms: C_1  and  N_2
REMARK    2  A    between atoms: N_2  and  C_3
REMARK    3  A    between atoms: N_2  and  C_4
REMARK    4  A    between atoms: C_7  and  C_8
REMARK    5  A    between atoms: N_10  and  C_11
REMARK    6  A    between atoms: N_10  and  C_18
REMARK    7  A    between atoms: C_11  and  C_12
REMARK    8  A    between atoms: C_18  and  C_19
REMARK                            x       y       z     vdW  Elec       q    Type
REMARK                         _______ _______ _______ _____ _____    ______ ____
ROOT
ATOM      1  C   UNL     1       2.355   8.156  18.212  0.00  0.00    +0.000 C 
ATOM      2  O   UNL     1       2.663   8.522  17.071  0.00  0.00    +0.000 OA
ATOM      3  N   UNL     1       2.745   6.898  18.685  0.00  0.00    +0.000 N 
ENDROOT
BRANCH   1   7
ATOM      4  C   UNL     1      -0.456  10.877  20.113  0.00  0.00    +0.000 A 
ATOM      5  C   UNL     1       0.110   9.826  20.844  0.00  0.00    +0.000 A 
ATOM      6  C   UNL     1       1.068   8.957  20.288  0.00  0.00    +0.000 A 
ATOM      7  C   UNL     1       1.534   9.138  18.988  0.00  0.00    +0.000 A 
ATOM      8  C   UNL     1       1.042  10.240  18.278  0.00  0.00    +0.000 A 
ATOM      9  C   UNL     1       0.065  11.082  18.830  0.00  0.00    +0.000 A 
BRANCH   4  11
ATOM     10  C   UNL     1      -2.448  12.311  19.729  0.00  0.00    +0.000 C 
ATOM     11  N   UNL     1      -1.488  11.664  20.609  0.00  0.00    +0.000 N 
ATOM     12  C   UNL     1      -1.497  12.038  22.018  0.00  0.00    +0.000 C 
ENDBRANCH   4  11
ENDBRANCH   1   7
BRANCH   3  13
ATOM     13  C   UNL     1       2.573   6.387  20.043  0.00  0.00    +0.000 C 
BRANCH  13  14
ATOM     14  C   UNL     1       2.137   4.935  20.142  0.00  0.00    +0.000 A 
ATOM     15  C   UNL     1       1.405   4.274  19.140  0.00  0.00    +0.000 A 
ATOM     16  C   UNL     1       0.920   2.980  19.347  0.00  0.00    +0.000 A 
ATOM     17  C   UNL     1       1.171   2.321  20.548  0.00  0.00    +0.000 A 
ATOM     18  C   UNL     1       1.927   2.944  21.536  0.00  0.00    +0.000 A 
ATOM     19  C   UNL     1       2.406   4.241  21.334  0.00  0.00    +0.000 A 
ENDBRANCH  13  14
ENDBRANCH   3  13
BRANCH   3  20
ATOM     20  C   UNL     1       3.529   6.060  17.768  0.00  0.00    +0.000 C 
BRANCH  20  21
ATOM     21  C   UNL     1       5.020   6.140  18.020  0.00  0.00    +0.000 A 
ATOM     22  C   UNL     1       5.617   5.398  19.049  0.00  0.00    +0.000 A 
ATOM     23  C   UNL     1       6.988   5.499  19.296  0.00  0.00    +0.000 A 
ATOM     24  C   UNL     1       7.780   6.341  18.517  0.00  0.00    +0.000 A 
ATOM     25  C   UNL     1       7.204   7.076  17.484  0.00  0.00    +0.000 A 
ATOM     26  C   UNL     1       5.833   6.974  17.237  0.00  0.00    +0.000 A 
ENDBRANCH  20  21
ENDBRANCH   3  20
TORSDOF 6
ENDMDL
MODEL 7
REMARK VINA RESULT:      -7.3      2.494      3.338
REMARK  Name = 
REMARK  8 active torsions:
REMARK  status: ('A' for Active; 'I' for Inactive)
REMARK    1  A    between atoms: C_1  and  N_2
REMARK    2  A    between atoms: N_2  and  C_3
REMARK    3  A    between atoms: N_2  and  C_4
REMARK    4  A    between atoms: C_7  and  C_8
REMARK    5  A    between atoms: N_10  and  C_11
REMARK    6  A    between atoms: N_10  and  C_18
REMARK    7  A    between atoms: C_11  and  C_12
REMARK    8  A    between atoms: C_18  and  C_19
REMARK                            x       y       z     vdW  Elec       q    Type
REMARK                         _______ _______ _______ _____ _____    ______ ____
ROOT
ATOM      1  C   UNL     1       2.576   8.030  18.118  0.00  0.00    +0.000 C 
ATOM      2  O   UNL     1       2.878   8.659  17.095  0.00  0.00    +0.000 OA
ATOM      3  N   UNL     1       3.145   6.778  18.376  0.00  0.00    +0.000 N 
ENDROOT
BRANCH   1   7
ATOM      4  C   UNL     1       0.074  10.185  20.950  0.00  0.00    +0.000 A 
ATOM      5  C   UNL     1       0.016  10.491  19.584  0.00  0.00    +0.000 A 
ATOM      6  C   UNL     1       0.764   9.781  18.625  0.00  0.00    +0.000 A 
ATOM      7  C   UNL     1       1.562   8.701  18.992  0.00  0.00    +0.000 A 
ATOM      8  C   UNL     1       1.558   8.328  20.341  0.00  0.00    +0.000 A 
ATOM      9  C   UNL     1       0.835   9.060  21.294  0.00  0.00    +0.000 A 
BRANCH   4  11
ATOM     10  C   UNL     1      -0.670  12.398  21.797  0.00  0.00    +0.000 C 
ATOM     11  N   UNL     1      -0.561  10.953  21.916  0.00  0.00    +0.000 N 
ATOM     12  C   UNL     1      -0.941  10.345  23.187  0.00  0.00    +0.000 C 
ENDBRANCH   4  11
ENDBRANCH   1   7
BRANCH   3  13
ATOM     13  C   UNL     1       2.990   5.987  19.595  0.00  0.00    +0.000 C 
BRANCH  13  14
ATOM     14  C   UNL     1       2.294   4.648  19.418  0.00  0.00    +0.000 A 
ATOM     15  C   UNL     1       2.416   3.857  18.261  0.00  0.00    +0.000 A 
ATOM     16  C   UNL     1       1.648   2.700  18.105  0.00  0.00    +0.000 A 
ATOM     17  C   UNL     1       0.761   2.307  19.103  0.00  0.00    +0.000 A 
ATOM     18  C   UNL     1       0.655   3.056  20.271  0.00  0.00    +0.000 A 
ATOM     19  C   UNL     1       1.416   4.217  20.426  0.00  0.00    +0.000 A 
ENDBRANCH  13  14
ENDBRANCH   3  13
BRANCH   3  20
ATOM     20  C   UNL     1       4.105   6.270  17.387  0.00  0.00    +0.000 C 
BRANCH  20  21
ATOM     21  C   UNL     1       5.546   6.423  17.828  0.00  0.00    +0.000 A 
ATOM     22  C   UNL     1       6.361   7.428  17.288  0.00  0.00    +0.000 A 
ATOM     23  C   UNL     1       7.697   7.545  17.678  0.00  0.00    +0.000 A 
ATOM     24  C   UNL     1       8.235   6.662  18.612  0.00  0.00    +0.000 A 
ATOM     25  C   UNL     1       7.435   5.666  19.165  0.00  0.00    +0.000 A 
ATOM     26  C   UNL     1       6.099   5.549  18.776  0.00  0.00    +0.000 A 
ENDBRANCH  20  21
ENDBRANCH   3  20
TORSDOF 6
ENDMDL
MODEL 8
REMARK VINA RESULT:      -7.3      2.513      3.629
REMARK  Name = 
REMARK  8 active torsions:
REMARK  status: ('A' for Active; 'I' for Inactive)
REMARK    1  A    between atoms: C_1  and  N_2
REMARK    2  A    between atoms: N_2  and  C_3
REMARK    3  A    between atoms: N_2  and  C_4
REMARK    4  A    between atoms: C_7  and  C_8
REMARK    5  A    between atoms: N_10  and  C_11
REMARK    6  A    between atoms: N_10  and  C_18
REMARK    7  A    between atoms: C_11  and  C_12
REMARK    8  A    between atoms: C_18  and  C_19
REMARK                            x       y       z     vdW  Elec       q    Type
REMARK                         _______ _______ _______ _____ _____    ______ ____
ROOT
ATOM      1  C   UNL     1       2.280   8.093  18.261  0.00  0.00    +0.000 C 
ATOM      2  O   UNL     1       2.612   8.415  17.113  0.00  0.00    +0.000 OA
ATOM      3  N   UNL     1       2.630   6.840  18.776  0.00  0.00    +0.000 N 
ENDROOT
BRANCH   1   7
ATOM      4  C   UNL     1      -0.483  10.938  20.046  0.00  0.00    +0.000 A 
ATOM      5  C   UNL     1       0.061   9.905  20.819  0.00  0.00    +0.000 A 
ATOM      6  C   UNL     1       1.003   8.998  20.299  0.00  0.00    +0.000 A 
ATOM      7  C   UNL     1       1.476   9.120  18.995  0.00  0.00    +0.000 A 
ATOM      8  C   UNL     1       1.007  10.203  18.242  0.00  0.00    +0.000 A 
ATOM      9  C   UNL     1       0.045  11.084  18.757  0.00  0.00    +0.000 A 
BRANCH   4  11
ATOM     10  C   UNL     1      -1.678  12.041  21.924  0.00  0.00    +0.000 C 
ATOM     11  N   UNL     1      -1.501  11.763  20.508  0.00  0.00    +0.000 N 
ATOM     12  C   UNL     1      -2.553  12.192  19.594  0.00  0.00    +0.000 C 
ENDBRANCH   4  11
ENDBRANCH   1   7
BRANCH   3  13
ATOM     13  C   UNL     1       2.428   6.375  20.146  0.00  0.00    +0.000 C 
BRANCH  13  14
ATOM     14  C   UNL     1       2.010   4.921  20.286  0.00  0.00    +0.000 A 
ATOM     15  C   UNL     1       2.359   4.116  21.385  0.00  0.00    +0.000 A 
ATOM     16  C   UNL     1       2.058   2.751  21.393  0.00  0.00    +0.000 A 
ATOM     17  C   UNL     1       1.391   2.174  20.315  0.00  0.00    +0.000 A 
ATOM     18  C   UNL     1       1.004   2.963  19.236  0.00  0.00    +0.000 A 
ATOM     19  C   UNL     1       1.311   4.326  19.222  0.00  0.00    +0.000 A 
ENDBRANCH  13  14
ENDBRANCH   3  13
BRANCH   3  20
ATOM     20  C   UNL     1       3.402   5.953  17.895  0.00  0.00    +0.000 C 
BRANCH  20  21
ATOM     21  C   UNL     1       4.899   6.074  18.099  0.00  0.00    +0.000 A 
ATOM     22  C   UNL     1       5.679   6.869  17.248  0.00  0.00    +0.000 A 
ATOM     23  C   UNL     1       7.063   6.952  17.424  0.00  0.00    +0.000 A 
ATOM     24  C   UNL     1       7.683   6.244  18.452  0.00  0.00    +0.000 A 
ATOM     25  C   UNL     1       6.919   5.460  19.312  0.00  0.00    +0.000 A 
ATOM     26  C   UNL     1       5.536   5.377  19.137  0.00  0.00    +0.000 A 
ENDBRANCH  20  21
ENDBRANCH   3  20
TORSDOF 6
ENDMDL
MODEL 9
REMARK VINA RESULT:      -7.2      0.491      1.048
REMARK  Name = 
REMARK  8 active torsions:
REMARK  status: ('A' for Active; 'I' for Inactive)
REMARK    1  A    between atoms: C_1  and  N_2
REMARK    2  A    between atoms: N_2  and  C_3
REMARK    3  A    between atoms: N_2  and  C_4
REMARK    4  A    between atoms: C_7  and  C_8
REMARK    5  A    between atoms: N_10  and  C_11
REMARK    6  A    between atoms: N_10  and  C_18
REMARK    7  A    between atoms: C_11  and  C_12
REMARK    8  A    between atoms: C_18  and  C_19
REMARK                            x       y       z     vdW  Elec       q    Type
REMARK                         _______ _______ _______ _____ _____    ______ ____
ROOT
ATOM      1  C   UNL     1       4.812   5.758  17.838  0.00  0.00    +0.000 C 
ATOM      2  O   UNL     1       6.002   6.083  17.940  0.00  0.00    +0.000 OA
ATOM      3  N   UNL     1       4.457   4.538  17.252  0.00  0.00    +0.000 N 
ENDROOT
BRANCH   1   7
ATOM      4  C   UNL     1       1.634   8.525  18.917  0.00  0.00    +0.000 A 
ATOM      5  C   UNL     1       2.059   7.551  19.828  0.00  0.00    +0.000 A 
ATOM      6  C   UNL     1       3.122   6.673  19.545  0.00  0.00    +0.000 A 
ATOM      7  C   UNL     1       3.836   6.770  18.354  0.00  0.00    +0.000 A 
ATOM      8  C   UNL     1       3.480   7.799  17.474  0.00  0.00    +0.000 A 
ATOM      9  C   UNL     1       2.400   8.649  17.751  0.00  0.00    +0.000 A 
BRANCH   4  11
ATOM     10  C   UNL     1      -0.204   9.945  18.035  0.00  0.00    +0.000 C 
ATOM     11  N   UNL     1       0.512   9.314  19.133  0.00  0.00    +0.000 N 
ATOM     12  C   UNL     1       0.157   9.708  20.491  0.00  0.00    +0.000 C 
ENDBRANCH   4  11
ENDBRANCH   1   7
BRANCH   3  13
ATOM     13  C   UNL     1       3.115   3.963  17.184  0.00  0.00    +0.000 C 
BRANCH  13  14
ATOM     14  C   UNL     1       2.525   3.526  18.513  0.00  0.00    +0.000 A 
ATOM     15  C   UNL     1       1.173   3.700  18.858  0.00  0.00    +0.000 A 
ATOM     16  C   UNL     1       0.721   3.398  20.145  0.00  0.00    +0.000 A 
ATOM     17  C   UNL     1       1.604   2.903  21.101  0.00  0.00    +0.000 A 
ATOM     18  C   UNL     1       2.938   2.689  20.767  0.00  0.00    +0.000 A 
ATOM     19  C   UNL     1       3.394   2.997  19.483  0.00  0.00    +0.000 A 
ENDBRANCH  13  14
ENDBRANCH   3  13
BRANCH   3  20
ATOM     20  C   UNL     1       5.555   3.685  16.780  0.00  0.00    +0.000 C 
BRANCH  20  21
ATOM     21  C   UNL     1       5.974   3.991  15.357  0.00  0.00    +0.000 A 
ATOM     22  C   UNL     1       5.261   3.469  14.269  0.00  0.00    +0.000 A 
ATOM     23  C   UNL     1       5.669   3.732  12.959  0.00  0.00    +0.000 A 
ATOM     24  C   UNL     1       6.793   4.521  12.720  0.00  0.00    +0.000 A 
ATOM     25  C   UNL     1       7.505   5.056  13.790  0.00  0.00    +0.000 A 
ATOM     26  C   UNL     1       7.096   4.794  15.100  0.00  0.00    +0.000 A 
ENDBRANCH  20  21
ENDBRANCH   3  20
TORSDOF 6
ENDMDL
