MODEL 1
REMARK VINA RESULT:      -7.1      0.000      0.000
REMARK  Name = 
REMARK  8 active torsions:
REMARK  status: ('A' for Active; 'I' for Inactive)
REMARK    1  A    between atoms: C_1  and  O_2
REMARK    2  A    between atoms: O_2  and  C_3
REMARK    3  A    between atoms: C_6  and  N_7
REMARK    4  A    between atoms: C_8  and  C_10
REMARK    5  A    between atoms: C_10  and  C_11
REMARK    6  A    between atoms: N_13  and  C_14
REMARK    7  A    between atoms: C_17  and  O_18
REMARK    8  A    between atoms: O_18  and  C_19
REMARK                            x       y       z     vdW  Elec       q    Type
REMARK                         _______ _______ _______ _____ _____    ______ ____
ROOT
ATOM      1  C   UNL     1       8.211   6.432  18.544  0.00  0.00    +0.000 C 
ENDROOT
BRANCH   1   3
ATOM      2  N   UNL     1       6.009   5.709  17.685  0.00  0.00    +0.000 N 
ATOM      3  C   UNL     1       6.870   5.761  18.770  0.00  0.00    +0.000 C 
ATOM      4  O   UNL     1       6.662   5.248  19.869  0.00  0.00    +0.000 OA
ATOM      5  H   UNL     1       6.382   6.000  16.780  0.00  0.00    +0.000 HD
BRANCH   2   9
ATOM      6  C   UNL     1       2.136   3.998  17.733  0.00  0.00    +0.000 A 
ATOM      7  C   UNL     1       2.371   5.214  18.369  0.00  0.00    +0.000 A 
ATOM      8  C   UNL     1       3.637   5.802  18.340  0.00  0.00    +0.000 A 
ATOM      9  C   UNL     1       4.700   5.175  17.692  0.00  0.00    +0.000 A 
ATOM     10  C   UNL     1       4.456   3.968  17.020  0.00  0.00    +0.000 A 
ATOM     11  C   UNL     1       3.182   3.375  17.054  0.00  0.00    +0.000 A 
BRANCH   6  13
ATOM     12  C   UNL     1       0.618   2.745  19.049  0.00  0.00    +0.000 C 
ATOM     13  O   UNL     1       0.867   3.516  17.883  0.00  0.00    +0.000 OA
ENDBRANCH   6  13
ENDBRANCH   2   9
ENDBRANCH   1   3
BRANCH   1  14
ATOM     14  C   UNL     1       8.130   7.914  18.297  0.00  0.00    +0.000 C 
ATOM     15  O   UNL     1       7.262   8.343  17.541  0.00  0.00    +0.000 OA
ATOM     16  N   UNL     1       9.068   8.667  18.983  0.00  0.00    +0.000 N 
ATOM     17  H   UNL     1       9.846   8.184  19.419  0.00  0.00    +0.000 HD
BRANCH  16  18
ATOM     18  C   UNL     1       9.071  10.074  19.086  0.00  0.00    +0.000 A 
ATOM     19  C   UNL     1       9.243  10.739  20.305  0.00  0.00    +0.000 A 
ATOM     20  C   UNL     1       9.252  12.129  20.363  0.00  0.00    +0.000 A 
ATOM     21  C   UNL     1       9.117  12.887  19.204  0.00  0.00    +0.000 A 
ATOM     22  C   UNL     1       8.942  12.241  17.982  0.00  0.00    +0.000 A 
ATOM     23  C   UNL     1       8.928  10.838  17.921  0.00  0.00    +0.000 A 
BRANCH  21  24
ATOM     24  O   UNL     1       9.124  14.239  19.399  0.00  0.00    +0.000 OA
ATOM     25  C   UNL     1       8.415  14.694  20.544  0.00  0.00    +0.000 C 
ENDBRANCH  21  24
ENDBRANCH  16  18
ENDBRANCH   1  14
TORSDOF 6
ENDMDL
MODEL 2
REMARK VINA RESULT:      -7.1      0.551      9.193
REMARK  Name = 
REMARK  8 active torsions:
REMARK  status: ('A' for Active; 'I' for Inactive)
REMARK    1  A    between atoms: C_1  and  O_2
REMARK    2  A    between atoms: O_2  and  C_3
REMARK    3  A    between atoms: C_6  and  N_7
REMARK    4  A    between atoms: C_8  and  C_10
REMARK    5  A    between atoms: C_10  and  C_11
REMARK    6  A    between atoms: N_13  and  C_14
REMARK    7  A    between atoms: C_17  and  O_18
REMARK    8  A    between atoms: O_18  and  C_19
REMARK                            x       y       z     vdW  Elec       q    Type
REMARK                         _______ _______ _______ _____ _____    ______ ____
ROOT
ATOM      1  C   UNL     1       8.313   6.418  18.562  0.00  0.00    +0.000 C 
ENDROOT
BRANCH   1   3
ATOM      2  N   UNL     1       9.028   8.734  19.046  0.00  0.00    +0.000 N 
ATOM      3  C   UNL     1       8.176   7.910  18.328  0.00  0.00    +0.000 C 
ATOM      4  O   UNL     1       7.375   8.286  17.473  0.00  0.00    +0.000 OA
ATOM      5  H   UNL     1       9.775   8.282  19.577  0.00  0.00    +0.000 HD
BRANCH   2   9
ATOM      6  C   UNL     1       9.154  12.966  19.018  0.00  0.00    +0.000 A 
ATOM      7  C   UNL     1       8.867  12.267  17.849  0.00  0.00    +0.000 A 
ATOM      8  C   UNL     1       8.797  10.873  17.849  0.00  0.00    +0.000 A 
ATOM      9  C   UNL     1       9.035  10.147  19.015  0.00  0.00    +0.000 A 
ATOM     10  C   UNL     1       9.289  10.851  20.201  0.00  0.00    +0.000 A 
ATOM     11  C   UNL     1       9.363  12.255  20.199  0.00  0.00    +0.000 A 
BRANCH   6  13
ATOM     12  C   UNL     1      10.416  14.940  19.360  0.00  0.00    +0.000 C 
ATOM     13  O   UNL     1       9.239  14.320  18.863  0.00  0.00    +0.000 OA
ENDBRANCH   6  13
ENDBRANCH   2   9
ENDBRANCH   1   3
BRANCH   1  14
ATOM     14  C   UNL     1       7.012   5.707  18.816  0.00  0.00    +0.000 C 
ATOM     15  O   UNL     1       6.714   5.407  19.970  0.00  0.00    +0.000 OA
ATOM     16  N   UNL     1       6.252   5.468  17.682  0.00  0.00    +0.000 N 
ATOM     17  H   UNL     1       6.691   5.588  16.777  0.00  0.00    +0.000 HD
BRANCH  16  18
ATOM     18  C   UNL     1       4.917   5.012  17.673  0.00  0.00    +0.000 A 
ATOM     19  C   UNL     1       4.569   3.712  17.291  0.00  0.00    +0.000 A 
ATOM     20  C   UNL     1       3.241   3.296  17.306  0.00  0.00    +0.000 A 
ATOM     21  C   UNL     1       2.235   4.159  17.728  0.00  0.00    +0.000 A 
ATOM     22  C   UNL     1       2.563   5.458  18.111  0.00  0.00    +0.000 A 
ATOM     23  C   UNL     1       3.902   5.881  18.092  0.00  0.00    +0.000 A 
BRANCH  21  24
ATOM     24  O   UNL     1       0.973   3.635  17.680  0.00  0.00    +0.000 OA
ATOM     25  C   UNL     1       0.632   2.766  18.751  0.00  0.00    +0.000 C 
ENDBRANCH  21  24
ENDBRANCH  16  18
ENDBRANCH   1  14
TORSDOF 6
ENDMDL
MODEL 3
REMARK VINA RESULT:      -7.0      1.214      9.475
REMARK  Name = 
REMARK  8 active torsions:
REMARK  status: ('A' for Active; 'I' for Inactive)
REMARK    1  A    between atoms: C_1  and  O_2
REMARK    2  A    between atoms: O_2  and  C_3
REMARK    3  A    between atoms: C_6  and  N_7
REMARK    4  A    between atoms: C_8  and  C_10
REMARK    5  A    between atoms: C_10  and  C_11
REMARK    6  A    between atoms: N_13  and  C_14
REMARK    7  A    between atoms: C_17  and  O_18
REMARK    8  A    between atoms: O_18  and  C_19
REMARK                            x       y       z     vdW  Elec       q    Type
REMARK                         _______ _______ _______ _____ _____    ______ ____
ROOT
ATOM      1  C   UNL     1       8.055   7.032  18.290  0.00  0.00    +0.000 C 
ENDROOT
BRANCH   1   3
ATOM      2  N   UNL     1       9.165   9.085  19.103  0.00  0.00    +0.000 N 
ATOM      3  C   UNL     1       8.202   8.541  18.268  0.00  0.00    +0.000 C 
ATOM      4  O   UNL     1       7.514   9.174  17.468  0.00  0.00    +0.000 OA
ATOM      5  H   UNL     1       9.798   8.434  19.571  0.00  0.00    +0.000 HD
BRANCH   2   9
ATOM      6  C   UNL     1      10.038  13.184  19.707  0.00  0.00    +0.000 A 
ATOM      7  C   UNL     1      10.080  12.642  18.426  0.00  0.00    +0.000 A 
ATOM      8  C   UNL     1       9.770  11.299  18.208  0.00  0.00    +0.000 A 
ATOM      9  C   UNL     1       9.432  10.463  19.273  0.00  0.00    +0.000 A 
ATOM     10  C   UNL     1       9.355  11.016  20.559  0.00  0.00    +0.000 A 
ATOM     11  C   UNL     1       9.672  12.368  20.777  0.00  0.00    +0.000 A 
BRANCH   6  13
ATOM     12  C   UNL     1      10.546  15.183  18.545  0.00  0.00    +0.000 C 
ATOM     13  O   UNL     1      10.411  14.495  19.780  0.00  0.00    +0.000 OA
ENDBRANCH   6  13
ENDBRANCH   2   9
ENDBRANCH   1   3
BRANCH   1  14
ATOM     14  C   UNL     1       6.742   6.529  17.754  0.00  0.00    +0.000 C 
ATOM     15  O   UNL     1       6.541   6.567  16.542  0.00  0.00    +0.000 OA
ATOM     16  N   UNL     1       5.872   6.044  18.717  0.00  0.00    +0.000 N 
ATOM     17  H   UNL     1       6.074   6.244  19.690  0.00  0.00    +0.000 HD
BRANCH  16  18
ATOM     18  C   UNL     1       4.681   5.333  18.459  0.00  0.00    +0.000 A 
ATOM     19  C   UNL     1       4.649   3.940  18.330  0.00  0.00    +0.000 A 
ATOM     20  C   UNL     1       3.452   3.275  18.088  0.00  0.00    +0.000 A 
ATOM     21  C   UNL     1       2.256   3.979  17.996  0.00  0.00    +0.000 A 
ATOM     22  C   UNL     1       2.270   5.367  18.121  0.00  0.00    +0.000 A 
ATOM     23  C   UNL     1       3.477   6.042  18.360  0.00  0.00    +0.000 A 
BRANCH  21  24
ATOM     24  O   UNL     1       1.155   3.212  17.739  0.00  0.00    +0.000 OA
ATOM     25  C   UNL     1       0.761   2.339  18.790  0.00  0.00    +0.000 C 
ENDBRANCH  21  24
ENDBRANCH  16  18
ENDBRANCH   1  14
TORSDOF 6
ENDMDL
MODEL 4
REMARK VINA RESULT:      -7.0      5.319      7.189
REMARK  Name = 
REMARK  8 active torsions:
REMARK  status: ('A' for Active; 'I' for Inactive)
REMARK    1  A    between atoms: C_1  and  O_2
REMARK    2  A    between atoms: O_2  and  C_3
REMARK    3  A    between atoms: C_6  and  N_7
REMARK    4  A    between atoms: C_8  and  C_10
REMARK    5  A    between atoms: C_10  and  C_11
REMARK    6  A    between atoms: N_13  and  C_14
REMARK    7  A    between atoms: C_17  and  O_18
REMARK    8  A    between atoms: O_18  and  C_19
REMARK                            x       y       z     vdW  Elec       q    Type
REMARK                         _______ _______ _______ _____ _____    ______ ____
ROOT
ATOM      1  C   UNL     1       2.858   3.853  20.519  0.00  0.00    +0.000 C 
ENDROOT
BRANCH   1   3
ATOM      2  N   UNL     1       2.539   6.287  20.228  0.00  0.00    +0.000 N 
ATOM      3  C   UNL     1       1.937   5.054  20.419  0.00  0.00    +0.000 C 
ATOM      4  O   UNL     1       0.723   4.850  20.443  0.00  0.00    +0.000 OA
ATOM      5  H   UNL     1       3.542   6.290  20.032  0.00  0.00    +0.000 HD
BRANCH   2   9
ATOM      6  C   UNL     1       0.497   9.982  19.907  0.00  0.00    +0.000 A 
ATOM      7  C   UNL     1       0.485   9.278  21.108  0.00  0.00    +0.000 A 
ATOM      8  C   UNL     1       1.174   8.071  21.236  0.00  0.00    +0.000 A 
ATOM      9  C   UNL     1       1.874   7.532  20.157  0.00  0.00    +0.000 A 
ATOM     10  C   UNL     1       1.916   8.257  18.958  0.00  0.00    +0.000 A 
ATOM     11  C   UNL     1       1.217   9.470  18.829  0.00  0.00    +0.000 A 
BRANCH   6  13
ATOM     12  C   UNL     1      -0.767  11.541  18.651  0.00  0.00    +0.000 C 
ATOM     13  O   UNL     1      -0.259  11.119  19.909  0.00  0.00    +0.000 OA
ENDBRANCH   6  13
ENDBRANCH   2   9
ENDBRANCH   1   3
BRANCH   1  14
ATOM     14  C   UNL     1       3.745   3.650  19.321  0.00  0.00    +0.000 C 
ATOM     15  O   UNL     1       3.637   2.613  18.671  0.00  0.00    +0.000 OA
ATOM     16  N   UNL     1       4.614   4.697  19.060  0.00  0.00    +0.000 N 
ATOM     17  H   UNL     1       4.742   5.403  19.776  0.00  0.00    +0.000 HD
BRANCH  16  18
ATOM     18  C   UNL     1       5.392   4.844  17.892  0.00  0.00    +0.000 A 
ATOM     19  C   UNL     1       6.759   4.554  17.858  0.00  0.00    +0.000 A 
ATOM     20  C   UNL     1       7.489   4.701  16.682  0.00  0.00    +0.000 A 
ATOM     21  C   UNL     1       6.867   5.113  15.509  0.00  0.00    +0.000 A 
ATOM     22  C   UNL     1       5.505   5.408  15.526  0.00  0.00    +0.000 A 
ATOM     23  C   UNL     1       4.767   5.266  16.712  0.00  0.00    +0.000 A 
BRANCH  21  24
ATOM     24  O   UNL     1       7.697   5.234  14.431  0.00  0.00    +0.000 OA
ATOM     25  C   UNL     1       7.188   4.716  13.208  0.00  0.00    +0.000 C 
ENDBRANCH  21  24
ENDBRANCH  16  18
ENDBRANCH   1  14
TORSDOF 6
ENDMDL
MODEL 5
REMARK VINA RESULT:      -6.9      5.380      7.365
REMARK  Name = 
REMARK  8 active torsions:
REMARK  status: ('A' for Active; 'I' for Inactive)
REMARK    1  A    between atoms: C_1  and  O_2
REMARK    2  A    between atoms: O_2  and  C_3
REMARK    3  A    between atoms: C_6  and  N_7
REMARK    4  A    between atoms: C_8  and  C_10
REMARK    5  A    between atoms: C_10  and  C_11
REMARK    6  A    between atoms: N_13  and  C_14
REMARK    7  A    between atoms: C_17  and  O_18
REMARK    8  A    between atoms: O_18  and  C_19
REMARK                            x       y       z     vdW  Elec       q    Type
REMARK                         _______ _______ _______ _____ _____    ______ ____
ROOT
ATOM      1  C   UNL     1       2.898   4.374  20.682  0.00  0.00    +0.000 C 
ENDROOT
BRANCH   1   3
ATOM      2  N   UNL     1       2.350   6.780  20.541  0.00  0.00    +0.000 N 
ATOM      3  C   UNL     1       1.870   5.480  20.541  0.00  0.00    +0.000 C 
ATOM      4  O   UNL     1       0.696   5.154  20.366  0.00  0.00    +0.000 OA
ATOM      5  H   UNL     1       3.363   6.903  20.499  0.00  0.00    +0.000 HD
BRANCH   2   9
ATOM      6  C   UNL     1      -0.050  10.254  20.219  0.00  0.00    +0.000 A 
ATOM      7  C   UNL     1       0.012   9.556  21.422  0.00  0.00    +0.000 A 
ATOM      8  C   UNL     1       0.818   8.424  21.550  0.00  0.00    +0.000 A 
ATOM      9  C   UNL     1       1.564   7.953  20.469  0.00  0.00    +0.000 A 
ATOM     10  C   UNL     1       1.530   8.675  19.268  0.00  0.00    +0.000 A 
ATOM     11  C   UNL     1       0.714   9.813  19.139  0.00  0.00    +0.000 A 
BRANCH   6  13
ATOM     12  C   UNL     1      -1.215  11.883  18.956  0.00  0.00    +0.000 C 
ATOM     13  O   UNL     1      -0.914  11.311  20.221  0.00  0.00    +0.000 OA
ENDBRANCH   6  13
ENDBRANCH   2   9
ENDBRANCH   1   3
BRANCH   1  14
ATOM     14  C   UNL     1       3.661   4.070  19.422  0.00  0.00    +0.000 C 
ATOM     15  O   UNL     1       3.343   3.087  18.757  0.00  0.00    +0.000 OA
ATOM     16  N   UNL     1       4.670   4.972  19.125  0.00  0.00    +0.000 N 
ATOM     17  H   UNL     1       4.959   5.623  19.846  0.00  0.00    +0.000 HD
BRANCH  16  18
ATOM     18  C   UNL     1       5.384   5.029  17.909  0.00  0.00    +0.000 A 
ATOM     19  C   UNL     1       4.830   5.549  16.735  0.00  0.00    +0.000 A 
ATOM     20  C   UNL     1       5.571   5.599  15.559  0.00  0.00    +0.000 A 
ATOM     21  C   UNL     1       6.890   5.158  15.534  0.00  0.00    +0.000 A 
ATOM     22  C   UNL     1       7.458   4.635  16.694  0.00  0.00    +0.000 A 
ATOM     23  C   UNL     1       6.710   4.579  17.881  0.00  0.00    +0.000 A 
BRANCH  21  24
ATOM     24  O   UNL     1       7.501   5.244  14.314  0.00  0.00    +0.000 OA
ATOM     25  C   UNL     1       6.937   4.435  13.291  0.00  0.00    +0.000 C 
ENDBRANCH  21  24
ENDBRANCH  16  18
ENDBRANCH   1  14
TORSDOF 6
ENDMDL
MODEL 6
REMARK VINA RESULT:      -6.9      1.031      1.672
REMARK  Name = 
REMARK  8 active torsions:
REMARK  status: ('A' for Active; 'I' for Inactive)
REMARK    1  A    between atoms: C_1  and  O_2
REMARK    2  A    between atoms: O_2  and  C_3
REMARK    3  A    between atoms: C_6  and  N_7
REMARK    4  A    between atoms: C_8  and  C_10
REMARK    5  A    between atoms: C_10  and  C_11
REMARK    6  A    between atoms: N_13  and  C_14
REMARK    7  A    between atoms: C_17  and  O_18
REMARK    8  A    between atoms: O_18  and  C_19
REMARK                            x       y       z     vdW  Elec       q    Type
REMARK                         _______ _______ _______ _____ _____    ______ ____
ROOT
ATOM      1  C   UNL     1       8.232   6.599  18.693  0.00  0.00    +0.000 C 
ENDROOT
BRANCH   1   3
ATOM      2  N   UNL     1       5.866   5.943  18.976  0.00  0.00    +0.000 N 
ATOM      3  C   UNL     1       7.015   5.834  18.209  0.00  0.00    +0.000 C 
ATOM      4  O   UNL     1       7.104   5.228  17.141  0.00  0.00    +0.000 OA
ATOM      5  H   UNL     1       5.873   6.631  19.731  0.00  0.00    +0.000 HD
BRANCH   2   9
ATOM      6  C   UNL     1       2.196   4.004  18.138  0.00  0.00    +0.000 A 
ATOM      7  C   UNL     1       3.250   3.292  18.703  0.00  0.00    +0.000 A 
ATOM      8  C   UNL     1       4.456   3.924  19.008  0.00  0.00    +0.000 A 
ATOM      9  C   UNL     1       4.642   5.278  18.733  0.00  0.00    +0.000 A 
ATOM     10  C   UNL     1       3.570   6.005  18.197  0.00  0.00    +0.000 A 
ATOM     11  C   UNL     1       2.356   5.366  17.886  0.00  0.00    +0.000 A 
BRANCH   6  13
ATOM     12  C   UNL     1       0.746   2.251  18.793  0.00  0.00    +0.000 C 
ATOM     13  O   UNL     1       1.094   3.252  17.847  0.00  0.00    +0.000 OA
ENDBRANCH   6  13
ENDBRANCH   2   9
ENDBRANCH   1   3
BRANCH   1  14
ATOM     14  C   UNL     1       8.219   8.065  18.355  0.00  0.00    +0.000 C 
ATOM     15  O   UNL     1       7.440   8.469  17.495  0.00  0.00    +0.000 OA
ATOM     16  N   UNL     1       9.108   8.835  19.087  0.00  0.00    +0.000 N 
ATOM     17  H   UNL     1       9.825   8.360  19.623  0.00  0.00    +0.000 HD
BRANCH  16  18
ATOM     18  C   UNL     1       9.142  10.245  19.110  0.00  0.00    +0.000 A 
ATOM     19  C   UNL     1       9.028  11.019  17.950  0.00  0.00    +0.000 A 
ATOM     20  C   UNL     1       9.055  12.409  18.016  0.00  0.00    +0.000 A 
ATOM     21  C   UNL     1       9.169  13.058  19.242  0.00  0.00    +0.000 A 
ATOM     22  C   UNL     1       9.286  12.302  20.407  0.00  0.00    +0.000 A 
ATOM     23  C   UNL     1       9.263  10.899  20.342  0.00  0.00    +0.000 A 
BRANCH  21  24
ATOM     24  O   UNL     1       9.201  14.422  19.168  0.00  0.00    +0.000 OA
ATOM     25  C   UNL     1       9.619  14.955  17.918  0.00  0.00    +0.000 C 
ENDBRANCH  21  24
ENDBRANCH  16  18
ENDBRANCH   1  14
TORSDOF 6
ENDMDL
MODEL 7
REMARK VINA RESULT:      -6.9      1.033      9.321
REMARK  Name = 
REMARK  8 active torsions:
REMARK  status: ('A' for Active; 'I' for Inactive)
REMARK    1  A    between atoms: C_1  and  O_2
REMARK    2  A    between atoms: O_2  and  C_3
REMARK    3  A    between atoms: C_6  and  N_7
REMARK    4  A    between atoms: C_8  and  C_10
REMARK    5  A    between atoms: C_10  and  C_11
REMARK    6  A    between atoms: N_13  and  C_14
REMARK    7  A    between atoms: C_17  and  O_18
REMARK    8  A    between atoms: O_18  and  C_19
REMARK                            x       y       z     vdW  Elec       q    Type
REMARK                         _______ _______ _______ _____ _____    ______ ____
ROOT
ATOM      1  C   UNL     1       8.152   6.800  18.424  0.00  0.00    +0.000 C 
ENDROOT
BRANCH   1   3
ATOM      2  N   UNL     1       9.131   8.964  19.109  0.00  0.00    +0.000 N 
ATOM      3  C   UNL     1       8.170   8.315  18.351  0.00  0.00    +0.000 C 
ATOM      4  O   UNL     1       7.385   8.862  17.576  0.00  0.00    +0.000 OA
ATOM      5  H   UNL     1       9.843   8.382  19.556  0.00  0.00    +0.000 HD
BRANCH   2   9
ATOM      6  C   UNL     1       9.526  13.172  19.359  0.00  0.00    +0.000 A 
ATOM      7  C   UNL     1       9.401  12.411  20.518  0.00  0.00    +0.000 A 
ATOM      8  C   UNL     1       9.296  11.021  20.452  0.00  0.00    +0.000 A 
ATOM      9  C   UNL     1       9.291  10.363  19.222  0.00  0.00    +0.000 A 
ATOM     10  C   UNL     1       9.452  11.125  18.056  0.00  0.00    +0.000 A 
ATOM     11  C   UNL     1       9.554  12.525  18.124  0.00  0.00    +0.000 A 
BRANCH   6  13
ATOM     12  C   UNL     1      10.679  15.007  20.311  0.00  0.00    +0.000 C 
ATOM     13  O   UNL     1       9.571  14.520  19.568  0.00  0.00    +0.000 OA
ENDBRANCH   6  13
ENDBRANCH   2   9
ENDBRANCH   1   3
BRANCH   1  14
ATOM     14  C   UNL     1       6.930   6.164  17.820  0.00  0.00    +0.000 C 
ATOM     15  O   UNL     1       6.993   5.726  16.673  0.00  0.00    +0.000 OA
ATOM     16  N   UNL     1       5.825   6.124  18.655  0.00  0.00    +0.000 N 
ATOM     17  H   UNL     1       5.840   6.686  19.498  0.00  0.00    +0.000 HD
BRANCH  16  18
ATOM     18  C   UNL     1       4.637   5.403  18.407  0.00  0.00    +0.000 A 
ATOM     19  C   UNL     1       4.605   4.007  18.338  0.00  0.00    +0.000 A 
ATOM     20  C   UNL     1       3.411   3.332  18.103  0.00  0.00    +0.000 A 
ATOM     21  C   UNL     1       2.219   4.034  17.958  0.00  0.00    +0.000 A 
ATOM     22  C   UNL     1       2.233   5.426  18.022  0.00  0.00    +0.000 A 
ATOM     23  C   UNL     1       3.437   6.109  18.255  0.00  0.00    +0.000 A 
BRANCH  21  24
ATOM     24  O   UNL     1       1.122   3.256  17.715  0.00  0.00    +0.000 OA
ATOM     25  C   UNL     1       0.766   2.359  18.758  0.00  0.00    +0.000 C 
ENDBRANCH  21  24
ENDBRANCH  16  18
ENDBRANCH   1  14
TORSDOF 6
ENDMDL
MODEL 8
REMARK VINA RESULT:      -6.9      0.999      9.250
REMARK  Name = 
REMARK  8 active torsions:
REMARK  status: ('A' for Active; 'I' for Inactive)
REMARK    1  A    between atoms: C_1  and  O_2
REMARK    2  A    between atoms: O_2  and  C_3
REMARK    3  A    between atoms: C_6  and  N_7
REMARK    4  A    between atoms: C_8  and  C_10
REMARK    5  A    between atoms: C_10  and  C_11
REMARK    6  A    between atoms: N_13  and  C_14
REMARK    7  A    between atoms: C_17  and  O_18
REMARK    8  A    between atoms: O_18  and  C_19
REMARK                            x       y       z     vdW  Elec       q    Type
REMARK                         _______ _______ _______ _____ _____    ______ ____
ROOT
ATOM      1  C   UNL     1       8.125   6.781  18.379  0.00  0.00    +0.000 C 
ENDROOT
BRANCH   1   3
ATOM      2  N   UNL     1       9.107   8.932  19.100  0.00  0.00    +0.000 N 
ATOM      3  C   UNL     1       8.159   8.296  18.315  0.00  0.00    +0.000 C 
ATOM      4  O   UNL     1       7.398   8.855  17.526  0.00  0.00    +0.000 OA
ATOM      5  H   UNL     1       9.803   8.341  19.561  0.00  0.00    +0.000 HD
BRANCH   2   9
ATOM      6  C   UNL     1       9.534  13.135  19.385  0.00  0.00    +0.000 A 
ATOM      7  C   UNL     1       9.380  12.368  20.537  0.00  0.00    +0.000 A 
ATOM      8  C   UNL     1       9.264  10.979  20.460  0.00  0.00    +0.000 A 
ATOM      9  C   UNL     1       9.277  10.329  19.226  0.00  0.00    +0.000 A 
ATOM     10  C   UNL     1       9.468  11.096  18.068  0.00  0.00    +0.000 A 
ATOM     11  C   UNL     1       9.580  12.496  18.147  0.00  0.00    +0.000 A 
BRANCH   6  13
ATOM     12  C   UNL     1       8.343  15.137  19.804  0.00  0.00    +0.000 C 
ATOM     13  O   UNL     1       9.587  14.481  19.604  0.00  0.00    +0.000 OA
ENDBRANCH   6  13
ENDBRANCH   2   9
ENDBRANCH   1   3
BRANCH   1  14
ATOM     14  C   UNL     1       6.867   6.164  17.832  0.00  0.00    +0.000 C 
ATOM     15  O   UNL     1       6.861   5.759  16.672  0.00  0.00    +0.000 OA
ATOM     16  N   UNL     1       5.814   6.104  18.729  0.00  0.00    +0.000 N 
ATOM     17  H   UNL     1       5.882   6.642  19.585  0.00  0.00    +0.000 HD
BRANCH  16  18
ATOM     18  C   UNL     1       4.611   5.393  18.533  0.00  0.00    +0.000 A 
ATOM     19  C   UNL     1       3.433   6.012  18.104  0.00  0.00    +0.000 A 
ATOM     20  C   UNL     1       2.269   5.274  17.911  0.00  0.00    +0.000 A 
ATOM     21  C   UNL     1       2.262   3.898  18.115  0.00  0.00    +0.000 A 
ATOM     22  C   UNL     1       3.427   3.264  18.543  0.00  0.00    +0.000 A 
ATOM     23  C   UNL     1       4.601   4.008  18.743  0.00  0.00    +0.000 A 
BRANCH  21  24
ATOM     24  O   UNL     1       1.054   3.294  17.908  0.00  0.00    +0.000 OA
ATOM     25  C   UNL     1       0.712   2.279  18.843  0.00  0.00    +0.000 C 
ENDBRANCH  21  24
ENDBRANCH  16  18
ENDBRANCH   1  14
TORSDOF 6
ENDMDL
MODEL 9
REMARK VINA RESULT:      -6.8      1.055      1.452
REMARK  Name = 
REMARK  8 active torsions:
REMARK  status: ('A' for Active; 'I' for Inactive)
REMARK    1  A    between atoms: C_1  and  O_2
REMARK    2  A    between atoms: O_2  and  C_3
REMARK    3  A    between atoms: C_6  and  N_7
REMARK    4  A    between atoms: C_8  and  C_10
REMARK    5  A    between atoms: C_10  and  C_11
REMARK    6  A    between atoms: N_13  and  C_14
REMARK    7  A    between atoms: C_17  and  O_18
REMARK    8  A    between atoms: O_18  and  C_19
REMARK                            x       y       z     vdW  Elec       q    Type
REMARK                         _______ _______ _______ _____ _____    ______ ____
ROOT
ATOM      1  C   UNL     1       8.165   7.075  18.368  0.00  0.00    +0.000 C 
ENDROOT
BRANCH   1   3
ATOM      2  N   UNL     1       6.012   5.919  18.741  0.00  0.00    +0.000 N 
ATOM      3  C   UNL     1       6.892   6.461  17.818  0.00  0.00    +0.000 C 
ATOM      4  O   UNL     1       6.690   6.546  16.607  0.00  0.00    +0.000 OA
ATOM      5  H   UNL     1       6.211   6.088  19.729  0.00  0.00    +0.000 HD
BRANCH   2   9
ATOM      6  C   UNL     1       2.401   3.862  17.934  0.00  0.00    +0.000 A 
ATOM      7  C   UNL     1       2.414   5.252  17.995  0.00  0.00    +0.000 A 
ATOM      8  C   UNL     1       3.602   5.945  18.235  0.00  0.00    +0.000 A 
ATOM      9  C   UNL     1       4.799   5.259  18.441  0.00  0.00    +0.000 A 
ATOM     10  C   UNL     1       4.793   3.860  18.344  0.00  0.00    +0.000 A 
ATOM     11  C   UNL     1       3.595   3.164  18.107  0.00  0.00    +0.000 A 
BRANCH   6  13
ATOM     12  C   UNL     1       0.677   2.475  18.778  0.00  0.00    +0.000 C 
ATOM     13  O   UNL     1       1.165   3.315  17.741  0.00  0.00    +0.000 OA
ENDBRANCH   6  13
ENDBRANCH   2   9
ENDBRANCH   1   3
BRANCH   1  14
ATOM     14  C   UNL     1       8.220   8.576  18.278  0.00  0.00    +0.000 C 
ATOM     15  O   UNL     1       7.407   9.158  17.563  0.00  0.00    +0.000 OA
ATOM     16  N   UNL     1       9.208   9.166  19.049  0.00  0.00    +0.000 N 
ATOM     17  H   UNL     1       9.931   8.573  19.438  0.00  0.00    +0.000 HD
BRANCH  16  18
ATOM     18  C   UNL     1       9.333  10.549  19.300  0.00  0.00    +0.000 A 
ATOM     19  C   UNL     1       9.434  11.494  18.274  0.00  0.00    +0.000 A 
ATOM     20  C   UNL     1       9.545  12.850  18.562  0.00  0.00    +0.000 A 
ATOM     21  C   UNL     1       9.531  13.297  19.879  0.00  0.00    +0.000 A 
ATOM     22  C   UNL     1       9.433  12.369  20.915  0.00  0.00    +0.000 A 
ATOM     23  C   UNL     1       9.325  11.000  20.626  0.00  0.00    +0.000 A 
BRANCH  21  24
ATOM     24  O   UNL     1       9.664  14.649  20.028  0.00  0.00    +0.000 OA
ATOM     25  C   UNL     1       8.605  15.294  20.723  0.00  0.00    +0.000 C 
ENDBRANCH  21  24
ENDBRANCH  16  18
ENDBRANCH   1  14
TORSDOF 6
ENDMDL
