MODEL 1
REMARK VINA RESULT:      -7.7      0.000      0.000
REMARK  Name = 
REMARK  9 active torsions:
REMARK  status: ('A' for Active; 'I' for Inactive)
REMARK    1  A    between atoms: C_1  and  C_2
REMARK    2  A    between atoms: C_3  and  C_4
REMARK    3  A    between atoms: N_6  and  C_7
REMARK    4  A    between atoms: C_10  and  C_11
REMARK    5  A    between atoms: C_14  and  C_15
REMARK    6  A    between atoms: C_18  and  C_19
REMARK    7  A    between atoms: C_22  and  O_23
REMARK    8  A    between atoms: C_25  and  C_26
REMARK    9  A    between atoms: C_25  and  C_27
REMARK                            x       y       z     vdW  Elec       q    Type
REMARK                         _______ _______ _______ _____ _____    ______ ____
ROOT
ATOM      1  C   UNL     1       1.018   8.162  21.381  0.00  0.00    +0.000 C 
ATOM      2  C   UNL     1       0.531   9.477  20.815  0.00  0.00    +0.000 C 
ATOM      3  C   UNL     1       0.876   9.884  19.562  0.00  0.00    +0.000 C 
ATOM      4  C   UNL     1       0.343  11.217  19.169  0.00  0.00    +0.000 C 
ATOM      5  C   UNL     1      -1.040  11.350  19.699  0.00  0.00    +0.000 C 
ATOM      6  C   UNL     1      -1.908  12.280  19.313  0.00  0.00    +0.000 C 
ATOM      7  C   UNL     1      -1.431  13.675  19.636  0.00  0.00    +0.000 C 
ATOM      8  C   UNL     1      -1.792  13.949  21.105  0.00  0.00    +0.000 C 
ATOM      9  C   UNL     1      -0.912  14.994  21.830  0.00  0.00    +0.000 C 
ATOM     10  C   UNL     1      -3.130  14.740  20.905  0.00  0.00    +0.000 C 
ATOM     11  C   UNL     1      -1.638  12.532  21.960  0.00  0.00    +0.000 C 
ATOM     12  C   UNL     1      -0.932  11.305  21.177  0.00  0.00    +0.000 C 
ATOM     13  N   UNL     1      -0.189  10.347  21.715  0.00  0.00    +0.000 NA
ENDROOT
BRANCH   4  14
ATOM     14  C   UNL     1       1.362  12.278  19.499  0.00  0.00    +0.000 A 
ATOM     15  C   UNL     1       2.027  12.689  20.638  0.00  0.00    +0.000 A 
ATOM     16  C   UNL     1       2.899  13.721  20.218  0.00  0.00    +0.000 A 
ATOM     17  C   UNL     1       2.726  13.860  18.864  0.00  0.00    +0.000 A 
ATOM     18  C   UNL     1       3.288  14.741  17.827  0.00  0.00    +0.000 C 
ATOM     19  O   UNL     1       1.808  12.968  18.416  0.00  0.00    +0.000 OA
ENDBRANCH   4  14
BRANCH   3  20
ATOM     20  C   UNL     1       1.710   9.235  18.467  0.00  0.00    +0.000 C 
ATOM     21  O   UNL     1       1.963   9.826  17.421  0.00  0.00    +0.000 OA
ATOM     22  N   UNL     1       2.179   7.943  18.812  0.00  0.00    +0.000 N 
ATOM     23  H   UNL     1       1.819   7.535  19.659  0.00  0.00    +0.000 HD
BRANCH  22  24
ATOM     24  C   UNL     1       3.041   7.089  18.158  0.00  0.00    +0.000 A 
ATOM     25  C   UNL     1       4.125   7.490  17.387  0.00  0.00    +0.000 A 
ATOM     26  C   UNL     1       4.836   6.533  16.657  0.00  0.00    +0.000 A 
ATOM     27  C   UNL     1       4.475   5.167  16.698  0.00  0.00    +0.000 A 
ATOM     28  C   UNL     1       5.151   4.161  15.824  0.00  0.00    +0.000 C 
ATOM     29  C   UNL     1       3.448   4.766  17.552  0.00  0.00    +0.000 A 
ATOM     30  C   UNL     1       2.736   5.721  18.272  0.00  0.00    +0.000 A 
ENDBRANCH  22  24
ENDBRANCH   3  20
BRANCH   6  31
ATOM     31  O   UNL     1      -3.262  11.993  19.488  0.00  0.00    +0.000 OA
ATOM     32  H   UNL     1      -3.694  12.646  20.061  0.00  0.00    +0.000 HD
ENDBRANCH   6  31
TORSDOF 4
ENDMDL
MODEL 2
REMARK VINA RESULT:      -7.5      2.022      3.060
REMARK  Name = 
REMARK  9 active torsions:
REMARK  status: ('A' for Active; 'I' for Inactive)
REMARK    1  A    between atoms: C_1  and  C_2
REMARK    2  A    between atoms: C_3  and  C_4
REMARK    3  A    between atoms: N_6  and  C_7
REMARK    4  A    between atoms: C_10  and  C_11
REMARK    5  A    between atoms: C_14  and  C_15
REMARK    6  A    between atoms: C_18  and  C_19
REMARK    7  A    between atoms: C_22  and  O_23
REMARK    8  A    between atoms: C_25  and  C_26
REMARK    9  A    between atoms: C_25  and  C_27
REMARK                            x       y       z     vdW  Elec       q    Type
REMARK                         _______ _______ _______ _____ _____    ______ ____
ROOT
ATOM      1  C   UNL     1      -0.418   9.776  23.449  0.00  0.00    +0.000 C 
ATOM      2  C   UNL     1      -1.093  10.921  22.727  0.00  0.00    +0.000 C 
ATOM      3  C   UNL     1      -0.614  11.399  21.545  0.00  0.00    +0.000 C 
ATOM      4  C   UNL     1      -1.371  12.550  20.983  0.00  0.00    +0.000 C 
ATOM      5  C   UNL     1      -2.821  12.327  21.224  0.00  0.00    +0.000 C 
ATOM      6  C   UNL     1      -3.797  13.002  20.625  0.00  0.00    +0.000 C 
ATOM      7  C   UNL     1      -3.760  14.475  20.958  0.00  0.00    +0.000 C 
ATOM      8  C   UNL     1      -4.469  14.652  22.311  0.00  0.00    +0.000 C 
ATOM      9  C   UNL     1      -4.043  15.890  23.135  0.00  0.00    +0.000 C 
ATOM     10  C   UNL     1      -5.892  15.073  21.810  0.00  0.00    +0.000 C 
ATOM     11  C   UNL     1      -4.142  13.324  23.256  0.00  0.00    +0.000 C 
ATOM     12  C   UNL     1      -3.008  12.316  22.695  0.00  0.00    +0.000 C 
ATOM     13  N   UNL     1      -2.174  11.581  23.419  0.00  0.00    +0.000 NA
ENDROOT
BRANCH   4  14
ATOM     14  C   UNL     1      -0.739  13.838  21.447  0.00  0.00    +0.000 A 
ATOM     15  C   UNL     1      -0.418  14.397  22.669  0.00  0.00    +0.000 A 
ATOM     16  C   UNL     1       0.217  15.625  22.370  0.00  0.00    +0.000 A 
ATOM     17  C   UNL     1       0.259  15.728  21.003  0.00  0.00    +0.000 A 
ATOM     18  C   UNL     1       0.750  16.735  20.049  0.00  0.00    +0.000 C 
ATOM     19  O   UNL     1      -0.300  14.631  20.435  0.00  0.00    +0.000 OA
ENDBRANCH   4  14
BRANCH   3  20
ATOM     20  C   UNL     1       0.560  10.982  20.672  0.00  0.00    +0.000 C 
ATOM     21  O   UNL     1       1.499  11.743  20.455  0.00  0.00    +0.000 OA
ATOM     22  N   UNL     1       0.464   9.647  20.205  0.00  0.00    +0.000 N 
ATOM     23  H   UNL     1      -0.403   9.163  20.373  0.00  0.00    +0.000 HD
BRANCH  22  24
ATOM     24  C   UNL     1       1.356   8.869  19.497  0.00  0.00    +0.000 A 
ATOM     25  C   UNL     1       1.760   9.112  18.192  0.00  0.00    +0.000 A 
ATOM     26  C   UNL     1       2.558   8.168  17.536  0.00  0.00    +0.000 A 
ATOM     27  C   UNL     1       2.964   6.980  18.185  0.00  0.00    +0.000 A 
ATOM     28  C   UNL     1       3.710   5.914  17.450  0.00  0.00    +0.000 C 
ATOM     29  C   UNL     1       2.633   6.796  19.527  0.00  0.00    +0.000 A 
ATOM     30  C   UNL     1       1.833   7.732  20.175  0.00  0.00    +0.000 A 
ENDBRANCH  22  24
ENDBRANCH   3  20
BRANCH   6  31
ATOM     31  O   UNL     1      -5.043  12.379  20.547  0.00  0.00    +0.000 OA
ATOM     32  H   UNL     1      -5.040  11.520  20.998  0.00  0.00    +0.000 HD
ENDBRANCH   6  31
TORSDOF 4
ENDMDL
MODEL 3
REMARK VINA RESULT:      -7.5      1.943      3.718
REMARK  Name = 
REMARK  9 active torsions:
REMARK  status: ('A' for Active; 'I' for Inactive)
REMARK    1  A    between atoms: C_1  and  C_2
REMARK    2  A    between atoms: C_3  and  C_4
REMARK    3  A    between atoms: N_6  and  C_7
REMARK    4  A    between atoms: C_10  and  C_11
REMARK    5  A    between atoms: C_14  and  C_15
REMARK    6  A    between atoms: C_18  and  C_19
REMARK    7  A    between atoms: C_22  and  O_23
REMARK    8  A    between atoms: C_25  and  C_26
REMARK    9  A    between atoms: C_25  and  C_27
REMARK                            x       y       z     vdW  Elec       q    Type
REMARK                         _______ _______ _______ _____ _____    ______ ____
ROOT
ATOM      1  C   UNL     1       2.982  12.623  18.195  0.00  0.00    +0.000 C 
ATOM      2  C   UNL     1       1.703  12.317  18.943  0.00  0.00    +0.000 C 
ATOM      3  C   UNL     1       1.187  11.058  18.986  0.00  0.00    +0.000 C 
ATOM      4  C   UNL     1      -0.094  10.932  19.734  0.00  0.00    +0.000 C 
ATOM      5  C   UNL     1      -0.032  11.811  20.931  0.00  0.00    +0.000 C 
ATOM      6  C   UNL     1      -0.873  11.744  21.958  0.00  0.00    +0.000 C 
ATOM      7  C   UNL     1      -2.294  12.053  21.553  0.00  0.00    +0.000 C 
ATOM      8  C   UNL     1      -2.439  13.583  21.535  0.00  0.00    +0.000 C 
ATOM      9  C   UNL     1      -3.538  14.143  20.601  0.00  0.00    +0.000 C 
ATOM     10  C   UNL     1      -3.076  13.805  22.950  0.00  0.00    +0.000 C 
ATOM     11  C   UNL     1      -1.004  14.243  21.020  0.00  0.00    +0.000 C 
ATOM     12  C   UNL     1       0.085  13.202  20.429  0.00  0.00    +0.000 C 
ATOM     13  N   UNL     1       0.977  13.444  19.479  0.00  0.00    +0.000 NA
ENDROOT
BRANCH   4  14
ATOM     14  C   UNL     1      -1.247  11.078  18.774  0.00  0.00    +0.000 A 
ATOM     15  C   UNL     1      -1.639  12.013  17.835  0.00  0.00    +0.000 A 
ATOM     16  C   UNL     1      -2.812  11.488  17.242  0.00  0.00    +0.000 A 
ATOM     17  C   UNL     1      -3.047  10.274  17.836  0.00  0.00    +0.000 A 
ATOM     18  C   UNL     1      -4.085   9.238  17.711  0.00  0.00    +0.000 C 
ATOM     19  O   UNL     1      -2.085  10.008  18.753  0.00  0.00    +0.000 OA
ENDBRANCH   4  14
BRANCH   3  20
ATOM     20  C   UNL     1       1.669   9.733  18.414  0.00  0.00    +0.000 C 
ATOM     21  O   UNL     1       2.000   9.626  17.237  0.00  0.00    +0.000 OA
ATOM     22  N   UNL     1       1.734   8.696  19.380  0.00  0.00    +0.000 N 
ATOM     23  H   UNL     1       1.341   8.889  20.287  0.00  0.00    +0.000 HD
BRANCH  22  24
ATOM     24  C   UNL     1       2.217   7.408  19.293  0.00  0.00    +0.000 A 
ATOM     25  C   UNL     1       2.970   6.911  18.238  0.00  0.00    +0.000 A 
ATOM     26  C   UNL     1       3.277   5.547  18.199  0.00  0.00    +0.000 A 
ATOM     27  C   UNL     1       2.840   4.672  19.220  0.00  0.00    +0.000 A 
ATOM     28  C   UNL     1       3.058   3.197  19.119  0.00  0.00    +0.000 C 
ATOM     29  C   UNL     1       2.169   5.202  20.321  0.00  0.00    +0.000 A 
ATOM     30  C   UNL     1       1.858   6.558  20.355  0.00  0.00    +0.000 A 
ENDBRANCH  22  24
ENDBRANCH   3  20
BRANCH   6  31
ATOM     31  O   UNL     1      -0.418  12.238  23.182  0.00  0.00    +0.000 OA
ATOM     32  H   UNL     1       0.428  11.837  23.435  0.00  0.00    +0.000 HD
ENDBRANCH   6  31
TORSDOF 4
ENDMDL
MODEL 4
REMARK VINA RESULT:      -7.5      1.920      2.623
REMARK  Name = 
REMARK  9 active torsions:
REMARK  status: ('A' for Active; 'I' for Inactive)
REMARK    1  A    between atoms: C_1  and  C_2
REMARK    2  A    between atoms: C_3  and  C_4
REMARK    3  A    between atoms: N_6  and  C_7
REMARK    4  A    between atoms: C_10  and  C_11
REMARK    5  A    between atoms: C_14  and  C_15
REMARK    6  A    between atoms: C_18  and  C_19
REMARK    7  A    between atoms: C_22  and  O_23
REMARK    8  A    between atoms: C_25  and  C_26
REMARK    9  A    between atoms: C_25  and  C_27
REMARK                            x       y       z     vdW  Elec       q    Type
REMARK                         _______ _______ _______ _____ _____    ______ ____
ROOT
ATOM      1  C   UNL     1       0.078   9.485  23.151  0.00  0.00    +0.000 C 
ATOM      2  C   UNL     1      -0.705  10.631  22.550  0.00  0.00    +0.000 C 
ATOM      3  C   UNL     1      -0.773  10.818  21.203  0.00  0.00    +0.000 C 
ATOM      4  C   UNL     1      -1.554  12.011  20.776  0.00  0.00    +0.000 C 
ATOM      5  C   UNL     1      -2.742  12.141  21.660  0.00  0.00    +0.000 C 
ATOM      6  C   UNL     1      -3.791  12.916  21.403  0.00  0.00    +0.000 C 
ATOM      7  C   UNL     1      -3.420  14.378  21.345  0.00  0.00    +0.000 C 
ATOM      8  C   UNL     1      -3.392  14.898  22.792  0.00  0.00    +0.000 C 
ATOM      9  C   UNL     1      -2.482  16.121  23.050  0.00  0.00    +0.000 C 
ATOM     10  C   UNL     1      -4.821  15.537  22.870  0.00  0.00    +0.000 C 
ATOM     11  C   UNL     1      -2.835  13.682  23.778  0.00  0.00    +0.000 C 
ATOM     12  C   UNL     1      -2.225  12.383  23.029  0.00  0.00    +0.000 C 
ATOM     13  N   UNL     1      -1.250  11.600  23.470  0.00  0.00    +0.000 NA
ENDROOT
BRANCH   4  14
ATOM     14  C   UNL     1      -0.623  13.187  20.618  0.00  0.00    +0.000 A 
ATOM     15  C   UNL     1       0.544  13.611  21.225  0.00  0.00    +0.000 A 
ATOM     16  C   UNL     1       0.923  14.788  20.537  0.00  0.00    +0.000 A 
ATOM     17  C   UNL     1      -0.014  14.994  19.557  0.00  0.00    +0.000 A 
ATOM     18  C   UNL     1      -0.231  16.020  18.524  0.00  0.00    +0.000 C 
ATOM     19  O   UNL     1      -0.945  14.010  19.586  0.00  0.00    +0.000 OA
ENDBRANCH   4  14
BRANCH   3  20
ATOM     20  C   UNL     1      -0.200  10.037  20.030  0.00  0.00    +0.000 C 
ATOM     21  O   UNL     1      -0.629  10.189  18.889  0.00  0.00    +0.000 OA
ATOM     22  N   UNL     1       0.878   9.191  20.393  0.00  0.00    +0.000 N 
ATOM     23  H   UNL     1       1.067   9.085  21.376  0.00  0.00    +0.000 HD
BRANCH  22  24
ATOM     24  C   UNL     1       1.723   8.421  19.623  0.00  0.00    +0.000 A 
ATOM     25  C   UNL     1       2.178   8.764  18.357  0.00  0.00    +0.000 A 
ATOM     26  C   UNL     1       2.915   7.832  17.619  0.00  0.00    +0.000 A 
ATOM     27  C   UNL     1       3.210   6.554  18.145  0.00  0.00    +0.000 A 
ATOM     28  C   UNL     1       3.887   5.513  17.314  0.00  0.00    +0.000 C 
ATOM     29  C   UNL     1       2.831   6.260  19.454  0.00  0.00    +0.000 A 
ATOM     30  C   UNL     1       2.091   7.185  20.185  0.00  0.00    +0.000 A 
ENDBRANCH  22  24
ENDBRANCH   3  20
BRANCH   6  31
ATOM     31  O   UNL     1      -4.998  12.570  22.012  0.00  0.00    +0.000 OA
ATOM     32  H   UNL     1      -5.099  13.001  22.874  0.00  0.00    +0.000 HD
ENDBRANCH   6  31
TORSDOF 4
ENDMDL
MODEL 5
REMARK VINA RESULT:      -7.4      1.210      1.471
REMARK  Name = 
REMARK  9 active torsions:
REMARK  status: ('A' for Active; 'I' for Inactive)
REMARK    1  A    between atoms: C_1  and  C_2
REMARK    2  A    between atoms: C_3  and  C_4
REMARK    3  A    between atoms: N_6  and  C_7
REMARK    4  A    between atoms: C_10  and  C_11
REMARK    5  A    between atoms: C_14  and  C_15
REMARK    6  A    between atoms: C_18  and  C_19
REMARK    7  A    between atoms: C_22  and  O_23
REMARK    8  A    between atoms: C_25  and  C_26
REMARK    9  A    between atoms: C_25  and  C_27
REMARK                            x       y       z     vdW  Elec       q    Type
REMARK                         _______ _______ _______ _____ _____    ______ ____
ROOT
ATOM      1  C   UNL     1       0.325   9.027  22.659  0.00  0.00    +0.000 C 
ATOM      2  C   UNL     1      -0.028  10.327  21.972  0.00  0.00    +0.000 C 
ATOM      3  C   UNL     1       0.154  10.498  20.633  0.00  0.00    +0.000 C 
ATOM      4  C   UNL     1      -0.210  11.846  20.119  0.00  0.00    +0.000 C 
ATOM      5  C   UNL     1      -1.436  12.306  20.822  0.00  0.00    +0.000 C 
ATOM      6  C   UNL     1      -2.192  13.327  20.429  0.00  0.00    +0.000 C 
ATOM      7  C   UNL     1      -1.440  14.636  20.453  0.00  0.00    +0.000 C 
ATOM      8  C   UNL     1      -1.487  15.159  21.899  0.00  0.00    +0.000 C 
ATOM      9  C   UNL     1      -0.331  16.102  22.310  0.00  0.00    +0.000 C 
ATOM     10  C   UNL     1      -2.689  16.157  21.779  0.00  0.00    +0.000 C 
ATOM     11  C   UNL     1      -1.424  13.860  22.932  0.00  0.00    +0.000 C 
ATOM     12  C   UNL     1      -1.079  12.431  22.256  0.00  0.00    +0.000 C 
ATOM     13  N   UNL     1      -0.424  11.426  22.820  0.00  0.00    +0.000 NA
ENDROOT
BRANCH   4  14
ATOM     14  C   UNL     1       1.013  12.728  20.121  0.00  0.00    +0.000 A 
ATOM     15  C   UNL     1       1.943  13.124  21.063  0.00  0.00    +0.000 A 
ATOM     16  C   UNL     1       2.875  13.926  20.363  0.00  0.00    +0.000 A 
ATOM     17  C   UNL     1       2.470  13.953  19.052  0.00  0.00    +0.000 A 
ATOM     18  C   UNL     1       2.958  14.600  17.825  0.00  0.00    +0.000 C 
ATOM     19  O   UNL     1       1.350  13.206  18.895  0.00  0.00    +0.000 OA
ENDBRANCH   4  14
BRANCH   3  20
ATOM     20  C   UNL     1       0.663   9.568  19.541  0.00  0.00    +0.000 C 
ATOM     21  O   UNL     1       0.406   9.769  18.358  0.00  0.00    +0.000 OA
ATOM     22  N   UNL     1       1.478   8.518  20.035  0.00  0.00    +0.000 N 
ATOM     23  H   UNL     1       1.530   8.409  21.035  0.00  0.00    +0.000 HD
BRANCH  22  24
ATOM     24  C   UNL     1       2.209   7.554  19.376  0.00  0.00    +0.000 A 
ATOM     25  C   UNL     1       2.891   7.751  18.183  0.00  0.00    +0.000 A 
ATOM     26  C   UNL     1       3.476   6.655  17.539  0.00  0.00    +0.000 A 
ATOM     27  C   UNL     1       3.390   5.356  18.089  0.00  0.00    +0.000 A 
ATOM     28  C   UNL     1       3.903   4.166  17.344  0.00  0.00    +0.000 C 
ATOM     29  C   UNL     1       2.787   5.189  19.335  0.00  0.00    +0.000 A 
ATOM     30  C   UNL     1       2.200   6.279  19.970  0.00  0.00    +0.000 A 
ENDBRANCH  22  24
ENDBRANCH   3  20
BRANCH   6  31
ATOM     31  O   UNL     1      -3.523  13.327  20.848  0.00  0.00    +0.000 OA
ATOM     32  H   UNL     1      -4.059  13.948  20.329  0.00  0.00    +0.000 HD
ENDBRANCH   6  31
TORSDOF 4
ENDMDL
MODEL 6
REMARK VINA RESULT:      -7.4      1.576      2.359
REMARK  Name = 
REMARK  9 active torsions:
REMARK  status: ('A' for Active; 'I' for Inactive)
REMARK    1  A    between atoms: C_1  and  C_2
REMARK    2  A    between atoms: C_3  and  C_4
REMARK    3  A    between atoms: N_6  and  C_7
REMARK    4  A    between atoms: C_10  and  C_11
REMARK    5  A    between atoms: C_14  and  C_15
REMARK    6  A    between atoms: C_18  and  C_19
REMARK    7  A    between atoms: C_22  and  O_23
REMARK    8  A    between atoms: C_25  and  C_26
REMARK    9  A    between atoms: C_25  and  C_27
REMARK                            x       y       z     vdW  Elec       q    Type
REMARK                         _______ _______ _______ _____ _____    ______ ____
ROOT
ATOM      1  C   UNL     1      -0.400   9.714  23.152  0.00  0.00    +0.000 C 
ATOM      2  C   UNL     1      -0.575  11.014  22.398  0.00  0.00    +0.000 C 
ATOM      3  C   UNL     1      -0.417  11.081  21.047  0.00  0.00    +0.000 C 
ATOM      4  C   UNL     1      -0.588  12.439  20.464  0.00  0.00    +0.000 C 
ATOM      5  C   UNL     1      -1.704  13.121  21.171  0.00  0.00    +0.000 C 
ATOM      6  C   UNL     1      -2.307  14.224  20.739  0.00  0.00    +0.000 C 
ATOM      7  C   UNL     1      -1.364  15.400  20.665  0.00  0.00    +0.000 C 
ATOM      8  C   UNL     1      -1.278  16.002  22.077  0.00  0.00    +0.000 C 
ATOM      9  C   UNL     1       0.023  16.776  22.400  0.00  0.00    +0.000 C 
ATOM     10  C   UNL     1      -2.316  17.167  21.931  0.00  0.00    +0.000 C 
ATOM     11  C   UNL     1      -1.377  14.767  23.185  0.00  0.00    +0.000 C 
ATOM     12  C   UNL     1      -1.280  13.267  22.586  0.00  0.00    +0.000 C 
ATOM     13  N   UNL     1      -0.767  12.205  23.191  0.00  0.00    +0.000 NA
ENDROOT
BRANCH   4  14
ATOM     14  C   UNL     1       0.755  13.119  20.381  0.00  0.00    +0.000 A 
ATOM     15  C   UNL     1       1.767  13.420  21.272  0.00  0.00    +0.000 A 
ATOM     16  C   UNL     1       2.786  14.027  20.500  0.00  0.00    +0.000 A 
ATOM     17  C   UNL     1       2.344  14.041  19.201  0.00  0.00    +0.000 A 
ATOM     18  C   UNL     1       2.883  14.534  17.924  0.00  0.00    +0.000 C 
ATOM     19  O   UNL     1       1.118  13.468  19.119  0.00  0.00    +0.000 OA
ENDBRANCH   4  14
BRANCH   3  20
ATOM     20  C   UNL     1      -0.096  10.025  20.000  0.00  0.00    +0.000 C 
ATOM     21  O   UNL     1      -0.779   9.900  18.987  0.00  0.00    +0.000 OA
ATOM     22  N   UNL     1       1.068   9.273  20.301  0.00  0.00    +0.000 N 
ATOM     23  H   UNL     1       1.479   9.409  21.209  0.00  0.00    +0.000 HD
BRANCH  22  24
ATOM     24  C   UNL     1       1.745   8.322  19.568  0.00  0.00    +0.000 A 
ATOM     25  C   UNL     1       2.078   7.055  20.025  0.00  0.00    +0.000 A 
ATOM     26  C   UNL     1       2.893   6.235  19.237  0.00  0.00    +0.000 A 
ATOM     27  C   UNL     1       3.372   6.674  17.982  0.00  0.00    +0.000 A 
ATOM     28  C   UNL     1       4.342   5.853  17.194  0.00  0.00    +0.000 C 
ATOM     29  C   UNL     1       2.949   7.909  17.492  0.00  0.00    +0.000 A 
ATOM     30  C   UNL     1       2.145   8.726  18.281  0.00  0.00    +0.000 A 
ENDBRANCH  22  24
ENDBRANCH   3  20
BRANCH   6  31
ATOM     31  O   UNL     1      -3.607  14.454  21.193  0.00  0.00    +0.000 OA
ATOM     32  H   UNL     1      -3.719  14.167  22.113  0.00  0.00    +0.000 HD
ENDBRANCH   6  31
TORSDOF 4
ENDMDL
MODEL 7
REMARK VINA RESULT:      -7.4      0.760      1.415
REMARK  Name = 
REMARK  9 active torsions:
REMARK  status: ('A' for Active; 'I' for Inactive)
REMARK    1  A    between atoms: C_1  and  C_2
REMARK    2  A    between atoms: C_3  and  C_4
REMARK    3  A    between atoms: N_6  and  C_7
REMARK    4  A    between atoms: C_10  and  C_11
REMARK    5  A    between atoms: C_14  and  C_15
REMARK    6  A    between atoms: C_18  and  C_19
REMARK    7  A    between atoms: C_22  and  O_23
REMARK    8  A    between atoms: C_25  and  C_26
REMARK    9  A    between atoms: C_25  and  C_27
REMARK                            x       y       z     vdW  Elec       q    Type
REMARK                         _______ _______ _______ _____ _____    ______ ____
ROOT
ATOM      1  C   UNL     1       1.429   8.578  21.698  0.00  0.00    +0.000 C 
ATOM      2  C   UNL     1       0.884   9.837  21.062  0.00  0.00    +0.000 C 
ATOM      3  C   UNL     1       0.956  10.045  19.718  0.00  0.00    +0.000 C 
ATOM      4  C   UNL     1       0.406  11.348  19.256  0.00  0.00    +0.000 C 
ATOM      5  C   UNL     1      -0.816  11.654  20.045  0.00  0.00    +0.000 C 
ATOM      6  C   UNL     1      -1.708  12.585  19.723  0.00  0.00    +0.000 C 
ATOM      7  C   UNL     1      -1.112  13.972  19.726  0.00  0.00    +0.000 C 
ATOM      8  C   UNL     1      -1.123  14.468  21.181  0.00  0.00    +0.000 C 
ATOM      9  C   UNL     1      -0.059  15.533  21.537  0.00  0.00    +0.000 C 
ATOM     10  C   UNL     1      -2.437  15.321  21.159  0.00  0.00    +0.000 C 
ATOM     11  C   UNL     1      -0.842  13.171  22.182  0.00  0.00    +0.000 C 
ATOM     12  C   UNL     1      -0.381  11.800  21.456  0.00  0.00    +0.000 C 
ATOM     13  N   UNL     1       0.421  10.871  21.956  0.00  0.00    +0.000 NA
ENDROOT
BRANCH   4  14
ATOM     14  C   UNL     1       1.517  12.366  19.198  0.00  0.00    +0.000 A 
ATOM     15  C   UNL     1       2.165  13.066  18.197  0.00  0.00    +0.000 A 
ATOM     16  C   UNL     1       3.086  13.911  18.860  0.00  0.00    +0.000 A 
ATOM     17  C   UNL     1       2.932  13.689  20.205  0.00  0.00    +0.000 A 
ATOM     18  C   UNL     1       3.573  14.204  21.425  0.00  0.00    +0.000 C 
ATOM     19  O   UNL     1       1.962  12.766  20.418  0.00  0.00    +0.000 OA
ENDBRANCH   4  14
BRANCH   3  20
ATOM     20  C   UNL     1       1.496   9.194  18.577  0.00  0.00    +0.000 C 
ATOM     21  O   UNL     1       1.519   9.612  17.423  0.00  0.00    +0.000 OA
ATOM     22  N   UNL     1       1.993   7.937  19.003  0.00  0.00    +0.000 N 
ATOM     23  H   UNL     1       1.825   7.677  19.961  0.00  0.00    +0.000 HD
BRANCH  22  24
ATOM     24  C   UNL     1       2.654   6.945  18.311  0.00  0.00    +0.000 A 
ATOM     25  C   UNL     1       2.278   5.608  18.285  0.00  0.00    +0.000 A 
ATOM     26  C   UNL     1       3.115   4.675  17.665  0.00  0.00    +0.000 A 
ATOM     27  C   UNL     1       4.329   5.072  17.059  0.00  0.00    +0.000 A 
ATOM     28  C   UNL     1       5.284   4.064  16.506  0.00  0.00    +0.000 C 
ATOM     29  C   UNL     1       4.645   6.429  17.007  0.00  0.00    +0.000 A 
ATOM     30  C   UNL     1       3.815   7.356  17.632  0.00  0.00    +0.000 A 
ENDBRANCH  22  24
ENDBRANCH   3  20
BRANCH   6  31
ATOM     31  O   UNL     1      -3.000  12.425  20.226  0.00  0.00    +0.000 OA
ATOM     32  H   UNL     1      -3.474  11.712  19.770  0.00  0.00    +0.000 HD
ENDBRANCH   6  31
TORSDOF 4
ENDMDL
MODEL 8
REMARK VINA RESULT:      -7.2      2.594      5.343
REMARK  Name = 
REMARK  9 active torsions:
REMARK  status: ('A' for Active; 'I' for Inactive)
REMARK    1  A    between atoms: C_1  and  C_2
REMARK    2  A    between atoms: C_3  and  C_4
REMARK    3  A    between atoms: N_6  and  C_7
REMARK    4  A    between atoms: C_10  and  C_11
REMARK    5  A    between atoms: C_14  and  C_15
REMARK    6  A    between atoms: C_18  and  C_19
REMARK    7  A    between atoms: C_22  and  O_23
REMARK    8  A    between atoms: C_25  and  C_26
REMARK    9  A    between atoms: C_25  and  C_27
REMARK                            x       y       z     vdW  Elec       q    Type
REMARK                         _______ _______ _______ _____ _____    ______ ____
ROOT
ATOM      1  C   UNL     1       0.027  14.086  18.541  0.00  0.00    +0.000 C 
ATOM      2  C   UNL     1      -0.822  13.955  19.786  0.00  0.00    +0.000 C 
ATOM      3  C   UNL     1      -1.251  12.741  20.231  0.00  0.00    +0.000 C 
ATOM      4  C   UNL     1      -2.107  12.788  21.447  0.00  0.00    +0.000 C 
ATOM      5  C   UNL     1      -1.573  13.830  22.363  0.00  0.00    +0.000 C 
ATOM      6  C   UNL     1      -1.914  13.956  23.642  0.00  0.00    +0.000 C 
ATOM      7  C   UNL     1      -3.381  14.267  23.813  0.00  0.00    +0.000 C 
ATOM      8  C   UNL     1      -3.549  15.784  23.621  0.00  0.00    +0.000 C 
ATOM      9  C   UNL     1      -4.945  16.250  23.146  0.00  0.00    +0.000 C 
ATOM     10  C   UNL     1      -3.549  16.241  25.119  0.00  0.00    +0.000 C 
ATOM     11  C   UNL     1      -2.466  16.292  22.467  0.00  0.00    +0.000 C 
ATOM     12  C   UNL     1      -1.700  15.125  21.650  0.00  0.00    +0.000 C 
ATOM     13  N   UNL     1      -1.283  15.182  20.392  0.00  0.00    +0.000 NA
ENDROOT
BRANCH   4  14
ATOM     14  C   UNL     1      -3.557  12.844  21.036  0.00  0.00    +0.000 A 
ATOM     15  C   UNL     1      -4.243  13.138  19.873  0.00  0.00    +0.000 A 
ATOM     16  C   UNL     1      -5.610  12.939  20.177  0.00  0.00    +0.000 A 
ATOM     17  C   UNL     1      -5.669  12.524  21.484  0.00  0.00    +0.000 A 
ATOM     18  C   UNL     1      -6.752  12.173  22.416  0.00  0.00    +0.000 C 
ATOM     19  O   UNL     1      -4.420  12.443  22.005  0.00  0.00    +0.000 OA
ENDBRANCH   4  14
BRANCH   3  20
ATOM     20  C   UNL     1      -1.024  11.325  19.723  0.00  0.00    +0.000 C 
ATOM     21  O   UNL     1      -1.878  10.736  19.066  0.00  0.00    +0.000 OA
ATOM     22  N   UNL     1       0.259  10.814  20.044  0.00  0.00    +0.000 N 
ATOM     23  H   UNL     1       0.826  11.360  20.671  0.00  0.00    +0.000 HD
BRANCH  22  24
ATOM     24  C   UNL     1       0.883   9.641  19.677  0.00  0.00    +0.000 A 
ATOM     25  C   UNL     1       1.209   8.609  20.546  0.00  0.00    +0.000 A 
ATOM     26  C   UNL     1       1.971   7.534  20.076  0.00  0.00    +0.000 A 
ATOM     27  C   UNL     1       2.404   7.480  18.732  0.00  0.00    +0.000 A 
ATOM     28  C   UNL     1       3.321   6.399  18.257  0.00  0.00    +0.000 C 
ATOM     29  C   UNL     1       1.987   8.474  17.847  0.00  0.00    +0.000 A 
ATOM     30  C   UNL     1       1.235   9.546  18.318  0.00  0.00    +0.000 A 
ENDBRANCH  22  24
ENDBRANCH   3  20
BRANCH   6  31
ATOM     31  O   UNL     1      -1.004  14.603  24.479  0.00  0.00    +0.000 OA
ATOM     32  H   UNL     1      -1.455  15.167  25.127  0.00  0.00    +0.000 HD
ENDBRANCH   6  31
TORSDOF 4
ENDMDL
MODEL 9
REMARK VINA RESULT:      -7.1      2.839      5.568
REMARK  Name = 
REMARK  9 active torsions:
REMARK  status: ('A' for Active; 'I' for Inactive)
REMARK    1  A    between atoms: C_1  and  C_2
REMARK    2  A    between atoms: C_3  and  C_4
REMARK    3  A    between atoms: N_6  and  C_7
REMARK    4  A    between atoms: C_10  and  C_11
REMARK    5  A    between atoms: C_14  and  C_15
REMARK    6  A    between atoms: C_18  and  C_19
REMARK    7  A    between atoms: C_22  and  O_23
REMARK    8  A    between atoms: C_25  and  C_26
REMARK    9  A    between atoms: C_25  and  C_27
REMARK                            x       y       z     vdW  Elec       q    Type
REMARK                         _______ _______ _______ _____ _____    ______ ____
ROOT
ATOM      1  C   UNL     1       1.184  13.926  21.227  0.00  0.00    +0.000 C 
ATOM      2  C   UNL     1      -0.176  13.920  21.889  0.00  0.00    +0.000 C 
ATOM      3  C   UNL     1      -0.810  12.757  22.203  0.00  0.00    +0.000 C 
ATOM      4  C   UNL     1      -2.155  12.924  22.817  0.00  0.00    +0.000 C 
ATOM      5  C   UNL     1      -2.112  14.084  23.745  0.00  0.00    +0.000 C 
ATOM      6  C   UNL     1      -3.039  14.353  24.659  0.00  0.00    +0.000 C 
ATOM      7  C   UNL     1      -4.386  14.638  24.040  0.00  0.00    +0.000 C 
ATOM      8  C   UNL     1      -4.384  16.114  23.609  0.00  0.00    +0.000 C 
ATOM      9  C   UNL     1      -5.343  16.478  22.450  0.00  0.00    +0.000 C 
ATOM     10  C   UNL     1      -5.114  16.749  24.842  0.00  0.00    +0.000 C 
ATOM     11  C   UNL     1      -2.855  16.512  23.095  0.00  0.00    +0.000 C 
ATOM     12  C   UNL     1      -1.823  15.279  22.914  0.00  0.00    +0.000 C 
ATOM     13  N   UNL     1      -0.835  15.196  22.034  0.00  0.00    +0.000 NA
ENDROOT
BRANCH   4  14
ATOM     14  C   UNL     1      -3.205  12.886  21.736  0.00  0.00    +0.000 A 
ATOM     15  C   UNL     1      -3.226  13.102  20.371  0.00  0.00    +0.000 A 
ATOM     16  C   UNL     1      -4.555  12.838  19.965  0.00  0.00    +0.000 A 
ATOM     17  C   UNL     1      -5.247  12.464  21.089  0.00  0.00    +0.000 A 
ATOM     18  C   UNL     1      -6.640  12.085  21.377  0.00  0.00    +0.000 C 
ATOM     19  O   UNL     1      -4.425  12.470  22.167  0.00  0.00    +0.000 OA
ENDBRANCH   4  14
BRANCH   3  20
ATOM     20  C   UNL     1      -0.408  11.297  22.050  0.00  0.00    +0.000 C 
ATOM     21  O   UNL     1      -0.805  10.438  22.833  0.00  0.00    +0.000 OA
ATOM     22  N   UNL     1       0.400  11.056  20.910  0.00  0.00    +0.000 N 
ATOM     23  H   UNL     1       0.734  11.861  20.406  0.00  0.00    +0.000 HD
BRANCH  22  24
ATOM     24  C   UNL     1       0.868   9.879  20.366  0.00  0.00    +0.000 A 
ATOM     25  C   UNL     1       1.140   8.723  21.086  0.00  0.00    +0.000 A 
ATOM     26  C   UNL     1       1.747   7.642  20.439  0.00  0.00    +0.000 A 
ATOM     27  C   UNL     1       2.079   7.705  19.067  0.00  0.00    +0.000 A 
ATOM     28  C   UNL     1       2.840   6.603  18.403  0.00  0.00    +0.000 C 
ATOM     29  C   UNL     1       1.712   8.834  18.335  0.00  0.00    +0.000 A 
ATOM     30  C   UNL     1       1.114   9.912  18.981  0.00  0.00    +0.000 A 
ENDBRANCH  22  24
ENDBRANCH   3  20
BRANCH   6  31
ATOM     31  O   UNL     1      -2.645  15.124  25.754  0.00  0.00    +0.000 OA
ATOM     32  H   UNL     1      -1.679  15.208  25.800  0.00  0.00    +0.000 HD
ENDBRANCH   6  31
TORSDOF 4
ENDMDL
