MODEL 1
REMARK VINA RESULT:      -6.2      0.000      0.000
REMARK  Name = 
REMARK  2 active torsions:
REMARK  status: ('A' for Active; 'I' for Inactive)
REMARK    1  A    between atoms: C_1  and  C_2
REMARK    2  A    between atoms: C_4  and  N_5
REMARK                            x       y       z     vdW  Elec       q    Type
REMARK                         _______ _______ _______ _____ _____    ______ ____
ROOT
ATOM      1  C   UNL     1       7.650   7.502  17.586  0.00  0.00    +0.000 C 
ATOM      2  C   UNL     1       7.003   6.283  17.001  0.00  0.00    +0.000 A 
ATOM      3  C   UNL     1       5.955   5.656  17.665  0.00  0.00    +0.000 A 
ATOM      4  C   UNL     1       5.365   4.499  17.143  0.00  0.00    +0.000 A 
ATOM      5  C   UNL     1       5.882   4.021  15.942  0.00  0.00    +0.000 A 
ATOM      6  C   UNL     1       6.918   4.712  15.328  0.00  0.00    +0.000 A 
ATOM      7  N   UNL     1       7.487   5.830  15.827  0.00  0.00    +0.000 NA
ENDROOT
BRANCH   4   8
ATOM      8  N   UNL     1       4.355   3.871  17.841  0.00  0.00    +0.000 N 
ATOM      9  C   UNL     1       3.058   3.528  17.249  0.00  0.00    +0.000 C 
ATOM     10  C   UNL     1       2.587   2.173  17.844  0.00  0.00    +0.000 C 
ATOM     11  N   UNL     1       2.563   2.129  19.322  0.00  0.00    +0.000 NA
ATOM     12  C   UNL     1       3.875   2.559  19.856  0.00  0.00    +0.000 C 
ATOM     13  C   UNL     1       4.333   3.928  19.311  0.00  0.00    +0.000 C 
ATOM     14  H   UNL     1       2.391   1.170  19.619  0.00  0.00    +0.000 HD
ENDBRANCH   4   8
TORSDOF 1
ENDMDL
MODEL 2
REMARK VINA RESULT:      -6.0      1.355      2.218
REMARK  Name = 
REMARK  2 active torsions:
REMARK  status: ('A' for Active; 'I' for Inactive)
REMARK    1  A    between atoms: C_1  and  C_2
REMARK    2  A    between atoms: C_4  and  N_5
REMARK                            x       y       z     vdW  Elec       q    Type
REMARK                         _______ _______ _______ _____ _____    ______ ____
ROOT
ATOM      1  C   UNL     1       6.454   4.076  14.014  0.00  0.00    +0.000 C 
ATOM      2  C   UNL     1       6.373   4.242  15.502  0.00  0.00    +0.000 A 
ATOM      3  C   UNL     1       5.176   4.018  16.170  0.00  0.00    +0.000 A 
ATOM      4  C   UNL     1       5.083   4.201  17.555  0.00  0.00    +0.000 A 
ATOM      5  C   UNL     1       6.239   4.615  18.210  0.00  0.00    +0.000 A 
ATOM      6  C   UNL     1       7.403   4.801  17.477  0.00  0.00    +0.000 A 
ATOM      7  N   UNL     1       7.497   4.623  16.141  0.00  0.00    +0.000 NA
ENDROOT
BRANCH   4   8
ATOM      8  N   UNL     1       3.874   4.012  18.190  0.00  0.00    +0.000 N 
ATOM      9  C   UNL     1       2.716   4.892  18.000  0.00  0.00    +0.000 C 
ATOM     10  C   UNL     1       1.427   4.027  18.030  0.00  0.00    +0.000 C 
ATOM     11  N   UNL     1       1.295   3.169  19.229  0.00  0.00    +0.000 NA
ATOM     12  C   UNL     1       2.524   2.365  19.406  0.00  0.00    +0.000 C 
ATOM     13  C   UNL     1       3.809   3.218  19.427  0.00  0.00    +0.000 C 
ATOM     14  H   UNL     1       0.509   2.535  19.092  0.00  0.00    +0.000 HD
ENDBRANCH   4   8
TORSDOF 1
ENDMDL
MODEL 3
REMARK VINA RESULT:      -6.0      1.276      5.204
REMARK  Name = 
REMARK  2 active torsions:
REMARK  status: ('A' for Active; 'I' for Inactive)
REMARK    1  A    between atoms: C_1  and  C_2
REMARK    2  A    between atoms: C_4  and  N_5
REMARK                            x       y       z     vdW  Elec       q    Type
REMARK                         _______ _______ _______ _____ _____    ______ ____
ROOT
ATOM      1  C   UNL     1       2.232   3.251  21.645  0.00  0.00    +0.000 C 
ATOM      2  C   UNL     1       2.530   3.078  20.186  0.00  0.00    +0.000 A 
ATOM      3  C   UNL     1       3.662   3.658  19.625  0.00  0.00    +0.000 A 
ATOM      4  C   UNL     1       3.931   3.528  18.258  0.00  0.00    +0.000 A 
ATOM      5  C   UNL     1       3.014   2.799  17.507  0.00  0.00    +0.000 A 
ATOM      6  C   UNL     1       1.916   2.233  18.141  0.00  0.00    +0.000 A 
ATOM      7  N   UNL     1       1.655   2.354  19.460  0.00  0.00    +0.000 NA
ENDROOT
BRANCH   4   8
ATOM      8  N   UNL     1       5.038   4.147  17.717  0.00  0.00    +0.000 N 
ATOM      9  C   UNL     1       6.045   4.847  18.521  0.00  0.00    +0.000 C 
ATOM     10  C   UNL     1       7.440   4.608  17.883  0.00  0.00    +0.000 C 
ATOM     11  N   UNL     1       7.524   4.953  16.447  0.00  0.00    +0.000 NA
ATOM     12  C   UNL     1       6.436   4.276  15.707  0.00  0.00    +0.000 C 
ATOM     13  C   UNL     1       5.038   4.546  16.300  0.00  0.00    +0.000 C 
ATOM     14  H   UNL     1       8.417   4.625  16.083  0.00  0.00    +0.000 HD
ENDBRANCH   4   8
TORSDOF 1
ENDMDL
MODEL 4
REMARK VINA RESULT:      -6.0      1.721      2.635
REMARK  Name = 
REMARK  2 active torsions:
REMARK  status: ('A' for Active; 'I' for Inactive)
REMARK    1  A    between atoms: C_1  and  C_2
REMARK    2  A    between atoms: C_4  and  N_5
REMARK                            x       y       z     vdW  Elec       q    Type
REMARK                         _______ _______ _______ _____ _____    ______ ____
ROOT
ATOM      1  C   UNL     1       5.957   3.969  15.132  0.00  0.00    +0.000 C 
ATOM      2  C   UNL     1       5.702   4.287  16.575  0.00  0.00    +0.000 A 
ATOM      3  C   UNL     1       4.461   4.023  17.144  0.00  0.00    +0.000 A 
ATOM      4  C   UNL     1       4.204   4.346  18.482  0.00  0.00    +0.000 A 
ATOM      5  C   UNL     1       5.243   4.937  19.194  0.00  0.00    +0.000 A 
ATOM      6  C   UNL     1       6.460   5.152  18.562  0.00  0.00    +0.000 A 
ATOM      7  N   UNL     1       6.714   4.840  17.273  0.00  0.00    +0.000 NA
ENDROOT
BRANCH   4   8
ATOM      8  N   UNL     1       2.953   4.113  19.012  0.00  0.00    +0.000 N 
ATOM      9  C   UNL     1       1.785   3.751  18.200  0.00  0.00    +0.000 C 
ATOM     10  C   UNL     1       0.922   2.739  19.000  0.00  0.00    +0.000 C 
ATOM     11  N   UNL     1       0.548   3.193  20.358  0.00  0.00    +0.000 NA
ATOM     12  C   UNL     1       1.759   3.614  21.095  0.00  0.00    +0.000 C 
ATOM     13  C   UNL     1       2.602   4.658  20.334  0.00  0.00    +0.000 C 
ATOM     14  H   UNL     1       0.118   2.415  20.856  0.00  0.00    +0.000 HD
ENDBRANCH   4   8
TORSDOF 1
ENDMDL
MODEL 5
REMARK VINA RESULT:      -6.0      1.270      2.548
REMARK  Name = 
REMARK  2 active torsions:
REMARK  status: ('A' for Active; 'I' for Inactive)
REMARK    1  A    between atoms: C_1  and  C_2
REMARK    2  A    between atoms: C_4  and  N_5
REMARK                            x       y       z     vdW  Elec       q    Type
REMARK                         _______ _______ _______ _____ _____    ______ ____
ROOT
ATOM      1  C   UNL     1       6.636   4.322  13.959  0.00  0.00    +0.000 C 
ATOM      2  C   UNL     1       6.507   4.390  15.451  0.00  0.00    +0.000 A 
ATOM      3  C   UNL     1       5.310   4.048  16.070  0.00  0.00    +0.000 A 
ATOM      4  C   UNL     1       5.171   4.139  17.460  0.00  0.00    +0.000 A 
ATOM      5  C   UNL     1       6.280   4.586  18.172  0.00  0.00    +0.000 A 
ATOM      6  C   UNL     1       7.447   4.892  17.485  0.00  0.00    +0.000 A 
ATOM      7  N   UNL     1       7.586   4.803  16.145  0.00  0.00    +0.000 NA
ENDROOT
BRANCH   4   8
ATOM      8  N   UNL     1       3.961   3.833  18.047  0.00  0.00    +0.000 N 
ATOM      9  C   UNL     1       3.835   3.308  19.411  0.00  0.00    +0.000 C 
ATOM     10  C   UNL     1       2.558   3.908  20.056  0.00  0.00    +0.000 C 
ATOM     11  N   UNL     1       1.324   3.720  19.261  0.00  0.00    +0.000 NA
ATOM     12  C   UNL     1       1.542   4.199  17.878  0.00  0.00    +0.000 C 
ATOM     13  C   UNL     1       2.781   3.572  17.206  0.00  0.00    +0.000 C 
ATOM     14  H   UNL     1       0.576   4.269  19.681  0.00  0.00    +0.000 HD
ENDBRANCH   4   8
TORSDOF 1
ENDMDL
MODEL 6
REMARK VINA RESULT:      -6.0      1.779      1.977
REMARK  Name = 
REMARK  2 active torsions:
REMARK  status: ('A' for Active; 'I' for Inactive)
REMARK    1  A    between atoms: C_1  and  C_2
REMARK    2  A    between atoms: C_4  and  N_5
REMARK                            x       y       z     vdW  Elec       q    Type
REMARK                         _______ _______ _______ _____ _____    ______ ____
ROOT
ATOM      1  C   UNL     1       7.654   5.713  19.011  0.00  0.00    +0.000 C 
ATOM      2  C   UNL     1       6.498   5.087  18.291  0.00  0.00    +0.000 A 
ATOM      3  C   UNL     1       5.275   4.924  18.931  0.00  0.00    +0.000 A 
ATOM      4  C   UNL     1       4.200   4.312  18.277  0.00  0.00    +0.000 A 
ATOM      5  C   UNL     1       4.424   3.882  16.973  0.00  0.00    +0.000 A 
ATOM      6  C   UNL     1       5.667   4.096  16.393  0.00  0.00    +0.000 A 
ATOM      7  N   UNL     1       6.706   4.689  17.020  0.00  0.00    +0.000 NA
ENDROOT
BRANCH   4   8
ATOM      8  N   UNL     1       3.010   4.124  18.947  0.00  0.00    +0.000 N 
ATOM      9  C   UNL     1       1.756   3.758  18.279  0.00  0.00    +0.000 C 
ATOM     10  C   UNL     1       0.966   2.793  19.204  0.00  0.00    +0.000 C 
ATOM     11  N   UNL     1       0.748   3.302  20.576  0.00  0.00    +0.000 NA
ATOM     12  C   UNL     1       2.039   3.723  21.163  0.00  0.00    +0.000 C 
ATOM     13  C   UNL     1       2.813   4.722  20.278  0.00  0.00    +0.000 C 
ATOM     14  H   UNL     1       0.362   2.551  21.146  0.00  0.00    +0.000 HD
ENDBRANCH   4   8
TORSDOF 1
ENDMDL
MODEL 7
REMARK VINA RESULT:      -5.9      1.826      2.905
REMARK  Name = 
REMARK  2 active torsions:
REMARK  status: ('A' for Active; 'I' for Inactive)
REMARK    1  A    between atoms: C_1  and  C_2
REMARK    2  A    between atoms: C_4  and  N_5
REMARK                            x       y       z     vdW  Elec       q    Type
REMARK                         _______ _______ _______ _____ _____    ______ ____
ROOT
ATOM      1  C   UNL     1       5.956   4.001  14.712  0.00  0.00    +0.000 C 
ATOM      2  C   UNL     1       5.268   4.781  15.791  0.00  0.00    +0.000 A 
ATOM      3  C   UNL     1       4.439   4.139  16.703  0.00  0.00    +0.000 A 
ATOM      4  C   UNL     1       3.767   4.864  17.695  0.00  0.00    +0.000 A 
ATOM      5  C   UNL     1       3.973   6.241  17.711  0.00  0.00    +0.000 A 
ATOM      6  C   UNL     1       4.830   6.808  16.778  0.00  0.00    +0.000 A 
ATOM      7  N   UNL     1       5.482   6.112  15.822  0.00  0.00    +0.000 NA
ENDROOT
BRANCH   4   8
ATOM      8  N   UNL     1       2.918   4.211  18.562  0.00  0.00    +0.000 N 
ATOM      9  C   UNL     1       2.754   4.590  19.970  0.00  0.00    +0.000 C 
ATOM     10  C   UNL     1       1.267   4.385  20.367  0.00  0.00    +0.000 C 
ATOM     11  N   UNL     1       0.737   3.034  20.080  0.00  0.00    +0.000 NA
ATOM     12  C   UNL     1       1.002   2.684  18.667  0.00  0.00    +0.000 C 
ATOM     13  C   UNL     1       2.486   2.834  18.271  0.00  0.00    +0.000 C 
ATOM     14  H   UNL     1      -0.270   3.038  20.230  0.00  0.00    +0.000 HD
ENDBRANCH   4   8
TORSDOF 1
ENDMDL
MODEL 8
REMARK VINA RESULT:      -5.9      1.783      2.346
REMARK  Name = 
REMARK  2 active torsions:
REMARK  status: ('A' for Active; 'I' for Inactive)
REMARK    1  A    between atoms: C_1  and  C_2
REMARK    2  A    between atoms: C_4  and  N_5
REMARK                            x       y       z     vdW  Elec       q    Type
REMARK                         _______ _______ _______ _____ _____    ______ ____
ROOT
ATOM      1  C   UNL     1       7.669   5.729  19.044  0.00  0.00    +0.000 C 
ATOM      2  C   UNL     1       6.535   5.049  18.338  0.00  0.00    +0.000 A 
ATOM      3  C   UNL     1       5.373   4.721  19.027  0.00  0.00    +0.000 A 
ATOM      4  C   UNL     1       4.322   4.058  18.384  0.00  0.00    +0.000 A 
ATOM      5  C   UNL     1       4.505   3.751  17.039  0.00  0.00    +0.000 A 
ATOM      6  C   UNL     1       5.686   4.128  16.414  0.00  0.00    +0.000 A 
ATOM      7  N   UNL     1       6.701   4.770  17.030  0.00  0.00    +0.000 NA
ENDROOT
BRANCH   4   8
ATOM      8  N   UNL     1       3.196   3.706  19.099  0.00  0.00    +0.000 N 
ATOM      9  C   UNL     1       2.823   4.327  20.375  0.00  0.00    +0.000 C 
ATOM     10  C   UNL     1       1.276   4.444  20.433  0.00  0.00    +0.000 C 
ATOM     11  N   UNL     1       0.557   3.174  20.190  0.00  0.00    +0.000 NA
ATOM     12  C   UNL     1       1.034   2.563  18.930  0.00  0.00    +0.000 C 
ATOM     13  C   UNL     1       2.566   2.394  18.878  0.00  0.00    +0.000 C 
ATOM     14  H   UNL     1      -0.438   3.374  20.098  0.00  0.00    +0.000 HD
ENDBRANCH   4   8
TORSDOF 1
ENDMDL
MODEL 9
REMARK VINA RESULT:      -5.9      1.998      2.740
REMARK  Name = 
REMARK  2 active torsions:
REMARK  status: ('A' for Active; 'I' for Inactive)
REMARK    1  A    between atoms: C_1  and  C_2
REMARK    2  A    between atoms: C_4  and  N_5
REMARK                            x       y       z     vdW  Elec       q    Type
REMARK                         _______ _______ _______ _____ _____    ______ ____
ROOT
ATOM      1  C   UNL     1       5.958   3.861  15.014  0.00  0.00    +0.000 C 
ATOM      2  C   UNL     1       5.303   4.803  15.979  0.00  0.00    +0.000 A 
ATOM      3  C   UNL     1       4.274   4.362  16.803  0.00  0.00    +0.000 A 
ATOM      4  C   UNL     1       3.635   5.242  17.684  0.00  0.00    +0.000 A 
ATOM      5  C   UNL     1       4.081   6.560  17.685  0.00  0.00    +0.000 A 
ATOM      6  C   UNL     1       5.126   6.922  16.846  0.00  0.00    +0.000 A 
ATOM      7  N   UNL     1       5.747   6.075  15.997  0.00  0.00    +0.000 NA
ENDROOT
BRANCH   4   8
ATOM      8  N   UNL     1       2.589   4.791  18.462  0.00  0.00    +0.000 N 
ATOM      9  C   UNL     1       1.503   3.950  17.946  0.00  0.00    +0.000 C 
ATOM     10  C   UNL     1       1.096   2.938  19.050  0.00  0.00    +0.000 C 
ATOM     11  N   UNL     1       0.764   3.554  20.353  0.00  0.00    +0.000 NA
ATOM     12  C   UNL     1       1.864   4.447  20.779  0.00  0.00    +0.000 C 
ATOM     13  C   UNL     1       2.246   5.492  19.710  0.00  0.00    +0.000 C 
ATOM     14  H   UNL     1       0.658   2.816  21.047  0.00  0.00    +0.000 HD
ENDBRANCH   4   8
TORSDOF 1
ENDMDL
