MODEL 1
REMARK VINA RESULT:      -7.9      0.000      0.000
REMARK  Name = 
REMARK  5 active torsions:
REMARK  status: ('A' for Active; 'I' for Inactive)
REMARK    1  A    between atoms: C_1  and  O_2
REMARK    2  A    between atoms: O_2  and  C_3
REMARK    3  A    between atoms: C_5  and  C_6
REMARK    4  A    between atoms: C_19  and  N_20
REMARK    5  A    between atoms: C_23  and  C_24
REMARK                            x       y       z     vdW  Elec       q    Type
REMARK                         _______ _______ _______ _____ _____    ______ ____
ROOT
ATOM      1  C   UNL     1       4.047   4.655  17.370  0.00  0.00    +0.000 A 
ATOM      2  C   UNL     1       3.306   5.264  18.401  0.00  0.00    +0.000 A 
ATOM      3  C   UNL     1       3.279   6.655  18.556  0.00  0.00    +0.000 A 
ATOM      4  C   UNL     1       4.038   7.448  17.697  0.00  0.00    +0.000 A 
ATOM      5  C   UNL     1       4.797   6.861  16.680  0.00  0.00    +0.000 A 
ATOM      6  C   UNL     1       4.797   5.465  16.492  0.00  0.00    +0.000 A 
ENDROOT
BRANCH   3   7
ATOM      7  C   UNL     1       2.425   7.274  19.577  0.00  0.00    +0.000 C 
ATOM      8  C   UNL     1       1.619   8.322  19.329  0.00  0.00    +0.000 C 
ATOM      9  C   UNL     1       1.434   9.042  18.028  0.00  0.00    +0.000 C 
ATOM     10  C   UNL     1       1.887  10.480  18.223  0.00  0.00    +0.000 C 
ATOM     11  C   UNL     1       1.019  11.183  19.262  0.00  0.00    +0.000 C 
ATOM     12  N   UNL     1       0.778  10.373  20.457  0.00  0.00    +0.000 N 
ATOM     13  C   UNL     1      -0.041  11.009  21.484  0.00  0.00    +0.000 C 
ATOM     14  C   UNL     1      -0.187  10.074  22.670  0.00  0.00    +0.000 C 
ATOM     15  O   UNL     1      -0.654   8.813  22.199  0.00  0.00    +0.000 OA
ATOM     16  N   UNL     1       0.237   8.189  21.292  0.00  0.00    +0.000 NA
ATOM     17  C   UNL     1       0.837   8.980  20.439  0.00  0.00    +0.000 C 
ENDBRANCH   3   7
BRANCH   6  18
ATOM     18  N   UNL     1       5.540   4.933  15.394  0.00  0.00    +0.000 N 
ATOM     19  C   UNL     1       6.908   4.893  15.217  0.00  0.00    +0.000 A 
ATOM     20  N   UNL     1       7.263   4.283  14.103  0.00  0.00    +0.000 NA
ATOM     21  C   UNL     1       6.091   3.911  13.502  0.00  0.00    +0.000 A 
ATOM     22  C   UNL     1       6.072   3.227  12.194  0.00  0.00    +0.000 C 
ATOM     23  C   UNL     1       5.024   4.279  14.291  0.00  0.00    +0.000 A 
ENDBRANCH   6  18
BRANCH   1  25
ATOM     24  C   UNL     1       3.177   2.504  17.927  0.00  0.00    +0.000 C 
ATOM     25  O   UNL     1       4.143   3.294  17.240  0.00  0.00    +0.000 OA
ENDBRANCH   1  25
TORSDOF 3
ENDMDL
MODEL 2
REMARK VINA RESULT:      -7.5      3.243      8.263
REMARK  Name = 
REMARK  5 active torsions:
REMARK  status: ('A' for Active; 'I' for Inactive)
REMARK    1  A    between atoms: C_1  and  O_2
REMARK    2  A    between atoms: O_2  and  C_3
REMARK    3  A    between atoms: C_5  and  C_6
REMARK    4  A    between atoms: C_19  and  N_20
REMARK    5  A    between atoms: C_23  and  C_24
REMARK                            x       y       z     vdW  Elec       q    Type
REMARK                         _______ _______ _______ _____ _____    ______ ____
ROOT
ATOM      1  C   UNL     1       0.748   9.367  20.313  0.00  0.00    +0.000 A 
ATOM      2  C   UNL     1       1.415   8.137  20.472  0.00  0.00    +0.000 A 
ATOM      3  C   UNL     1       2.171   7.579  19.434  0.00  0.00    +0.000 A 
ATOM      4  C   UNL     1       2.225   8.235  18.205  0.00  0.00    +0.000 A 
ATOM      5  C   UNL     1       1.551   9.446  18.022  0.00  0.00    +0.000 A 
ATOM      6  C   UNL     1       0.823  10.034  19.073  0.00  0.00    +0.000 A 
ENDROOT
BRANCH   3   7
ATOM      7  C   UNL     1       2.936   6.345  19.651  0.00  0.00    +0.000 C 
ATOM      8  C   UNL     1       2.807   5.251  18.877  0.00  0.00    +0.000 C 
ATOM      9  C   UNL     1       1.903   5.072  17.696  0.00  0.00    +0.000 C 
ATOM     10  C   UNL     1       0.926   3.954  18.024  0.00  0.00    +0.000 C 
ATOM     11  C   UNL     1       1.666   2.637  18.238  0.00  0.00    +0.000 C 
ATOM     12  N   UNL     1       2.856   2.773  19.078  0.00  0.00    +0.000 N 
ATOM     13  C   UNL     1       3.592   1.536  19.318  0.00  0.00    +0.000 C 
ATOM     14  C   UNL     1       4.779   1.816  20.219  0.00  0.00    +0.000 C 
ATOM     15  O   UNL     1       5.535   2.884  19.655  0.00  0.00    +0.000 OA
ATOM     16  N   UNL     1       4.803   4.093  19.551  0.00  0.00    +0.000 NA
ATOM     17  C   UNL     1       3.547   3.977  19.204  0.00  0.00    +0.000 C 
ENDBRANCH   3   7
BRANCH   6  18
ATOM     18  N   UNL     1       0.213  11.306  18.841  0.00  0.00    +0.000 N 
ATOM     19  C   UNL     1      -1.061  11.582  18.389  0.00  0.00    +0.000 A 
ATOM     20  N   UNL     1      -1.317  12.874  18.334  0.00  0.00    +0.000 NA
ATOM     21  C   UNL     1      -0.169  13.490  18.753  0.00  0.00    +0.000 A 
ATOM     22  C   UNL     1      -0.048  14.962  18.793  0.00  0.00    +0.000 C 
ATOM     23  C   UNL     1       0.773  12.545  19.093  0.00  0.00    +0.000 A 
ENDBRANCH   6  18
BRANCH   1  25
ATOM     24  C   UNL     1       0.168   9.456  22.626  0.00  0.00    +0.000 C 
ATOM     25  O   UNL     1      -0.052   9.899  21.290  0.00  0.00    +0.000 OA
ENDBRANCH   1  25
TORSDOF 3
ENDMDL
MODEL 3
REMARK VINA RESULT:      -7.4      2.559      3.830
REMARK  Name = 
REMARK  5 active torsions:
REMARK  status: ('A' for Active; 'I' for Inactive)
REMARK    1  A    between atoms: C_1  and  O_2
REMARK    2  A    between atoms: O_2  and  C_3
REMARK    3  A    between atoms: C_5  and  C_6
REMARK    4  A    between atoms: C_19  and  N_20
REMARK    5  A    between atoms: C_23  and  C_24
REMARK                            x       y       z     vdW  Elec       q    Type
REMARK                         _______ _______ _______ _____ _____    ______ ____
ROOT
ATOM      1  C   UNL     1       2.418   6.881  19.521  0.00  0.00    +0.000 A 
ATOM      2  C   UNL     1       1.506   7.904  19.843  0.00  0.00    +0.000 A 
ATOM      3  C   UNL     1       1.325   9.010  19.004  0.00  0.00    +0.000 A 
ATOM      4  C   UNL     1       2.098   9.119  17.849  0.00  0.00    +0.000 A 
ATOM      5  C   UNL     1       3.025   8.124  17.523  0.00  0.00    +0.000 A 
ATOM      6  C   UNL     1       3.183   6.988  18.340  0.00  0.00    +0.000 A 
ENDROOT
BRANCH   3   7
ATOM      7  C   UNL     1       0.302  10.017  19.309  0.00  0.00    +0.000 C 
ATOM      8  C   UNL     1       0.149  10.567  20.528  0.00  0.00    +0.000 C 
ATOM      9  C   UNL     1       0.948  10.282  21.763  0.00  0.00    +0.000 C 
ATOM     10  C   UNL     1       0.002   9.705  22.804  0.00  0.00    +0.000 C 
ATOM     11  C   UNL     1      -1.074  10.719  23.178  0.00  0.00    +0.000 C 
ATOM     12  N   UNL     1      -1.662  11.392  22.019  0.00  0.00    +0.000 N 
ATOM     13  C   UNL     1      -2.703  12.367  22.329  0.00  0.00    +0.000 C 
ATOM     14  C   UNL     1      -3.239  12.964  21.042  0.00  0.00    +0.000 C 
ATOM     15  O   UNL     1      -2.141  13.455  20.278  0.00  0.00    +0.000 OA
ATOM     16  N   UNL     1      -1.220  12.444  19.908  0.00  0.00    +0.000 NA
ATOM     17  C   UNL     1      -0.981  11.527  20.810  0.00  0.00    +0.000 C 
ENDBRANCH   3   7
BRANCH   6  18
ATOM     18  N   UNL     1       4.098   5.975  17.916  0.00  0.00    +0.000 N 
ATOM     19  C   UNL     1       3.822   4.730  17.390  0.00  0.00    +0.000 A 
ATOM     20  N   UNL     1       4.908   4.061  17.058  0.00  0.00    +0.000 NA
ATOM     21  C   UNL     1       5.954   4.881  17.385  0.00  0.00    +0.000 A 
ATOM     22  C   UNL     1       7.358   4.463  17.196  0.00  0.00    +0.000 C 
ATOM     23  C   UNL     1       5.476   6.070  17.890  0.00  0.00    +0.000 A 
ENDBRANCH   6  18
BRANCH   1  25
ATOM     24  C   UNL     1       1.614   4.873  20.529  0.00  0.00    +0.000 C 
ATOM     25  O   UNL     1       2.662   5.823  20.358  0.00  0.00    +0.000 OA
ENDBRANCH   1  25
TORSDOF 3
ENDMDL
MODEL 4
REMARK VINA RESULT:      -7.4      2.305      3.436
REMARK  Name = 
REMARK  5 active torsions:
REMARK  status: ('A' for Active; 'I' for Inactive)
REMARK    1  A    between atoms: C_1  and  O_2
REMARK    2  A    between atoms: O_2  and  C_3
REMARK    3  A    between atoms: C_5  and  C_6
REMARK    4  A    between atoms: C_19  and  N_20
REMARK    5  A    between atoms: C_23  and  C_24
REMARK                            x       y       z     vdW  Elec       q    Type
REMARK                         _______ _______ _______ _____ _____    ______ ____
ROOT
ATOM      1  C   UNL     1       2.271   6.188  20.077  0.00  0.00    +0.000 A 
ATOM      2  C   UNL     1       1.670   7.226  20.817  0.00  0.00    +0.000 A 
ATOM      3  C   UNL     1       1.455   8.490  20.256  0.00  0.00    +0.000 A 
ATOM      4  C   UNL     1       1.885   8.737  18.953  0.00  0.00    +0.000 A 
ATOM      5  C   UNL     1       2.503   7.726  18.210  0.00  0.00    +0.000 A 
ATOM      6  C   UNL     1       2.686   6.440  18.753  0.00  0.00    +0.000 A 
ENDROOT
BRANCH   3   7
ATOM      7  C   UNL     1       0.742   9.528  21.011  0.00  0.00    +0.000 C 
ATOM      8  C   UNL     1      -0.316  10.201  20.522  0.00  0.00    +0.000 C 
ATOM      9  C   UNL     1      -0.954  10.043  19.176  0.00  0.00    +0.000 C 
ATOM     10  C   UNL     1      -0.807  11.362  18.434  0.00  0.00    +0.000 C 
ATOM     11  C   UNL     1      -1.548  12.478  19.164  0.00  0.00    +0.000 C 
ATOM     12  N   UNL     1      -1.317  12.476  20.609  0.00  0.00    +0.000 N 
ATOM     13  C   UNL     1      -2.001  13.532  21.349  0.00  0.00    +0.000 C 
ATOM     14  C   UNL     1      -1.654  13.428  22.822  0.00  0.00    +0.000 C 
ATOM     15  O   UNL     1      -1.918  12.097  23.258  0.00  0.00    +0.000 OA
ATOM     16  N   UNL     1      -1.142  11.123  22.583  0.00  0.00    +0.000 NA
ATOM     17  C   UNL     1      -0.950  11.325  21.305  0.00  0.00    +0.000 C 
ENDBRANCH   3   7
BRANCH   6  18
ATOM     18  N   UNL     1       3.263   5.433  17.919  0.00  0.00    +0.000 N 
ATOM     19  C   UNL     1       2.716   4.233  17.513  0.00  0.00    +0.000 A 
ATOM     20  N   UNL     1       3.506   3.558  16.701  0.00  0.00    +0.000 NA
ATOM     21  C   UNL     1       4.630   4.327  16.564  0.00  0.00    +0.000 A 
ATOM     22  C   UNL     1       5.780   3.885  15.750  0.00  0.00    +0.000 C 
ATOM     23  C   UNL     1       4.489   5.493  17.284  0.00  0.00    +0.000 A 
ENDBRANCH   6  18
BRANCH   1  25
ATOM     24  C   UNL     1       1.454   4.095  20.880  0.00  0.00    +0.000 C 
ATOM     25  O   UNL     1       2.553   4.964  20.625  0.00  0.00    +0.000 OA
ENDBRANCH   1  25
TORSDOF 3
ENDMDL
MODEL 5
REMARK VINA RESULT:      -7.2      1.168      1.902
REMARK  Name = 
REMARK  5 active torsions:
REMARK  status: ('A' for Active; 'I' for Inactive)
REMARK    1  A    between atoms: C_1  and  O_2
REMARK    2  A    between atoms: O_2  and  C_3
REMARK    3  A    between atoms: C_5  and  C_6
REMARK    4  A    between atoms: C_19  and  N_20
REMARK    5  A    between atoms: C_23  and  C_24
REMARK                            x       y       z     vdW  Elec       q    Type
REMARK                         _______ _______ _______ _____ _____    ______ ____
ROOT
ATOM      1  C   UNL     1       4.964   6.859  17.180  0.00  0.00    +0.000 A 
ATOM      2  C   UNL     1       4.132   7.453  18.149  0.00  0.00    +0.000 A 
ATOM      3  C   UNL     1       2.989   6.800  18.625  0.00  0.00    +0.000 A 
ATOM      4  C   UNL     1       2.645   5.558  18.094  0.00  0.00    +0.000 A 
ATOM      5  C   UNL     1       3.447   4.962  17.116  0.00  0.00    +0.000 A 
ATOM      6  C   UNL     1       4.621   5.593  16.661  0.00  0.00    +0.000 A 
ENDROOT
BRANCH   3   7
ATOM      7  C   UNL     1       2.187   7.394  19.703  0.00  0.00    +0.000 C 
ATOM      8  C   UNL     1       1.394   8.466  19.527  0.00  0.00    +0.000 C 
ATOM      9  C   UNL     1       1.173   9.240  18.263  0.00  0.00    +0.000 C 
ATOM     10  C   UNL     1       1.661  10.661  18.497  0.00  0.00    +0.000 C 
ATOM     11  C   UNL     1       0.848  11.337  19.596  0.00  0.00    +0.000 C 
ATOM     12  N   UNL     1       0.637  10.485  20.767  0.00  0.00    +0.000 N 
ATOM     13  C   UNL     1      -0.130  11.094  21.849  0.00  0.00    +0.000 C 
ATOM     14  C   UNL     1      -0.248  10.116  23.002  0.00  0.00    +0.000 C 
ATOM     15  O   UNL     1      -0.758   8.883  22.501  0.00  0.00    +0.000 OA
ATOM     16  N   UNL     1       0.086   8.279  21.536  0.00  0.00    +0.000 NA
ATOM     17  C   UNL     1       0.667   9.093  20.692  0.00  0.00    +0.000 C 
ENDBRANCH   3   7
BRANCH   6  18
ATOM     18  N   UNL     1       5.433   4.901  15.710  0.00  0.00    +0.000 N 
ATOM     19  C   UNL     1       6.677   4.334  15.889  0.00  0.00    +0.000 A 
ATOM     20  N   UNL     1       7.125   3.727  14.808  0.00  0.00    +0.000 NA
ATOM     21  C   UNL     1       6.151   3.903  13.862  0.00  0.00    +0.000 A 
ATOM     22  C   UNL     1       6.305   3.393  12.485  0.00  0.00    +0.000 C 
ATOM     23  C   UNL     1       5.094   4.600  14.404  0.00  0.00    +0.000 A 
ENDBRANCH   6  18
BRANCH   1  25
ATOM     24  C   UNL     1       7.219   7.589  17.460  0.00  0.00    +0.000 C 
ATOM     25  O   UNL     1       6.050   7.505  16.649  0.00  0.00    +0.000 OA
ENDBRANCH   1  25
TORSDOF 3
ENDMDL
MODEL 6
REMARK VINA RESULT:      -7.1      3.449      8.291
REMARK  Name = 
REMARK  5 active torsions:
REMARK  status: ('A' for Active; 'I' for Inactive)
REMARK    1  A    between atoms: C_1  and  O_2
REMARK    2  A    between atoms: O_2  and  C_3
REMARK    3  A    between atoms: C_5  and  C_6
REMARK    4  A    between atoms: C_19  and  N_20
REMARK    5  A    between atoms: C_23  and  C_24
REMARK                            x       y       z     vdW  Elec       q    Type
REMARK                         _______ _______ _______ _____ _____    ______ ____
ROOT
ATOM      1  C   UNL     1       0.793  10.848  21.056  0.00  0.00    +0.000 A 
ATOM      2  C   UNL     1       0.874   9.477  21.371  0.00  0.00    +0.000 A 
ATOM      3  C   UNL     1       1.151   8.519  20.389  0.00  0.00    +0.000 A 
ATOM      4  C   UNL     1       1.305   8.929  19.065  0.00  0.00    +0.000 A 
ATOM      5  C   UNL     1       1.207  10.283  18.729  0.00  0.00    +0.000 A 
ATOM      6  C   UNL     1       0.969  11.257  19.718  0.00  0.00    +0.000 A 
ENDROOT
BRANCH   3   7
ATOM      7  C   UNL     1       1.324   7.108  20.754  0.00  0.00    +0.000 C 
ATOM      8  C   UNL     1       2.160   6.276  20.106  0.00  0.00    +0.000 C 
ATOM      9  C   UNL     1       3.040   6.596  18.937  0.00  0.00    +0.000 C 
ATOM     10  C   UNL     1       2.588   5.739  17.765  0.00  0.00    +0.000 C 
ATOM     11  C   UNL     1       2.766   4.257  18.080  0.00  0.00    +0.000 C 
ATOM     12  N   UNL     1       2.298   3.890  19.417  0.00  0.00    +0.000 N 
ATOM     13  C   UNL     1       2.442   2.479  19.760  0.00  0.00    +0.000 C 
ATOM     14  C   UNL     1       1.896   2.235  21.154  0.00  0.00    +0.000 C 
ATOM     15  O   UNL     1       2.514   3.154  22.050  0.00  0.00    +0.000 OA
ATOM     16  N   UNL     1       2.246   4.510  21.735  0.00  0.00    +0.000 NA
ATOM     17  C   UNL     1       2.226   4.810  20.462  0.00  0.00    +0.000 C 
ENDBRANCH   3   7
BRANCH   6  18
ATOM     18  N   UNL     1       0.948  12.629  19.319  0.00  0.00    +0.000 N 
ATOM     19  C   UNL     1      -0.128  13.393  18.914  0.00  0.00    +0.000 A 
ATOM     20  N   UNL     1       0.198  14.645  18.663  0.00  0.00    +0.000 NA
ATOM     21  C   UNL     1       1.544  14.724  18.895  0.00  0.00    +0.000 A 
ATOM     22  C   UNL     1       2.297  15.977  18.682  0.00  0.00    +0.000 C 
ATOM     23  C   UNL     1       2.018  13.504  19.323  0.00  0.00    +0.000 A 
ENDBRANCH   6  18
BRANCH   1  25
ATOM     24  C   UNL     1      -0.874  11.769  22.494  0.00  0.00    +0.000 C 
ATOM     25  O   UNL     1       0.457  11.796  21.986  0.00  0.00    +0.000 OA
ENDBRANCH   1  25
TORSDOF 3
ENDMDL
MODEL 7
REMARK VINA RESULT:      -7.0      1.673      8.725
REMARK  Name = 
REMARK  5 active torsions:
REMARK  status: ('A' for Active; 'I' for Inactive)
REMARK    1  A    between atoms: C_1  and  O_2
REMARK    2  A    between atoms: O_2  and  C_3
REMARK    3  A    between atoms: C_5  and  C_6
REMARK    4  A    between atoms: C_19  and  N_20
REMARK    5  A    between atoms: C_23  and  C_24
REMARK                            x       y       z     vdW  Elec       q    Type
REMARK                         _______ _______ _______ _____ _____    ______ ____
ROOT
ATOM      1  C   UNL     1       1.588   9.173  19.156  0.00  0.00    +0.000 A 
ATOM      2  C   UNL     1       2.292   8.364  18.244  0.00  0.00    +0.000 A 
ATOM      3  C   UNL     1       2.668   7.056  18.571  0.00  0.00    +0.000 A 
ATOM      4  C   UNL     1       2.378   6.563  19.842  0.00  0.00    +0.000 A 
ATOM      5  C   UNL     1       1.698   7.359  20.769  0.00  0.00    +0.000 A 
ATOM      6  C   UNL     1       1.280   8.661  20.434  0.00  0.00    +0.000 A 
ENDROOT
BRANCH   3   7
ATOM      7  C   UNL     1       3.318   6.197  17.573  0.00  0.00    +0.000 C 
ATOM      8  C   UNL     1       4.640   5.948  17.561  0.00  0.00    +0.000 C 
ATOM      9  C   UNL     1       5.673   6.469  18.513  0.00  0.00    +0.000 C 
ATOM     10  C   UNL     1       6.654   7.315  17.717  0.00  0.00    +0.000 C 
ATOM     11  C   UNL     1       7.377   6.468  16.675  0.00  0.00    +0.000 C 
ATOM     12  N   UNL     1       6.483   5.577  15.934  0.00  0.00    +0.000 N 
ATOM     13  C   UNL     1       7.130   4.752  14.919  0.00  0.00    +0.000 C 
ATOM     14  C   UNL     1       6.090   3.903  14.214  0.00  0.00    +0.000 C 
ATOM     15  O   UNL     1       5.338   3.197  15.197  0.00  0.00    +0.000 OA
ATOM     16  N   UNL     1       4.638   4.050  16.086  0.00  0.00    +0.000 NA
ATOM     17  C   UNL     1       5.268   5.136  16.455  0.00  0.00    +0.000 C 
ENDBRANCH   3   7
BRANCH   6  18
ATOM     18  N   UNL     1       0.531   9.398  21.403  0.00  0.00    +0.000 N 
ATOM     19  C   UNL     1       0.615   9.347  22.779  0.00  0.00    +0.000 A 
ATOM     20  N   UNL     1      -0.194  10.201  23.374  0.00  0.00    +0.000 NA
ATOM     21  C   UNL     1      -0.855  10.842  22.362  0.00  0.00    +0.000 A 
ATOM     22  C   UNL     1      -1.890  11.860  22.633  0.00  0.00    +0.000 C 
ATOM     23  C   UNL     1      -0.406  10.381  21.144  0.00  0.00    +0.000 A 
ENDBRANCH   6  18
BRANCH   1  25
ATOM     24  C   UNL     1       2.204  11.234  18.123  0.00  0.00    +0.000 C 
ATOM     25  O   UNL     1       1.268  10.478  18.885  0.00  0.00    +0.000 OA
ENDBRANCH   1  25
TORSDOF 3
ENDMDL
MODEL 8
REMARK VINA RESULT:      -7.0      2.193      8.837
REMARK  Name = 
REMARK  5 active torsions:
REMARK  status: ('A' for Active; 'I' for Inactive)
REMARK    1  A    between atoms: C_1  and  O_2
REMARK    2  A    between atoms: O_2  and  C_3
REMARK    3  A    between atoms: C_5  and  C_6
REMARK    4  A    between atoms: C_19  and  N_20
REMARK    5  A    between atoms: C_23  and  C_24
REMARK                            x       y       z     vdW  Elec       q    Type
REMARK                         _______ _______ _______ _____ _____    ______ ____
ROOT
ATOM      1  C   UNL     1       0.520   9.382  20.381  0.00  0.00    +0.000 A 
ATOM      2  C   UNL     1       1.553   8.647  19.769  0.00  0.00    +0.000 A 
ATOM      3  C   UNL     1       1.964   8.920  18.459  0.00  0.00    +0.000 A 
ATOM      4  C   UNL     1       1.306   9.911  17.733  0.00  0.00    +0.000 A 
ATOM      5  C   UNL     1       0.263  10.638  18.317  0.00  0.00    +0.000 A 
ATOM      6  C   UNL     1      -0.130  10.397  19.647  0.00  0.00    +0.000 A 
ENDROOT
BRANCH   3   7
ATOM      7  C   UNL     1       3.106   8.206  17.873  0.00  0.00    +0.000 C 
ATOM      8  C   UNL     1       3.185   6.864  17.814  0.00  0.00    +0.000 C 
ATOM      9  C   UNL     1       2.180   5.869  18.308  0.00  0.00    +0.000 C 
ATOM     10  C   UNL     1       2.842   5.044  19.401  0.00  0.00    +0.000 C 
ATOM     11  C   UNL     1       4.026   4.261  18.843  0.00  0.00    +0.000 C 
ATOM     12  N   UNL     1       4.889   5.060  17.972  0.00  0.00    +0.000 N 
ATOM     13  C   UNL     1       6.041   4.353  17.422  0.00  0.00    +0.000 C 
ATOM     14  C   UNL     1       6.858   5.301  16.565  0.00  0.00    +0.000 C 
ATOM     15  O   UNL     1       5.992   5.910  15.610  0.00  0.00    +0.000 OA
ATOM     16  N   UNL     1       4.959   6.678  16.201  0.00  0.00    +0.000 NA
ATOM     17  C   UNL     1       4.425   6.183  17.288  0.00  0.00    +0.000 C 
ENDBRANCH   3   7
BRANCH   6  18
ATOM     18  N   UNL     1      -1.156  11.220  20.206  0.00  0.00    +0.000 N 
ATOM     19  C   UNL     1      -1.206  11.807  21.453  0.00  0.00    +0.000 A 
ATOM     20  N   UNL     1      -2.283  12.547  21.629  0.00  0.00    +0.000 NA
ATOM     21  C   UNL     1      -2.990  12.443  20.461  0.00  0.00    +0.000 A 
ATOM     22  C   UNL     1      -4.296  13.110  20.282  0.00  0.00    +0.000 C 
ATOM     23  C   UNL     1      -2.302  11.653  19.567  0.00  0.00    +0.000 A 
ENDBRANCH   6  18
BRANCH   1  25
ATOM     24  C   UNL     1       0.967   9.236  22.720  0.00  0.00    +0.000 C 
ATOM     25  O   UNL     1       0.054   9.090  21.636  0.00  0.00    +0.000 OA
ENDBRANCH   1  25
TORSDOF 3
ENDMDL
MODEL 9
REMARK VINA RESULT:      -6.9      2.354      8.186
REMARK  Name = 
REMARK  5 active torsions:
REMARK  status: ('A' for Active; 'I' for Inactive)
REMARK    1  A    between atoms: C_1  and  O_2
REMARK    2  A    between atoms: O_2  and  C_3
REMARK    3  A    between atoms: C_5  and  C_6
REMARK    4  A    between atoms: C_19  and  N_20
REMARK    5  A    between atoms: C_23  and  C_24
REMARK                            x       y       z     vdW  Elec       q    Type
REMARK                         _______ _______ _______ _____ _____    ______ ____
ROOT
ATOM      1  C   UNL     1       1.219  10.055  20.462  0.00  0.00    +0.000 A 
ATOM      2  C   UNL     1       1.372   8.655  20.458  0.00  0.00    +0.000 A 
ATOM      3  C   UNL     1       1.746   7.966  19.298  0.00  0.00    +0.000 A 
ATOM      4  C   UNL     1       1.925   8.679  18.113  0.00  0.00    +0.000 A 
ATOM      5  C   UNL     1       1.756  10.067  18.092  0.00  0.00    +0.000 A 
ATOM      6  C   UNL     1       1.420  10.772  19.264  0.00  0.00    +0.000 A 
ENDROOT
BRANCH   3   7
ATOM      7  C   UNL     1       1.993   6.520  19.338  0.00  0.00    +0.000 C 
ATOM      8  C   UNL     1       3.124   5.951  18.881  0.00  0.00    +0.000 C 
ATOM      9  C   UNL     1       4.305   6.638  18.266  0.00  0.00    +0.000 C 
ATOM     10  C   UNL     1       4.443   6.135  16.837  0.00  0.00    +0.000 C 
ATOM     11  C   UNL     1       4.723   4.636  16.818  0.00  0.00    +0.000 C 
ATOM     12  N   UNL     1       3.868   3.876  17.730  0.00  0.00    +0.000 N 
ATOM     13  C   UNL     1       4.096   2.435  17.739  0.00  0.00    +0.000 C 
ATOM     14  C   UNL     1       3.130   1.773  18.703  0.00  0.00    +0.000 C 
ATOM     15  O   UNL     1       3.234   2.422  19.967  0.00  0.00    +0.000 OA
ATOM     16  N   UNL     1       2.891   3.796  19.920  0.00  0.00    +0.000 NA
ATOM     17  C   UNL     1       3.284   4.451  18.858  0.00  0.00    +0.000 C 
ENDBRANCH   3   7
BRANCH   6  18
ATOM     18  N   UNL     1       1.329  12.196  19.190  0.00  0.00    +0.000 N 
ATOM     19  C   UNL     1       2.337  13.132  19.301  0.00  0.00    +0.000 A 
ATOM     20  N   UNL     1       1.909  14.368  19.135  0.00  0.00    +0.000 NA
ATOM     21  C   UNL     1       0.562  14.261  18.917  0.00  0.00    +0.000 A 
ATOM     22  C   UNL     1      -0.290  15.452  18.723  0.00  0.00    +0.000 C 
ATOM     23  C   UNL     1       0.192  12.935  18.922  0.00  0.00    +0.000 A 
ENDBRANCH   6  18
BRANCH   1  25
ATOM     24  C   UNL     1      -0.065  10.053  22.473  0.00  0.00    +0.000 C 
ATOM     25  O   UNL     1       0.789  10.743  21.566  0.00  0.00    +0.000 OA
ENDBRANCH   1  25
TORSDOF 3
ENDMDL
