MODEL 1
REMARK VINA RESULT:      -6.6      0.000      0.000
REMARK  Name = 
REMARK  4 active torsions:
REMARK  status: ('A' for Active; 'I' for Inactive)
REMARK    1  A    between atoms: O_1  and  C_2
REMARK    2  A    between atoms: C_10  and  C_11
REMARK    3  A    between atoms: C_11  and  C_12
REMARK    4  A    between atoms: C_11  and  N_19
REMARK                            x       y       z     vdW  Elec       q    Type
REMARK                         _______ _______ _______ _____ _____    ______ ____
ROOT
ATOM      1  C   UNL     1      -0.053  11.449  18.982  0.00  0.00    +0.000 C 
ENDROOT
BRANCH   1  10
ATOM      2  C   UNL     1       0.108  10.042  21.167  0.00  0.00    +0.000 A 
ATOM      3  C   UNL     1       0.559   8.928  21.884  0.00  0.00    +0.000 A 
ATOM      4  C   UNL     1       1.357   7.963  21.277  0.00  0.00    +0.000 A 
ATOM      5  C   UNL     1       1.693   8.149  19.931  0.00  0.00    +0.000 A 
ATOM      6  S   UNL     1       2.636   7.117  18.920  0.00  0.00    +0.000 S 
ATOM      7  C   UNL     1       2.412   8.201  17.620  0.00  0.00    +0.000 A 
ATOM      8  N   UNL     1       1.706   9.277  17.875  0.00  0.00    +0.000 NA
ATOM      9  C   UNL     1       1.269   9.264  19.200  0.00  0.00    +0.000 A 
ATOM     10  C   UNL     1       0.455  10.266  19.816  0.00  0.00    +0.000 A 
BRANCH   2  11
ATOM     11  O   UNL     1      -0.703  10.934  21.809  0.00  0.00    +0.000 OA
ATOM     12  H   UNL     1      -0.721  10.737  22.759  0.00  0.00    +0.000 HD
ENDBRANCH   2  11
ENDBRANCH   1  10
BRANCH   1  13
ATOM     13  C   UNL     1      -1.507  11.211  18.536  0.00  0.00    +0.000 A 
ATOM     14  C   UNL     1      -2.589  11.877  19.137  0.00  0.00    +0.000 A 
ATOM     15  C   UNL     1      -3.865  11.806  18.574  0.00  0.00    +0.000 A 
ATOM     16  C   UNL     1      -4.077  11.019  17.449  0.00  0.00    +0.000 A 
ATOM     17  F   UNL     1      -5.292  10.983  16.885  0.00  0.00    +0.000 F 
ATOM     18  C   UNL     1      -3.043  10.281  16.889  0.00  0.00    +0.000 A 
ATOM     19  C   UNL     1      -1.761  10.378  17.428  0.00  0.00    +0.000 A 
ENDBRANCH   1  13
BRANCH   1  20
ATOM     20  N   UNL     1       0.212  12.849  19.509  0.00  0.00    +0.000 NA
ATOM     21  C   UNL     1       1.640  12.978  19.872  0.00  0.00    +0.000 C 
ATOM     22  C   UNL     1       2.106  14.410  20.164  0.00  0.00    +0.000 C 
ATOM     23  C   UNL     1       1.737  15.359  19.036  0.00  0.00    +0.000 C 
ATOM     24  C   UNL     1       0.239  15.296  18.828  0.00  0.00    +0.000 C 
ATOM     25  C   UNL     1      -0.188  13.866  18.509  0.00  0.00    +0.000 C 
ENDBRANCH   1  20
TORSDOF 4
ENDMDL
MODEL 2
REMARK VINA RESULT:      -6.5      0.330      1.037
REMARK  Name = 
REMARK  4 active torsions:
REMARK  status: ('A' for Active; 'I' for Inactive)
REMARK    1  A    between atoms: O_1  and  C_2
REMARK    2  A    between atoms: C_10  and  C_11
REMARK    3  A    between atoms: C_11  and  C_12
REMARK    4  A    between atoms: C_11  and  N_19
REMARK                            x       y       z     vdW  Elec       q    Type
REMARK                         _______ _______ _______ _____ _____    ______ ____
ROOT
ATOM      1  C   UNL     1       0.027  11.460  18.996  0.00  0.00    +0.000 C 
ENDROOT
BRANCH   1  10
ATOM      2  C   UNL     1       0.037   9.958  21.124  0.00  0.00    +0.000 A 
ATOM      3  C   UNL     1       0.426   8.805  21.815  0.00  0.00    +0.000 A 
ATOM      4  C   UNL     1       1.240   7.851  21.213  0.00  0.00    +0.000 A 
ATOM      5  C   UNL     1       1.656   8.088  19.898  0.00  0.00    +0.000 A 
ATOM      6  S   UNL     1       2.638   7.081  18.897  0.00  0.00    +0.000 S 
ATOM      7  C   UNL     1       2.508   8.223  17.636  0.00  0.00    +0.000 A 
ATOM      8  N   UNL     1       1.808   9.302  17.897  0.00  0.00    +0.000 NA
ATOM      9  C   UNL     1       1.295   9.241  19.194  0.00  0.00    +0.000 A 
ATOM     10  C   UNL     1       0.465  10.232  19.806  0.00  0.00    +0.000 A 
BRANCH   2  11
ATOM     11  O   UNL     1      -0.794  10.838  21.757  0.00  0.00    +0.000 OA
ATOM     12  H   UNL     1      -0.713  10.732  22.718  0.00  0.00    +0.000 HD
ENDBRANCH   2  11
ENDBRANCH   1  10
BRANCH   1  13
ATOM     13  C   UNL     1      -1.422  11.295  18.505  0.00  0.00    +0.000 A 
ATOM     14  C   UNL     1      -1.778  10.332  17.545  0.00  0.00    +0.000 A 
ATOM     15  C   UNL     1      -3.122  10.061  17.279  0.00  0.00    +0.000 A 
ATOM     16  C   UNL     1      -4.111  10.795  17.921  0.00  0.00    +0.000 A 
ATOM     17  F   UNL     1      -5.401  10.508  17.696  0.00  0.00    +0.000 F 
ATOM     18  C   UNL     1      -3.783  11.813  18.806  0.00  0.00    +0.000 A 
ATOM     19  C   UNL     1      -2.444  12.061  19.100  0.00  0.00    +0.000 A 
ENDBRANCH   1  13
BRANCH   1  20
ATOM     20  N   UNL     1       0.333  12.831  19.576  0.00  0.00    +0.000 NA
ATOM     21  C   UNL     1       1.695  12.832  20.152  0.00  0.00    +0.000 C 
ATOM     22  C   UNL     1       2.237  14.217  20.529  0.00  0.00    +0.000 C 
ATOM     23  C   UNL     1       2.129  15.193  19.370  0.00  0.00    +0.000 C 
ATOM     24  C   UNL     1       0.681  15.265  18.937  0.00  0.00    +0.000 C 
ATOM     25  C   UNL     1       0.181  13.879  18.539  0.00  0.00    +0.000 C 
ENDBRANCH   1  20
TORSDOF 4
ENDMDL
MODEL 3
REMARK VINA RESULT:      -6.4      4.614      7.890
REMARK  Name = 
REMARK  4 active torsions:
REMARK  status: ('A' for Active; 'I' for Inactive)
REMARK    1  A    between atoms: O_1  and  C_2
REMARK    2  A    between atoms: C_10  and  C_11
REMARK    3  A    between atoms: C_11  and  C_12
REMARK    4  A    between atoms: C_11  and  N_19
REMARK                            x       y       z     vdW  Elec       q    Type
REMARK                         _______ _______ _______ _____ _____    ______ ____
ROOT
ATOM      1  C   UNL     1       3.783   6.151  18.965  0.00  0.00    +0.000 C 
ENDROOT
BRANCH   1  10
ATOM      2  C   UNL     1       2.860   8.166  17.598  0.00  0.00    +0.000 A 
ATOM      3  C   UNL     1       2.010   9.268  17.450  0.00  0.00    +0.000 A 
ATOM      4  C   UNL     1       1.134   9.637  18.467  0.00  0.00    +0.000 A 
ATOM      5  C   UNL     1       1.138   8.869  19.638  0.00  0.00    +0.000 A 
ATOM      6  S   UNL     1       0.154   9.070  21.042  0.00  0.00    +0.000 S 
ATOM      7  C   UNL     1       0.915   7.720  21.757  0.00  0.00    +0.000 A 
ATOM      8  N   UNL     1       1.852   7.136  21.047  0.00  0.00    +0.000 NA
ATOM      9  C   UNL     1       1.991   7.775  19.815  0.00  0.00    +0.000 A 
ATOM     10  C   UNL     1       2.900   7.392  18.779  0.00  0.00    +0.000 A 
BRANCH   2  11
ATOM     11  O   UNL     1       3.668   7.833  16.548  0.00  0.00    +0.000 OA
ATOM     12  H   UNL     1       3.188   7.953  15.714  0.00  0.00    +0.000 HD
ENDBRANCH   2  11
ENDBRANCH   1  10
BRANCH   1  13
ATOM     13  C   UNL     1       2.950   4.866  18.804  0.00  0.00    +0.000 A 
ATOM     14  C   UNL     1       3.066   3.787  19.697  0.00  0.00    +0.000 A 
ATOM     15  C   UNL     1       2.153   2.732  19.654  0.00  0.00    +0.000 A 
ATOM     16  C   UNL     1       1.163   2.719  18.680  0.00  0.00    +0.000 A 
ATOM     17  F   UNL     1       0.261   1.727  18.663  0.00  0.00    +0.000 F 
ATOM     18  C   UNL     1       1.083   3.729  17.731  0.00  0.00    +0.000 A 
ATOM     19  C   UNL     1       1.971   4.801  17.793  0.00  0.00    +0.000 A 
ENDBRANCH   1  13
BRANCH   1  20
ATOM     20  N   UNL     1       5.117   6.120  18.239  0.00  0.00    +0.000 NA
ATOM     21  C   UNL     1       6.195   5.798  19.198  0.00  0.00    +0.000 C 
ATOM     22  C   UNL     1       7.551   5.469  18.560  0.00  0.00    +0.000 C 
ATOM     23  C   UNL     1       7.422   4.393  17.495  0.00  0.00    +0.000 C 
ATOM     24  C   UNL     1       6.423   4.862  16.460  0.00  0.00    +0.000 C 
ATOM     25  C   UNL     1       5.077   5.149  17.119  0.00  0.00    +0.000 C 
ENDBRANCH   1  20
TORSDOF 4
ENDMDL
MODEL 4
REMARK VINA RESULT:      -6.3      4.438      7.683
REMARK  Name = 
REMARK  4 active torsions:
REMARK  status: ('A' for Active; 'I' for Inactive)
REMARK    1  A    between atoms: O_1  and  C_2
REMARK    2  A    between atoms: C_10  and  C_11
REMARK    3  A    between atoms: C_11  and  C_12
REMARK    4  A    between atoms: C_11  and  N_19
REMARK                            x       y       z     vdW  Elec       q    Type
REMARK                         _______ _______ _______ _____ _____    ______ ____
ROOT
ATOM      1  C   UNL     1       3.316   6.396  19.141  0.00  0.00    +0.000 C 
ENDROOT
BRANCH   1  10
ATOM      2  C   UNL     1       2.501   8.443  17.754  0.00  0.00    +0.000 A 
ATOM      3  C   UNL     1       1.732   9.603  17.606  0.00  0.00    +0.000 A 
ATOM      4  C   UNL     1       0.922  10.061  18.641  0.00  0.00    +0.000 A 
ATOM      5  C   UNL     1       0.909   9.323  19.831  0.00  0.00    +0.000 A 
ATOM      6  S   UNL     1      -0.007   9.631  21.261  0.00  0.00    +0.000 S 
ATOM      7  C   UNL     1       0.674   8.243  21.985  0.00  0.00    +0.000 A 
ATOM      8  N   UNL     1       1.539   7.574  21.260  0.00  0.00    +0.000 NA
ATOM      9  C   UNL     1       1.683   8.171  20.007  0.00  0.00    +0.000 A 
ATOM     10  C   UNL     1       2.524   7.696  18.952  0.00  0.00    +0.000 A 
BRANCH   2  11
ATOM     11  O   UNL     1       3.245   8.025  16.687  0.00  0.00    +0.000 OA
ATOM     12  H   UNL     1       2.848   7.227  16.304  0.00  0.00    +0.000 HD
ENDBRANCH   2  11
ENDBRANCH   1  10
BRANCH   1  13
ATOM     13  C   UNL     1       2.383   5.176  19.054  0.00  0.00    +0.000 A 
ATOM     14  C   UNL     1       1.682   4.857  17.878  0.00  0.00    +0.000 A 
ATOM     15  C   UNL     1       1.016   3.635  17.760  0.00  0.00    +0.000 A 
ATOM     16  C   UNL     1       0.994   2.758  18.837  0.00  0.00    +0.000 A 
ATOM     17  F   UNL     1       0.391   1.568  18.711  0.00  0.00    +0.000 F 
ATOM     18  C   UNL     1       1.604   3.089  20.039  0.00  0.00    +0.000 A 
ATOM     19  C   UNL     1       2.298   4.293  20.148  0.00  0.00    +0.000 A 
ENDBRANCH   1  13
BRANCH   1  20
ATOM     20  N   UNL     1       4.612   6.242  18.363  0.00  0.00    +0.000 NA
ATOM     21  C   UNL     1       5.676   5.752  19.266  0.00  0.00    +0.000 C 
ATOM     22  C   UNL     1       6.962   5.296  18.564  0.00  0.00    +0.000 C 
ATOM     23  C   UNL     1       6.670   4.292  17.461  0.00  0.00    +0.000 C 
ATOM     24  C   UNL     1       5.699   4.921  16.485  0.00  0.00    +0.000 C 
ATOM     25  C   UNL     1       4.420   5.335  17.207  0.00  0.00    +0.000 C 
ENDBRANCH   1  20
TORSDOF 4
ENDMDL
MODEL 5
REMARK VINA RESULT:      -6.3      2.910      5.460
REMARK  Name = 
REMARK  4 active torsions:
REMARK  status: ('A' for Active; 'I' for Inactive)
REMARK    1  A    between atoms: O_1  and  C_2
REMARK    2  A    between atoms: C_10  and  C_11
REMARK    3  A    between atoms: C_11  and  C_12
REMARK    4  A    between atoms: C_11  and  N_19
REMARK                            x       y       z     vdW  Elec       q    Type
REMARK                         _______ _______ _______ _____ _____    ______ ____
ROOT
ATOM      1  C   UNL     1      -0.103  11.158  18.848  0.00  0.00    +0.000 C 
ENDROOT
BRANCH   1  10
ATOM      2  C   UNL     1      -0.240  12.457  21.100  0.00  0.00    +0.000 A 
ATOM      3  C   UNL     1       0.163  13.493  21.951  0.00  0.00    +0.000 A 
ATOM      4  C   UNL     1       1.126  14.414  21.549  0.00  0.00    +0.000 A 
ATOM      5  C   UNL     1       1.672  14.267  20.269  0.00  0.00    +0.000 A 
ATOM      6  S   UNL     1       2.889  15.232  19.516  0.00  0.00    +0.000 S 
ATOM      7  C   UNL     1       2.797  14.248  18.125  0.00  0.00    +0.000 A 
ATOM      8  N   UNL     1       1.926  13.268  18.163  0.00  0.00    +0.000 NA
ATOM      9  C   UNL     1       1.271  13.251  19.395  0.00  0.00    +0.000 A 
ATOM     10  C   UNL     1       0.277  12.304  19.795  0.00  0.00    +0.000 A 
BRANCH   2  11
ATOM     11  O   UNL     1      -1.161  11.564  21.568  0.00  0.00    +0.000 OA
ATOM     12  H   UNL     1      -1.122  11.529  22.537  0.00  0.00    +0.000 HD
ENDBRANCH   2  11
ENDBRANCH   1  10
BRANCH   1  13
ATOM     13  C   UNL     1       0.847   9.962  19.037  0.00  0.00    +0.000 A 
ATOM     14  C   UNL     1       0.889   9.226  20.234  0.00  0.00    +0.000 A 
ATOM     15  C   UNL     1       1.598   8.025  20.302  0.00  0.00    +0.000 A 
ATOM     16  C   UNL     1       2.319   7.589  19.197  0.00  0.00    +0.000 A 
ATOM     17  F   UNL     1       2.967   6.417  19.248  0.00  0.00    +0.000 F 
ATOM     18  C   UNL     1       2.366   8.344  18.033  0.00  0.00    +0.000 A 
ATOM     19  C   UNL     1       1.631   9.526  17.951  0.00  0.00    +0.000 A 
ENDBRANCH   1  13
BRANCH   1  20
ATOM     20  N   UNL     1      -1.571  10.775  18.759  0.00  0.00    +0.000 NA
ATOM     21  C   UNL     1      -2.394  11.997  18.635  0.00  0.00    +0.000 C 
ATOM     22  C   UNL     1      -3.863  11.753  18.267  0.00  0.00    +0.000 C 
ATOM     23  C   UNL     1      -3.992  10.876  17.033  0.00  0.00    +0.000 C 
ATOM     24  C   UNL     1      -3.263   9.575  17.292  0.00  0.00    +0.000 C 
ATOM     25  C   UNL     1      -1.799   9.849  17.624  0.00  0.00    +0.000 C 
ENDBRANCH   1  20
TORSDOF 4
ENDMDL
MODEL 6
REMARK VINA RESULT:      -6.2      5.049      8.732
REMARK  Name = 
REMARK  4 active torsions:
REMARK  status: ('A' for Active; 'I' for Inactive)
REMARK    1  A    between atoms: O_1  and  C_2
REMARK    2  A    between atoms: C_10  and  C_11
REMARK    3  A    between atoms: C_11  and  C_12
REMARK    4  A    between atoms: C_11  and  N_19
REMARK                            x       y       z     vdW  Elec       q    Type
REMARK                         _______ _______ _______ _____ _____    ______ ____
ROOT
ATOM      1  C   UNL     1       3.225   5.737  17.883  0.00  0.00    +0.000 C 
ENDROOT
BRANCH   1  10
ATOM      2  C   UNL     1       2.255   6.049  20.280  0.00  0.00    +0.000 A 
ATOM      3  C   UNL     1       1.628   6.823  21.263  0.00  0.00    +0.000 A 
ATOM      4  C   UNL     1       1.239   8.133  21.002  0.00  0.00    +0.000 A 
ATOM      5  C   UNL     1       1.496   8.645  19.725  0.00  0.00    +0.000 A 
ATOM      6  S   UNL     1       1.154  10.228  19.127  0.00  0.00    +0.000 S 
ATOM      7  C   UNL     1       1.828   9.795  17.620  0.00  0.00    +0.000 A 
ATOM      8  N   UNL     1       2.275   8.565  17.514  0.00  0.00    +0.000 NA
ATOM      9  C   UNL     1       2.105   7.885  18.721  0.00  0.00    +0.000 A 
ATOM     10  C   UNL     1       2.501   6.535  18.976  0.00  0.00    +0.000 A 
BRANCH   2  11
ATOM     11  O   UNL     1       2.646   4.783  20.610  0.00  0.00    +0.000 OA
ATOM     12  H   UNL     1       3.598   4.772  20.794  0.00  0.00    +0.000 HD
ENDBRANCH   2  11
ENDBRANCH   1  10
BRANCH   1  13
ATOM     13  C   UNL     1       4.750   5.910  18.008  0.00  0.00    +0.000 A 
ATOM     14  C   UNL     1       5.483   6.715  17.120  0.00  0.00    +0.000 A 
ATOM     15  C   UNL     1       6.819   7.023  17.383  0.00  0.00    +0.000 A 
ATOM     16  C   UNL     1       7.444   6.477  18.497  0.00  0.00    +0.000 A 
ATOM     17  F   UNL     1       8.714   6.805  18.772  0.00  0.00    +0.000 F 
ATOM     18  C   UNL     1       6.766   5.608  19.340  0.00  0.00    +0.000 A 
ATOM     19  C   UNL     1       5.422   5.326  19.099  0.00  0.00    +0.000 A 
ENDBRANCH   1  13
BRANCH   1  20
ATOM     20  N   UNL     1       2.781   4.304  17.646  0.00  0.00    +0.000 NA
ATOM     21  C   UNL     1       3.824   3.376  18.133  0.00  0.00    +0.000 C 
ATOM     22  C   UNL     1       3.398   1.903  18.204  0.00  0.00    +0.000 C 
ATOM     23  C   UNL     1       2.103   1.733  18.982  0.00  0.00    +0.000 C 
ATOM     24  C   UNL     1       1.037   2.587  18.330  0.00  0.00    +0.000 C 
ATOM     25  C   UNL     1       1.477   4.048  18.303  0.00  0.00    +0.000 C 
ENDBRANCH   1  20
TORSDOF 4
ENDMDL
MODEL 7
REMARK VINA RESULT:      -6.2      5.335      8.009
REMARK  Name = 
REMARK  4 active torsions:
REMARK  status: ('A' for Active; 'I' for Inactive)
REMARK    1  A    between atoms: O_1  and  C_2
REMARK    2  A    between atoms: C_10  and  C_11
REMARK    3  A    between atoms: C_11  and  C_12
REMARK    4  A    between atoms: C_11  and  N_19
REMARK                            x       y       z     vdW  Elec       q    Type
REMARK                         _______ _______ _______ _____ _____    ______ ____
ROOT
ATOM      1  C   UNL     1       3.587   5.768  17.785  0.00  0.00    +0.000 C 
ENDROOT
BRANCH   1  10
ATOM      2  C   UNL     1       6.056   5.414  18.533  0.00  0.00    +0.000 A 
ATOM      3  C   UNL     1       7.382   5.049  18.271  0.00  0.00    +0.000 A 
ATOM      4  C   UNL     1       7.774   4.642  17.000  0.00  0.00    +0.000 A 
ATOM      5  C   UNL     1       6.798   4.614  15.997  0.00  0.00    +0.000 A 
ATOM      6  S   UNL     1       6.983   4.134  14.349  0.00  0.00    +0.000 S 
ATOM      7  C   UNL     1       5.328   4.452  14.080  0.00  0.00    +0.000 A 
ATOM      8  N   UNL     1       4.647   4.901  15.108  0.00  0.00    +0.000 NA
ATOM      9  C   UNL     1       5.472   4.992  16.230  0.00  0.00    +0.000 A 
ATOM     10  C   UNL     1       5.060   5.419  17.532  0.00  0.00    +0.000 A 
BRANCH   2  11
ATOM     11  O   UNL     1       5.727   5.767  19.811  0.00  0.00    +0.000 OA
ATOM     12  H   UNL     1       6.360   6.423  20.143  0.00  0.00    +0.000 HD
ENDBRANCH   2  11
ENDBRANCH   1  10
BRANCH   1  13
ATOM     13  C   UNL     1       2.835   4.555  18.360  0.00  0.00    +0.000 A 
ATOM     14  C   UNL     1       1.547   4.200  17.921  0.00  0.00    +0.000 A 
ATOM     15  C   UNL     1       0.981   2.982  18.300  0.00  0.00    +0.000 A 
ATOM     16  C   UNL     1       1.670   2.145  19.169  0.00  0.00    +0.000 A 
ATOM     17  F   UNL     1       1.145   0.957  19.501  0.00  0.00    +0.000 F 
ATOM     18  C   UNL     1       2.904   2.513  19.686  0.00  0.00    +0.000 A 
ATOM     19  C   UNL     1       3.487   3.713  19.282  0.00  0.00    +0.000 A 
ENDBRANCH   1  13
BRANCH   1  20
ATOM     20  N   UNL     1       3.286   7.078  18.494  0.00  0.00    +0.000 NA
ATOM     21  C   UNL     1       2.729   8.047  17.526  0.00  0.00    +0.000 C 
ATOM     22  C   UNL     1       2.131   9.314  18.151  0.00  0.00    +0.000 C 
ATOM     23  C   UNL     1       1.121   8.979  19.236  0.00  0.00    +0.000 C 
ATOM     24  C   UNL     1       1.805   8.118  20.276  0.00  0.00    +0.000 C 
ATOM     25  C   UNL     1       2.361   6.853  19.630  0.00  0.00    +0.000 C 
ENDBRANCH   1  20
TORSDOF 4
ENDMDL
MODEL 8
REMARK VINA RESULT:      -6.1      3.239      5.230
REMARK  Name = 
REMARK  4 active torsions:
REMARK  status: ('A' for Active; 'I' for Inactive)
REMARK    1  A    between atoms: O_1  and  C_2
REMARK    2  A    between atoms: C_10  and  C_11
REMARK    3  A    between atoms: C_11  and  C_12
REMARK    4  A    between atoms: C_11  and  N_19
REMARK                            x       y       z     vdW  Elec       q    Type
REMARK                         _______ _______ _______ _____ _____    ______ ____
ROOT
ATOM      1  C   UNL     1      -0.997  12.412  19.582  0.00  0.00    +0.000 C 
ENDROOT
BRANCH   1  10
ATOM      2  C   UNL     1      -1.307  10.625  17.713  0.00  0.00    +0.000 A 
ATOM      3  C   UNL     1      -2.115   9.838  16.884  0.00  0.00    +0.000 A 
ATOM      4  C   UNL     1      -3.502   9.928  16.942  0.00  0.00    +0.000 A 
ATOM      5  C   UNL     1      -4.057  10.833  17.855  0.00  0.00    +0.000 A 
ATOM      6  S   UNL     1      -5.727  11.139  18.164  0.00  0.00    +0.000 S 
ATOM      7  C   UNL     1      -5.288  12.291  19.345  0.00  0.00    +0.000 A 
ATOM      8  N   UNL     1      -4.002  12.482  19.522  0.00  0.00    +0.000 NA
ATOM      9  C   UNL     1      -3.270  11.642  18.681  0.00  0.00    +0.000 A 
ATOM     10  C   UNL     1      -1.843  11.563  18.624  0.00  0.00    +0.000 A 
BRANCH   2  11
ATOM     11  O   UNL     1       0.047  10.462  17.635  0.00  0.00    +0.000 OA
ATOM     12  H   UNL     1       0.483  11.328  17.664  0.00  0.00    +0.000 HD
ENDBRANCH   2  11
ENDBRANCH   1  10
BRANCH   1  13
ATOM     13  C   UNL     1      -0.664  11.618  20.858  0.00  0.00    +0.000 A 
ATOM     14  C   UNL     1      -1.238  11.932  22.102  0.00  0.00    +0.000 A 
ATOM     15  C   UNL     1      -1.086  11.069  23.189  0.00  0.00    +0.000 A 
ATOM     16  C   UNL     1      -0.309   9.926  23.056  0.00  0.00    +0.000 A 
ATOM     17  F   UNL     1      -0.196   9.077  24.087  0.00  0.00    +0.000 F 
ATOM     18  C   UNL     1       0.341   9.640  21.863  0.00  0.00    +0.000 A 
ATOM     19  C   UNL     1       0.163  10.481  20.766  0.00  0.00    +0.000 A 
ENDBRANCH   1  13
BRANCH   1  20
ATOM     20  N   UNL     1       0.183  13.169  18.997  0.00  0.00    +0.000 NA
ATOM     21  C   UNL     1      -0.123  14.615  18.967  0.00  0.00    +0.000 C 
ATOM     22  C   UNL     1       1.074  15.523  18.654  0.00  0.00    +0.000 C 
ATOM     23  C   UNL     1       2.253  15.229  19.567  0.00  0.00    +0.000 C 
ATOM     24  C   UNL     1       2.615  13.766  19.424  0.00  0.00    +0.000 C 
ATOM     25  C   UNL     1       1.416  12.890  19.772  0.00  0.00    +0.000 C 
ENDBRANCH   1  20
TORSDOF 4
ENDMDL
MODEL 9
REMARK VINA RESULT:      -6.1      5.362      8.091
REMARK  Name = 
REMARK  4 active torsions:
REMARK  status: ('A' for Active; 'I' for Inactive)
REMARK    1  A    between atoms: O_1  and  C_2
REMARK    2  A    between atoms: C_10  and  C_11
REMARK    3  A    between atoms: C_11  and  C_12
REMARK    4  A    between atoms: C_11  and  N_19
REMARK                            x       y       z     vdW  Elec       q    Type
REMARK                         _______ _______ _______ _____ _____    ______ ____
ROOT
ATOM      1  C   UNL     1       3.670   5.671  17.647  0.00  0.00    +0.000 C 
ENDROOT
BRANCH   1  10
ATOM      2  C   UNL     1       6.151   5.364  18.374  0.00  0.00    +0.000 A 
ATOM      3  C   UNL     1       7.484   5.038  18.098  0.00  0.00    +0.000 A 
ATOM      4  C   UNL     1       7.879   4.668  16.816  0.00  0.00    +0.000 A 
ATOM      5  C   UNL     1       6.898   4.637  15.817  0.00  0.00    +0.000 A 
ATOM      6  S   UNL     1       7.085   4.197  14.159  0.00  0.00    +0.000 S 
ATOM      7  C   UNL     1       5.421   4.479  13.906  0.00  0.00    +0.000 A 
ATOM      8  N   UNL     1       4.735   4.888  14.947  0.00  0.00    +0.000 NA
ATOM      9  C   UNL     1       5.564   4.976  16.066  0.00  0.00    +0.000 A 
ATOM     10  C   UNL     1       5.149   5.365  17.379  0.00  0.00    +0.000 A 
BRANCH   2  11
ATOM     11  O   UNL     1       5.821   5.681  19.661  0.00  0.00    +0.000 OA
ATOM     12  H   UNL     1       6.504   5.351  20.266  0.00  0.00    +0.000 HD
ENDBRANCH   2  11
ENDBRANCH   1  10
BRANCH   1  13
ATOM     13  C   UNL     1       2.924   4.397  18.081  0.00  0.00    +0.000 A 
ATOM     14  C   UNL     1       3.549   3.387  18.834  0.00  0.00    +0.000 A 
ATOM     15  C   UNL     1       2.797   2.353  19.393  0.00  0.00    +0.000 A 
ATOM     16  C   UNL     1       1.431   2.287  19.149  0.00  0.00    +0.000 A 
ATOM     17  F   UNL     1       0.701   1.317  19.719  0.00  0.00    +0.000 F 
ATOM     18  C   UNL     1       0.805   3.222  18.336  0.00  0.00    +0.000 A 
ATOM     19  C   UNL     1       1.548   4.275  17.805  0.00  0.00    +0.000 A 
ENDBRANCH   1  13
BRANCH   1  20
ATOM     20  N   UNL     1       3.345   6.896  18.486  0.00  0.00    +0.000 NA
ATOM     21  C   UNL     1       2.768   7.948  17.622  0.00  0.00    +0.000 C 
ATOM     22  C   UNL     1       2.147   9.133  18.372  0.00  0.00    +0.000 C 
ATOM     23  C   UNL     1       1.146   8.670  19.418  0.00  0.00    +0.000 C 
ATOM     24  C   UNL     1       1.849   7.721  20.366  0.00  0.00    +0.000 C 
ATOM     25  C   UNL     1       2.427   6.539  19.594  0.00  0.00    +0.000 C 
ENDBRANCH   1  20
TORSDOF 4
ENDMDL
