MODEL 1
REMARK VINA RESULT:      -6.4      0.000      0.000
REMARK  Name = 
REMARK  11 active torsions:
REMARK  status: ('A' for Active; 'I' for Inactive)
REMARK    1  A    between atoms: C_1  and  O_2
REMARK    2  A    between atoms: O_2  and  C_3
REMARK    3  A    between atoms: C_5  and  C_6
REMARK    4  A    between atoms: C_7  and  N_8
REMARK    5  A    between atoms: C_9  and  S_10
REMARK    6  A    between atoms: N_11  and  C_12
REMARK    7  A    between atoms: C_12  and  C_13
REMARK    8  A    between atoms: C_13  and  C_14
REMARK    9  A    between atoms: C_14  and  N_15
REMARK   10  A    between atoms: C_22  and  O_23
REMARK   11  A    between atoms: O_23  and  C_24
REMARK                            x       y       z     vdW  Elec       q    Type
REMARK                         _______ _______ _______ _____ _____    ______ ____
ROOT
ATOM      1  N   UNL     1       2.351   6.158  20.775  0.00  0.00    +0.000 N 
ATOM      2  C   UNL     1       1.828   4.892  20.616  0.00  0.00    +0.000 C 
ATOM      3  N   UNL     1       0.989   4.514  19.719  0.00  0.00    +0.000 NA
ATOM      4  H   UNL     1       2.857   6.261  21.640  0.00  0.00    +0.000 HD
ENDROOT
BRANCH   1   9
ATOM      5  C   UNL     1       0.859   9.955  19.555  0.00  0.00    +0.000 A 
ATOM      6  C   UNL     1       1.645   9.178  18.699  0.00  0.00    +0.000 A 
ATOM      7  C   UNL     1       2.060   7.878  19.049  0.00  0.00    +0.000 A 
ATOM      8  C   UNL     1       2.868   7.116  18.030  0.00  0.00    +0.000 C 
ATOM      9  C   UNL     1       1.773   7.377  20.338  0.00  0.00    +0.000 A 
ATOM     10  C   UNL     1       0.892   8.121  21.135  0.00  0.00    +0.000 A 
ATOM     11  C   UNL     1       0.425   9.390  20.757  0.00  0.00    +0.000 A 
BRANCH   5  13
ATOM     12  C   UNL     1      -0.633  11.537  18.576  0.00  0.00    +0.000 C 
ATOM     13  O   UNL     1       0.551  11.265  19.310  0.00  0.00    +0.000 OA
ENDBRANCH   5  13
BRANCH  11  14
ATOM     14  O   UNL     1      -0.397   9.976  21.688  0.00  0.00    +0.000 OA
ATOM     15  C   UNL     1      -0.246   9.529  23.030  0.00  0.00    +0.000 C 
ENDBRANCH  11  14
ENDBRANCH   1   9
BRANCH   2  16
ATOM     16  S   UNL     1       2.444   3.783  21.852  0.00  0.00    +0.000 S 
ATOM     17  H   UNL     1       3.096   4.693  22.584  0.00  0.00    +0.000 HD
ENDBRANCH   2  16
BRANCH   3  18
ATOM     18  C   UNL     1       0.463   3.162  19.660  0.00  0.00    +0.000 C 
BRANCH  18  19
ATOM     19  C   UNL     1       1.079   2.451  18.448  0.00  0.00    +0.000 C 
BRANCH  19  20
ATOM     20  C   UNL     1       2.088   3.369  17.746  0.00  0.00    +0.000 C 
BRANCH  20  21
ATOM     21  N   UNL     1       3.359   2.716  17.388  0.00  0.00    +0.000 NA
ATOM     22  C   UNL     1       3.767   1.641  18.321  0.00  0.00    +0.000 C 
ATOM     23  C   UNL     1       4.264   2.142  19.688  0.00  0.00    +0.000 C 
ATOM     24  O   UNL     1       5.327   3.097  19.550  0.00  0.00    +0.000 OA
ATOM     25  C   UNL     1       4.924   4.193  18.720  0.00  0.00    +0.000 C 
ATOM     26  C   UNL     1       4.464   3.704  17.336  0.00  0.00    +0.000 C 
ENDBRANCH  20  21
ENDBRANCH  19  20
ENDBRANCH  18  19
ENDBRANCH   3  18
TORSDOF 8
ENDMDL
MODEL 2
REMARK VINA RESULT:      -6.4      2.918      8.143
REMARK  Name = 
REMARK  11 active torsions:
REMARK  status: ('A' for Active; 'I' for Inactive)
REMARK    1  A    between atoms: C_1  and  O_2
REMARK    2  A    between atoms: O_2  and  C_3
REMARK    3  A    between atoms: C_5  and  C_6
REMARK    4  A    between atoms: C_7  and  N_8
REMARK    5  A    between atoms: C_9  and  S_10
REMARK    6  A    between atoms: N_11  and  C_12
REMARK    7  A    between atoms: C_12  and  C_13
REMARK    8  A    between atoms: C_13  and  C_14
REMARK    9  A    between atoms: C_14  and  N_15
REMARK   10  A    between atoms: C_22  and  O_23
REMARK   11  A    between atoms: O_23  and  C_24
REMARK                            x       y       z     vdW  Elec       q    Type
REMARK                         _______ _______ _______ _____ _____    ______ ____
ROOT
ATOM      1  N   UNL     1       2.559   6.415  19.064  0.00  0.00    +0.000 N 
ATOM      2  C   UNL     1       2.066   7.702  19.113  0.00  0.00    +0.000 C 
ATOM      3  N   UNL     1       1.945   8.517  18.127  0.00  0.00    +0.000 NA
ATOM      4  H   UNL     1       2.715   6.026  19.979  0.00  0.00    +0.000 HD
ENDROOT
BRANCH   1   9
ATOM      5  C   UNL     1       5.354   4.674  16.363  0.00  0.00    +0.000 A 
ATOM      6  C   UNL     1       4.183   4.001  16.726  0.00  0.00    +0.000 A 
ATOM      7  C   UNL     1       3.201   4.605  17.536  0.00  0.00    +0.000 A 
ATOM      8  C   UNL     1       1.959   3.801  17.827  0.00  0.00    +0.000 C 
ATOM      9  C   UNL     1       3.443   5.881  18.091  0.00  0.00    +0.000 A 
ATOM     10  C   UNL     1       4.565   6.582  17.627  0.00  0.00    +0.000 A 
ATOM     11  C   UNL     1       5.510   6.002  16.766  0.00  0.00    +0.000 A 
BRANCH   5  13
ATOM     12  C   UNL     1       6.289   3.982  14.282  0.00  0.00    +0.000 C 
ATOM     13  O   UNL     1       6.387   4.077  15.694  0.00  0.00    +0.000 OA
ENDBRANCH   5  13
BRANCH  11  14
ATOM     14  O   UNL     1       6.558   6.834  16.455  0.00  0.00    +0.000 OA
ATOM     15  C   UNL     1       7.420   7.188  17.531  0.00  0.00    +0.000 C 
ENDBRANCH  11  14
ENDBRANCH   1   9
BRANCH   2  16
ATOM     16  S   UNL     1       1.612   8.152  20.764  0.00  0.00    +0.000 S 
ATOM     17  H   UNL     1       2.745   7.767  21.361  0.00  0.00    +0.000 HD
ENDBRANCH   2  16
BRANCH   3  18
ATOM     18  C   UNL     1       1.451   9.873  18.289  0.00  0.00    +0.000 C 
BRANCH  18  19
ATOM     19  C   UNL     1      -0.052   9.885  17.981  0.00  0.00    +0.000 C 
BRANCH  19  20
ATOM     20  C   UNL     1      -0.836  10.459  19.167  0.00  0.00    +0.000 C 
BRANCH  20  21
ATOM     21  N   UNL     1      -0.266  11.693  19.734  0.00  0.00    +0.000 NA
ATOM     22  C   UNL     1      -0.043  11.637  21.197  0.00  0.00    +0.000 C 
ATOM     23  C   UNL     1      -1.330  11.696  22.037  0.00  0.00    +0.000 C 
ATOM     24  O   UNL     1      -2.127  12.844  21.710  0.00  0.00    +0.000 OA
ATOM     25  C   UNL     1      -2.429  12.874  20.311  0.00  0.00    +0.000 C 
ATOM     26  C   UNL     1      -1.145  12.856  19.462  0.00  0.00    +0.000 C 
ENDBRANCH  20  21
ENDBRANCH  19  20
ENDBRANCH  18  19
ENDBRANCH   3  18
TORSDOF 8
ENDMDL
MODEL 3
REMARK VINA RESULT:      -6.4      1.587      2.133
REMARK  Name = 
REMARK  11 active torsions:
REMARK  status: ('A' for Active; 'I' for Inactive)
REMARK    1  A    between atoms: C_1  and  O_2
REMARK    2  A    between atoms: O_2  and  C_3
REMARK    3  A    between atoms: C_5  and  C_6
REMARK    4  A    between atoms: C_7  and  N_8
REMARK    5  A    between atoms: C_9  and  S_10
REMARK    6  A    between atoms: N_11  and  C_12
REMARK    7  A    between atoms: C_12  and  C_13
REMARK    8  A    between atoms: C_13  and  C_14
REMARK    9  A    between atoms: C_14  and  N_15
REMARK   10  A    between atoms: C_22  and  O_23
REMARK   11  A    between atoms: O_23  and  C_24
REMARK                            x       y       z     vdW  Elec       q    Type
REMARK                         _______ _______ _______ _____ _____    ______ ____
ROOT
ATOM      1  N   UNL     1       2.546   6.578  20.438  0.00  0.00    +0.000 N 
ATOM      2  C   UNL     1       2.388   5.334  19.864  0.00  0.00    +0.000 C 
ATOM      3  N   UNL     1       1.893   5.080  18.706  0.00  0.00    +0.000 NA
ATOM      4  H   UNL     1       2.799   6.524  21.412  0.00  0.00    +0.000 HD
ENDROOT
BRANCH   1   9
ATOM      5  C   UNL     1       0.573  10.264  19.630  0.00  0.00    +0.000 A 
ATOM      6  C   UNL     1       1.447   9.693  18.700  0.00  0.00    +0.000 A 
ATOM      7  C   UNL     1       2.027   8.425  18.909  0.00  0.00    +0.000 A 
ATOM      8  C   UNL     1       2.920   7.890  17.819  0.00  0.00    +0.000 C 
ATOM      9  C   UNL     1       1.814   7.754  20.133  0.00  0.00    +0.000 A 
ATOM     10  C   UNL     1       0.849   8.287  21.000  0.00  0.00    +0.000 A 
ATOM     11  C   UNL     1       0.222   9.520  20.759  0.00  0.00    +0.000 A 
BRANCH   5  13
ATOM     12  C   UNL     1       0.925  12.592  20.009  0.00  0.00    +0.000 C 
ATOM     13  O   UNL     1       0.099  11.543  19.528  0.00  0.00    +0.000 OA
ENDBRANCH   5  13
BRANCH  11  14
ATOM     14  O   UNL     1      -0.663   9.890  21.742  0.00  0.00    +0.000 OA
ATOM     15  C   UNL     1      -0.242   9.668  23.083  0.00  0.00    +0.000 C 
ENDBRANCH  11  14
ENDBRANCH   1   9
BRANCH   2  16
ATOM     16  S   UNL     1       2.944   4.051  20.950  0.00  0.00    +0.000 S 
ATOM     17  H   UNL     1       2.051   4.256  21.924  0.00  0.00    +0.000 HD
ENDBRANCH   2  16
BRANCH   3  18
ATOM     18  C   UNL     1       1.729   3.726  18.205  0.00  0.00    +0.000 C 
BRANCH  18  19
ATOM     19  C   UNL     1       2.626   3.550  16.973  0.00  0.00    +0.000 C 
BRANCH  19  20
ATOM     20  C   UNL     1       4.101   3.723  17.356  0.00  0.00    +0.000 C 
BRANCH  20  21
ATOM     21  N   UNL     1       4.703   4.989  16.903  0.00  0.00    +0.000 NA
ATOM     22  C   UNL     1       5.319   4.915  15.558  0.00  0.00    +0.000 C 
ATOM     23  C   UNL     1       6.636   4.123  15.506  0.00  0.00    +0.000 C 
ATOM     24  O   UNL     1       7.594   4.619  16.452  0.00  0.00    +0.000 OA
ATOM     25  C   UNL     1       7.050   4.618  17.777  0.00  0.00    +0.000 C 
ATOM     26  C   UNL     1       5.753   5.443  17.848  0.00  0.00    +0.000 C 
ENDBRANCH  20  21
ENDBRANCH  19  20
ENDBRANCH  18  19
ENDBRANCH   3  18
TORSDOF 8
ENDMDL
MODEL 4
REMARK VINA RESULT:      -6.3      1.095      1.392
REMARK  Name = 
REMARK  11 active torsions:
REMARK  status: ('A' for Active; 'I' for Inactive)
REMARK    1  A    between atoms: C_1  and  O_2
REMARK    2  A    between atoms: O_2  and  C_3
REMARK    3  A    between atoms: C_5  and  C_6
REMARK    4  A    between atoms: C_7  and  N_8
REMARK    5  A    between atoms: C_9  and  S_10
REMARK    6  A    between atoms: N_11  and  C_12
REMARK    7  A    between atoms: C_12  and  C_13
REMARK    8  A    between atoms: C_13  and  C_14
REMARK    9  A    between atoms: C_14  and  N_15
REMARK   10  A    between atoms: C_22  and  O_23
REMARK   11  A    between atoms: O_23  and  C_24
REMARK                            x       y       z     vdW  Elec       q    Type
REMARK                         _______ _______ _______ _____ _____    ______ ____
ROOT
ATOM      1  N   UNL     1       2.372   6.446  20.632  0.00  0.00    +0.000 N 
ATOM      2  C   UNL     1       2.024   5.164  20.264  0.00  0.00    +0.000 C 
ATOM      3  N   UNL     1       1.376   4.815  19.210  0.00  0.00    +0.000 NA
ATOM      4  H   UNL     1       2.728   6.495  21.572  0.00  0.00    +0.000 HD
ENDROOT
BRANCH   1   9
ATOM      5  C   UNL     1       0.679  10.199  19.542  0.00  0.00    +0.000 A 
ATOM      6  C   UNL     1       1.540   9.516  18.678  0.00  0.00    +0.000 A 
ATOM      7  C   UNL     1       2.025   8.228  18.981  0.00  0.00    +0.000 A 
ATOM      8  C   UNL     1       2.912   7.569  17.955  0.00  0.00    +0.000 C 
ATOM      9  C   UNL     1       1.730   7.647  20.233  0.00  0.00    +0.000 A 
ATOM     10  C   UNL     1       0.779   8.295  21.034  0.00  0.00    +0.000 A 
ATOM     11  C   UNL     1       0.245   9.550  20.700  0.00  0.00    +0.000 A 
BRANCH   5  13
ATOM     12  C   UNL     1      -0.833  11.736  18.522  0.00  0.00    +0.000 C 
ATOM     13  O   UNL     1       0.296  11.498  19.349  0.00  0.00    +0.000 OA
ENDBRANCH   5  13
BRANCH  11  14
ATOM     14  O   UNL     1      -0.642  10.037  21.629  0.00  0.00    +0.000 OA
ATOM     15  C   UNL     1      -0.371   9.712  22.988  0.00  0.00    +0.000 C 
ENDBRANCH  11  14
ENDBRANCH   1   9
BRANCH   2  16
ATOM     16  S   UNL     1       2.570   3.982  21.463  0.00  0.00    +0.000 S 
ATOM     17  H   UNL     1       2.407   4.752  22.545  0.00  0.00    +0.000 HD
ENDBRANCH   2  16
BRANCH   3  18
ATOM     18  C   UNL     1       1.021   3.435  18.931  0.00  0.00    +0.000 C 
BRANCH  18  19
ATOM     19  C   UNL     1       1.969   2.896  17.853  0.00  0.00    +0.000 C 
BRANCH  19  20
ATOM     20  C   UNL     1       3.019   3.952  17.488  0.00  0.00    +0.000 C 
BRANCH  20  21
ATOM     21  N   UNL     1       4.409   3.466  17.520  0.00  0.00    +0.000 NA
ATOM     22  C   UNL     1       5.146   3.829  18.752  0.00  0.00    +0.000 C 
ATOM     23  C   UNL     1       5.530   5.316  18.846  0.00  0.00    +0.000 C 
ATOM     24  O   UNL     1       6.267   5.749  17.693  0.00  0.00    +0.000 OA
ATOM     25  C   UNL     1       5.535   5.486  16.491  0.00  0.00    +0.000 C 
ATOM     26  C   UNL     1       5.180   3.994  16.368  0.00  0.00    +0.000 C 
ENDBRANCH  20  21
ENDBRANCH  19  20
ENDBRANCH  18  19
ENDBRANCH   3  18
TORSDOF 8
ENDMDL
MODEL 5
REMARK VINA RESULT:      -6.3      2.168      7.560
REMARK  Name = 
REMARK  11 active torsions:
REMARK  status: ('A' for Active; 'I' for Inactive)
REMARK    1  A    between atoms: C_1  and  O_2
REMARK    2  A    between atoms: O_2  and  C_3
REMARK    3  A    between atoms: C_5  and  C_6
REMARK    4  A    between atoms: C_7  and  N_8
REMARK    5  A    between atoms: C_9  and  S_10
REMARK    6  A    between atoms: N_11  and  C_12
REMARK    7  A    between atoms: C_12  and  C_13
REMARK    8  A    between atoms: C_13  and  C_14
REMARK    9  A    between atoms: C_14  and  N_15
REMARK   10  A    between atoms: C_22  and  O_23
REMARK   11  A    between atoms: O_23  and  C_24
REMARK                            x       y       z     vdW  Elec       q    Type
REMARK                         _______ _______ _______ _____ _____    ______ ____
ROOT
ATOM      1  N   UNL     1       3.611   3.285  19.480  0.00  0.00    +0.000 N 
ATOM      2  C   UNL     1       2.709   4.037  20.203  0.00  0.00    +0.000 C 
ATOM      3  N   UNL     1       2.211   5.173  19.866  0.00  0.00    +0.000 NA
ATOM      4  H   UNL     1       3.986   2.517  20.011  0.00  0.00    +0.000 HD
ENDROOT
BRANCH   1   9
ATOM      5  C   UNL     1       6.426   4.432  16.497  0.00  0.00    +0.000 A 
ATOM      6  C   UNL     1       5.127   4.044  16.154  0.00  0.00    +0.000 A 
ATOM      7  C   UNL     1       4.155   3.762  17.135  0.00  0.00    +0.000 A 
ATOM      8  C   UNL     1       2.775   3.396  16.650  0.00  0.00    +0.000 C 
ATOM      9  C   UNL     1       4.519   3.760  18.499  0.00  0.00    +0.000 A 
ATOM     10  C   UNL     1       5.788   4.259  18.826  0.00  0.00    +0.000 A 
ATOM     11  C   UNL     1       6.735   4.603  17.848  0.00  0.00    +0.000 A 
BRANCH   5  13
ATOM     12  C   UNL     1       7.062   4.812  14.230  0.00  0.00    +0.000 C 
ATOM     13  O   UNL     1       7.431   4.583  15.581  0.00  0.00    +0.000 OA
ENDBRANCH   5  13
BRANCH  11  14
ATOM     14  O   UNL     1       7.932   5.035  18.366  0.00  0.00    +0.000 OA
ATOM     15  C   UNL     1       7.863   5.746  19.598  0.00  0.00    +0.000 C 
ENDBRANCH  11  14
ENDBRANCH   1   9
BRANCH   2  16
ATOM     16  S   UNL     1       2.301   3.251  21.735  0.00  0.00    +0.000 S 
ATOM     17  H   UNL     1       3.495   3.391  22.320  0.00  0.00    +0.000 HD
ENDBRANCH   2  16
BRANCH   3  18
ATOM     18  C   UNL     1       1.296   5.910  20.720  0.00  0.00    +0.000 C 
BRANCH  18  19
ATOM     19  C   UNL     1       1.602   7.408  20.585  0.00  0.00    +0.000 C 
BRANCH  19  20
ATOM     20  C   UNL     1       0.523   8.239  21.289  0.00  0.00    +0.000 C 
BRANCH  20  21
ATOM     21  N   UNL     1       1.030   9.439  21.975  0.00  0.00    +0.000 NA
ATOM     22  C   UNL     1       0.372   9.715  23.273  0.00  0.00    +0.000 C 
ATOM     23  C   UNL     1      -1.070  10.238  23.154  0.00  0.00    +0.000 C 
ATOM     24  O   UNL     1      -1.147  11.399  22.313  0.00  0.00    +0.000 OA
ATOM     25  C   UNL     1      -0.594  11.130  21.020  0.00  0.00    +0.000 C 
ATOM     26  C   UNL     1       0.863  10.644  21.127  0.00  0.00    +0.000 C 
ENDBRANCH  20  21
ENDBRANCH  19  20
ENDBRANCH  18  19
ENDBRANCH   3  18
TORSDOF 8
ENDMDL
MODEL 6
REMARK VINA RESULT:      -6.3      2.964      8.226
REMARK  Name = 
REMARK  11 active torsions:
REMARK  status: ('A' for Active; 'I' for Inactive)
REMARK    1  A    between atoms: C_1  and  O_2
REMARK    2  A    between atoms: O_2  and  C_3
REMARK    3  A    between atoms: C_5  and  C_6
REMARK    4  A    between atoms: C_7  and  N_8
REMARK    5  A    between atoms: C_9  and  S_10
REMARK    6  A    between atoms: N_11  and  C_12
REMARK    7  A    between atoms: C_12  and  C_13
REMARK    8  A    between atoms: C_13  and  C_14
REMARK    9  A    between atoms: C_14  and  N_15
REMARK   10  A    between atoms: C_22  and  O_23
REMARK   11  A    between atoms: O_23  and  C_24
REMARK                            x       y       z     vdW  Elec       q    Type
REMARK                         _______ _______ _______ _____ _____    ______ ____
ROOT
ATOM      1  N   UNL     1       2.507   6.435  19.059  0.00  0.00    +0.000 N 
ATOM      2  C   UNL     1       2.056   7.737  19.121  0.00  0.00    +0.000 C 
ATOM      3  N   UNL     1       1.989   8.574  18.149  0.00  0.00    +0.000 NA
ATOM      4  H   UNL     1       2.626   6.024  19.971  0.00  0.00    +0.000 HD
ENDROOT
BRANCH   1   9
ATOM      5  C   UNL     1       5.318   4.662  16.397  0.00  0.00    +0.000 A 
ATOM      6  C   UNL     1       4.145   3.993  16.761  0.00  0.00    +0.000 A 
ATOM      7  C   UNL     1       3.158   4.607  17.558  0.00  0.00    +0.000 A 
ATOM      8  C   UNL     1       1.915   3.806  17.852  0.00  0.00    +0.000 C 
ATOM      9  C   UNL     1       3.396   5.890  18.098  0.00  0.00    +0.000 A 
ATOM     10  C   UNL     1       4.521   6.585  17.632  0.00  0.00    +0.000 A 
ATOM     11  C   UNL     1       5.472   5.995  16.785  0.00  0.00    +0.000 A 
BRANCH   5  13
ATOM     12  C   UNL     1       6.255   3.924  14.333  0.00  0.00    +0.000 C 
ATOM     13  O   UNL     1       6.355   4.057  15.742  0.00  0.00    +0.000 OA
ENDBRANCH   5  13
BRANCH  11  14
ATOM     14  O   UNL     1       6.521   6.823  16.470  0.00  0.00    +0.000 OA
ATOM     15  C   UNL     1       7.405   7.151  17.536  0.00  0.00    +0.000 C 
ENDBRANCH  11  14
ENDBRANCH   1   9
BRANCH   2  16
ATOM     16  S   UNL     1       1.576   8.172  20.769  0.00  0.00    +0.000 S 
ATOM     17  H   UNL     1       2.463   7.404  21.411  0.00  0.00    +0.000 HD
ENDBRANCH   2  16
BRANCH   3  18
ATOM     18  C   UNL     1       1.537   9.944  18.325  0.00  0.00    +0.000 C 
BRANCH  18  19
ATOM     19  C   UNL     1       0.012   9.979  18.159  0.00  0.00    +0.000 C 
BRANCH  19  20
ATOM     20  C   UNL     1      -0.540  11.347  18.580  0.00  0.00    +0.000 C 
BRANCH  20  21
ATOM     21  N   UNL     1      -1.469  11.303  19.722  0.00  0.00    +0.000 NA
ATOM     22  C   UNL     1      -2.344  12.493  19.831  0.00  0.00    +0.000 C 
ATOM     23  C   UNL     1      -1.625  13.768  20.304  0.00  0.00    +0.000 C 
ATOM     24  O   UNL     1      -0.930  13.560  21.542  0.00  0.00    +0.000 OA
ATOM     25  C   UNL     1      -0.011  12.466  21.433  0.00  0.00    +0.000 C 
ATOM     26  C   UNL     1      -0.729  11.176  21.001  0.00  0.00    +0.000 C 
ENDBRANCH  20  21
ENDBRANCH  19  20
ENDBRANCH  18  19
ENDBRANCH   3  18
TORSDOF 8
ENDMDL
MODEL 7
REMARK VINA RESULT:      -6.2      3.118      8.373
REMARK  Name = 
REMARK  11 active torsions:
REMARK  status: ('A' for Active; 'I' for Inactive)
REMARK    1  A    between atoms: C_1  and  O_2
REMARK    2  A    between atoms: O_2  and  C_3
REMARK    3  A    between atoms: C_5  and  C_6
REMARK    4  A    between atoms: C_7  and  N_8
REMARK    5  A    between atoms: C_9  and  S_10
REMARK    6  A    between atoms: N_11  and  C_12
REMARK    7  A    between atoms: C_12  and  C_13
REMARK    8  A    between atoms: C_13  and  C_14
REMARK    9  A    between atoms: C_14  and  N_15
REMARK   10  A    between atoms: C_22  and  O_23
REMARK   11  A    between atoms: O_23  and  C_24
REMARK                            x       y       z     vdW  Elec       q    Type
REMARK                         _______ _______ _______ _____ _____    ______ ____
ROOT
ATOM      1  N   UNL     1       2.651   6.240  18.964  0.00  0.00    +0.000 N 
ATOM      2  C   UNL     1       2.132   7.512  19.083  0.00  0.00    +0.000 C 
ATOM      3  N   UNL     1       2.022   8.388  18.150  0.00  0.00    +0.000 NA
ATOM      4  H   UNL     1       2.790   5.794  19.857  0.00  0.00    +0.000 HD
ENDROOT
BRANCH   1   9
ATOM      5  C   UNL     1       5.555   4.736  16.236  0.00  0.00    +0.000 A 
ATOM      6  C   UNL     1       4.407   4.001  16.548  0.00  0.00    +0.000 A 
ATOM      7  C   UNL     1       3.389   4.529  17.368  0.00  0.00    +0.000 A 
ATOM      8  C   UNL     1       2.177   3.663  17.601  0.00  0.00    +0.000 C 
ATOM      9  C   UNL     1       3.570   5.786  17.984  0.00  0.00    +0.000 A 
ATOM     10  C   UNL     1       4.670   6.552  17.570  0.00  0.00    +0.000 A 
ATOM     11  C   UNL     1       5.651   6.049  16.701  0.00  0.00    +0.000 A 
BRANCH   5  13
ATOM     12  C   UNL     1       6.504   4.074  14.151  0.00  0.00    +0.000 C 
ATOM     13  O   UNL     1       6.621   4.212  15.559  0.00  0.00    +0.000 OA
ENDBRANCH   5  13
BRANCH  11  14
ATOM     14  O   UNL     1       6.669   6.936  16.446  0.00  0.00    +0.000 OA
ATOM     15  C   UNL     1       7.481   7.298  17.557  0.00  0.00    +0.000 C 
ENDBRANCH  11  14
ENDBRANCH   1   9
BRANCH   2  16
ATOM     16  S   UNL     1       1.626   7.845  20.747  0.00  0.00    +0.000 S 
ATOM     17  H   UNL     1       2.087   9.098  20.816  0.00  0.00    +0.000 HD
ENDBRANCH   2  16
BRANCH   3  18
ATOM     18  C   UNL     1       1.498   9.722  18.386  0.00  0.00    +0.000 C 
BRANCH  18  19
ATOM     19  C   UNL     1       0.075   9.794  17.817  0.00  0.00    +0.000 C 
BRANCH  19  20
ATOM     20  C   UNL     1      -0.850  10.544  18.785  0.00  0.00    +0.000 C 
BRANCH  20  21
ATOM     21  N   UNL     1      -1.310  11.854  18.294  0.00  0.00    +0.000 NA
ATOM     22  C   UNL     1      -1.267  12.927  19.313  0.00  0.00    +0.000 C 
ATOM     23  C   UNL     1      -2.349  12.813  20.401  0.00  0.00    +0.000 C 
ATOM     24  O   UNL     1      -3.666  12.731  19.836  0.00  0.00    +0.000 OA
ATOM     25  C   UNL     1      -3.756  11.643  18.909  0.00  0.00    +0.000 C 
ATOM     26  C   UNL     1      -2.704  11.771  17.794  0.00  0.00    +0.000 C 
ENDBRANCH  20  21
ENDBRANCH  19  20
ENDBRANCH  18  19
ENDBRANCH   3  18
TORSDOF 8
ENDMDL
MODEL 8
REMARK VINA RESULT:      -6.2      2.275      7.515
REMARK  Name = 
REMARK  11 active torsions:
REMARK  status: ('A' for Active; 'I' for Inactive)
REMARK    1  A    between atoms: C_1  and  O_2
REMARK    2  A    between atoms: O_2  and  C_3
REMARK    3  A    between atoms: C_5  and  C_6
REMARK    4  A    between atoms: C_7  and  N_8
REMARK    5  A    between atoms: C_9  and  S_10
REMARK    6  A    between atoms: N_11  and  C_12
REMARK    7  A    between atoms: C_12  and  C_13
REMARK    8  A    between atoms: C_13  and  C_14
REMARK    9  A    between atoms: C_14  and  N_15
REMARK   10  A    between atoms: C_22  and  O_23
REMARK   11  A    between atoms: O_23  and  C_24
REMARK                            x       y       z     vdW  Elec       q    Type
REMARK                         _______ _______ _______ _____ _____    ______ ____
ROOT
ATOM      1  N   UNL     1       3.488   3.573  19.458  0.00  0.00    +0.000 N 
ATOM      2  C   UNL     1       2.700   4.401  20.229  0.00  0.00    +0.000 C 
ATOM      3  N   UNL     1       2.352   5.607  19.953  0.00  0.00    +0.000 NA
ATOM      4  H   UNL     1       3.764   2.737  19.947  0.00  0.00    +0.000 HD
ENDROOT
BRANCH   1   9
ATOM      5  C   UNL     1       6.446   4.489  16.535  0.00  0.00    +0.000 A 
ATOM      6  C   UNL     1       5.178   4.033  16.162  0.00  0.00    +0.000 A 
ATOM      7  C   UNL     1       4.156   3.825  17.111  0.00  0.00    +0.000 A 
ATOM      8  C   UNL     1       2.815   3.374  16.589  0.00  0.00    +0.000 C 
ATOM      9  C   UNL     1       4.441   3.971  18.486  0.00  0.00    +0.000 A 
ATOM     10  C   UNL     1       5.678   4.534  18.830  0.00  0.00    +0.000 A 
ATOM     11  C   UNL     1       6.672   4.803  17.877  0.00  0.00    +0.000 A 
BRANCH   5  13
ATOM     12  C   UNL     1       7.210   4.868  14.308  0.00  0.00    +0.000 C 
ATOM     13  O   UNL     1       7.499   4.573  15.666  0.00  0.00    +0.000 OA
ENDBRANCH   5  13
BRANCH  11  14
ATOM     14  O   UNL     1       7.827   5.317  18.414  0.00  0.00    +0.000 OA
ATOM     15  C   UNL     1       7.913   6.737  18.477  0.00  0.00    +0.000 C 
ENDBRANCH  11  14
ENDBRANCH   1   9
BRANCH   2  16
ATOM     16  S   UNL     1       2.206   3.602  21.730  0.00  0.00    +0.000 S 
ATOM     17  H   UNL     1       3.226   2.741  21.806  0.00  0.00    +0.000 HD
ENDBRANCH   2  16
BRANCH   3  18
ATOM     18  C   UNL     1       1.550   6.416  20.855  0.00  0.00    +0.000 C 
BRANCH  18  19
ATOM     19  C   UNL     1       1.631   7.879  20.399  0.00  0.00    +0.000 C 
BRANCH  19  20
ATOM     20  C   UNL     1       0.810   8.776  21.334  0.00  0.00    +0.000 C 
BRANCH  20  21
ATOM     21  N   UNL     1      -0.271   9.522  20.667  0.00  0.00    +0.000 NA
ATOM     22  C   UNL     1       0.099  10.057  19.336  0.00  0.00    +0.000 C 
ATOM     23  C   UNL     1       1.068  11.251  19.380  0.00  0.00    +0.000 C 
ATOM     24  O   UNL     1       0.569  12.311  20.209  0.00  0.00    +0.000 OA
ATOM     25  C   UNL     1       0.286  11.835  21.530  0.00  0.00    +0.000 C 
ATOM     26  C   UNL     1      -0.714  10.666  21.499  0.00  0.00    +0.000 C 
ENDBRANCH  20  21
ENDBRANCH  19  20
ENDBRANCH  18  19
ENDBRANCH   3  18
TORSDOF 8
ENDMDL
MODEL 9
REMARK VINA RESULT:      -6.2      3.062      8.321
REMARK  Name = 
REMARK  11 active torsions:
REMARK  status: ('A' for Active; 'I' for Inactive)
REMARK    1  A    between atoms: C_1  and  O_2
REMARK    2  A    between atoms: O_2  and  C_3
REMARK    3  A    between atoms: C_5  and  C_6
REMARK    4  A    between atoms: C_7  and  N_8
REMARK    5  A    between atoms: C_9  and  S_10
REMARK    6  A    between atoms: N_11  and  C_12
REMARK    7  A    between atoms: C_12  and  C_13
REMARK    8  A    between atoms: C_13  and  C_14
REMARK    9  A    between atoms: C_14  and  N_15
REMARK   10  A    between atoms: C_22  and  O_23
REMARK   11  A    between atoms: O_23  and  C_24
REMARK                            x       y       z     vdW  Elec       q    Type
REMARK                         _______ _______ _______ _____ _____    ______ ____
ROOT
ATOM      1  N   UNL     1       2.586   6.449  19.032  0.00  0.00    +0.000 N 
ATOM      2  C   UNL     1       1.977   7.686  19.013  0.00  0.00    +0.000 C 
ATOM      3  N   UNL     1       1.747   8.414  17.979  0.00  0.00    +0.000 NA
ATOM      4  H   UNL     1       2.810   6.143  19.965  0.00  0.00    +0.000 HD
ENDROOT
BRANCH   1   9
ATOM      5  C   UNL     1       5.413   4.746  16.340  0.00  0.00    +0.000 A 
ATOM      6  C   UNL     1       4.243   4.064  16.687  0.00  0.00    +0.000 A 
ATOM      7  C   UNL     1       3.250   4.657  17.493  0.00  0.00    +0.000 A 
ATOM      8  C   UNL     1       2.010   3.844  17.766  0.00  0.00    +0.000 C 
ATOM      9  C   UNL     1       3.481   5.928  18.062  0.00  0.00    +0.000 A 
ATOM     10  C   UNL     1       4.604   6.639  17.614  0.00  0.00    +0.000 A 
ATOM     11  C   UNL     1       5.560   6.071  16.757  0.00  0.00    +0.000 A 
BRANCH   5  13
ATOM     12  C   UNL     1       6.352   4.040  14.265  0.00  0.00    +0.000 C 
ATOM     13  O   UNL     1       6.455   4.160  15.676  0.00  0.00    +0.000 OA
ENDBRANCH   5  13
BRANCH  11  14
ATOM     14  O   UNL     1       6.606   6.911  16.463  0.00  0.00    +0.000 OA
ATOM     15  C   UNL     1       7.476   7.233  17.543  0.00  0.00    +0.000 C 
ENDBRANCH  11  14
ENDBRANCH   1   9
BRANCH   2  16
ATOM     16  S   UNL     1       1.542   8.212  20.646  0.00  0.00    +0.000 S 
ATOM     17  H   UNL     1       2.247   7.292  21.313  0.00  0.00    +0.000 HD
ENDBRANCH   2  16
BRANCH   3  18
ATOM     18  C   UNL     1       1.135   9.728  18.068  0.00  0.00    +0.000 C 
BRANCH  18  19
ATOM     19  C   UNL     1       2.243  10.787  18.016  0.00  0.00    +0.000 C 
BRANCH  19  20
ATOM     20  C   UNL     1       1.762  12.097  18.653  0.00  0.00    +0.000 C 
BRANCH  20  21
ATOM     21  N   UNL     1       0.402  12.036  19.214  0.00  0.00    +0.000 NA
ATOM     22  C   UNL     1      -0.523  13.051  18.660  0.00  0.00    +0.000 C 
ATOM     23  C   UNL     1      -0.252  14.487  19.141  0.00  0.00    +0.000 C 
ATOM     24  O   UNL     1      -0.237  14.574  20.573  0.00  0.00    +0.000 OA
ATOM     25  C   UNL     1       0.716  13.661  21.129  0.00  0.00    +0.000 C 
ATOM     26  C   UNL     1       0.429  12.216  20.686  0.00  0.00    +0.000 C 
ENDBRANCH  20  21
ENDBRANCH  19  20
ENDBRANCH  18  19
ENDBRANCH   3  18
TORSDOF 8
ENDMDL
