MODEL 1
REMARK VINA RESULT:      -6.9      0.000      0.000
REMARK  Name = 
REMARK  4 active torsions:
REMARK  status: ('A' for Active; 'I' for Inactive)
REMARK    1  A    between atoms: C_1  and  O_2
REMARK    2  A    between atoms: O_2  and  C_3
REMARK    3  A    between atoms: C_13  and  O_14
REMARK    4  A    between atoms: C_15  and  O_16
REMARK                            x       y       z     vdW  Elec       q    Type
REMARK                         _______ _______ _______ _____ _____    ______ ____
ROOT
ATOM      1  C   UNL     1       0.695  10.255  19.182  0.00  0.00    +0.000 C 
ATOM      2  C   UNL     1       0.393   9.567  20.291  0.00  0.00    +0.000 C 
ATOM      3  C   UNL     1       1.107   8.345  20.694  0.00  0.00    +0.000 C 
ATOM      4  O   UNL     1       0.988   7.971  21.853  0.00  0.00    +0.000 OA
ATOM      5  C   UNL     1       1.923   7.641  19.672  0.00  0.00    +0.000 A 
ATOM      6  C   UNL     1       2.274   8.368  18.529  0.00  0.00    +0.000 A 
ATOM      7  C   UNL     1       3.065   7.784  17.536  0.00  0.00    +0.000 A 
ATOM      8  C   UNL     1       3.486   6.465  17.667  0.00  0.00    +0.000 A 
ATOM      9  C   UNL     1       3.132   5.704  18.788  0.00  0.00    +0.000 A 
ATOM     10  C   UNL     1       3.563   4.367  18.868  0.00  0.00    +0.000 A 
ATOM     11  C   UNL     1       3.221   3.587  19.962  0.00  0.00    +0.000 A 
ATOM     12  C   UNL     1       2.449   4.124  20.978  0.00  0.00    +0.000 A 
ATOM     13  C   UNL     1       2.013   5.441  20.919  0.00  0.00    +0.000 A 
ATOM     14  C   UNL     1       2.340   6.281  19.824  0.00  0.00    +0.000 A 
ATOM     15  C   UNL     1       1.805   9.754  18.319  0.00  0.00    +0.000 C 
ATOM     16  O   UNL     1       2.295  10.445  17.431  0.00  0.00    +0.000 OA
ENDROOT
BRANCH   1  18
ATOM     17  C   UNL     1      -1.261  11.320  18.286  0.00  0.00    +0.000 C 
ATOM     18  O   UNL     1       0.077  11.416  18.762  0.00  0.00    +0.000 OA
ENDBRANCH   1  18
BRANCH  11  19
ATOM     19  O   UNL     1       3.614   2.284  20.082  0.00  0.00    +0.000 OA
ATOM     20  H   UNL     1       4.560   2.267  20.305  0.00  0.00    +0.000 HD
ENDBRANCH  11  19
BRANCH  12  21
ATOM     21  O   UNL     1       2.106   3.357  22.054  0.00  0.00    +0.000 OA
ATOM     22  H   UNL     1       2.697   2.580  22.006  0.00  0.00    +0.000 HD
ENDBRANCH  12  21
TORSDOF 3
ENDMDL
MODEL 2
REMARK VINA RESULT:      -6.9      5.175      5.559
REMARK  Name = 
REMARK  4 active torsions:
REMARK  status: ('A' for Active; 'I' for Inactive)
REMARK    1  A    between atoms: C_1  and  O_2
REMARK    2  A    between atoms: O_2  and  C_3
REMARK    3  A    between atoms: C_13  and  O_14
REMARK    4  A    between atoms: C_15  and  O_16
REMARK                            x       y       z     vdW  Elec       q    Type
REMARK                         _______ _______ _______ _____ _____    ______ ____
ROOT
ATOM      1  C   UNL     1       7.484   6.682  17.407  0.00  0.00    +0.000 C 
ATOM      2  C   UNL     1       7.211   6.414  18.691  0.00  0.00    +0.000 C 
ATOM      3  C   UNL     1       6.386   5.270  19.112  0.00  0.00    +0.000 C 
ATOM      4  O   UNL     1       6.452   4.920  20.283  0.00  0.00    +0.000 OA
ATOM      5  C   UNL     1       5.526   4.614  18.095  0.00  0.00    +0.000 A 
ATOM      6  C   UNL     1       5.832   4.860  16.751  0.00  0.00    +0.000 A 
ATOM      7  C   UNL     1       5.087   4.255  15.735  0.00  0.00    +0.000 A 
ATOM      8  C   UNL     1       4.017   3.425  16.055  0.00  0.00    +0.000 A 
ATOM      9  C   UNL     1       3.672   3.179  17.389  0.00  0.00    +0.000 A 
ATOM     10  C   UNL     1       2.570   2.349  17.666  0.00  0.00    +0.000 A 
ATOM     11  C   UNL     1       2.199   2.094  18.977  0.00  0.00    +0.000 A 
ATOM     12  C   UNL     1       2.914   2.659  20.019  0.00  0.00    +0.000 A 
ATOM     13  C   UNL     1       4.005   3.481  19.769  0.00  0.00    +0.000 A 
ATOM     14  C   UNL     1       4.427   3.769  18.446  0.00  0.00    +0.000 A 
ATOM     15  C   UNL     1       6.924   5.777  16.361  0.00  0.00    +0.000 C 
ATOM     16  O   UNL     1       7.319   5.811  15.200  0.00  0.00    +0.000 OA
ENDROOT
BRANCH   1  18
ATOM     17  C   UNL     1       8.215   8.953  17.669  0.00  0.00    +0.000 C 
ATOM     18  O   UNL     1       8.265   7.726  16.952  0.00  0.00    +0.000 OA
ENDBRANCH   1  18
BRANCH  11  19
ATOM     19  O   UNL     1       1.135   1.297  19.293  0.00  0.00    +0.000 OA
ATOM     20  H   UNL     1       0.454   1.846  19.717  0.00  0.00    +0.000 HD
ENDBRANCH  11  19
BRANCH  12  21
ATOM     21  O   UNL     1       2.548   2.413  21.311  0.00  0.00    +0.000 OA
ATOM     22  H   UNL     1       1.618   2.707  21.368  0.00  0.00    +0.000 HD
ENDBRANCH  12  21
TORSDOF 3
ENDMDL
MODEL 3
REMARK VINA RESULT:      -6.8      1.950      5.589
REMARK  Name = 
REMARK  4 active torsions:
REMARK  status: ('A' for Active; 'I' for Inactive)
REMARK    1  A    between atoms: C_1  and  O_2
REMARK    2  A    between atoms: O_2  and  C_3
REMARK    3  A    between atoms: C_13  and  O_14
REMARK    4  A    between atoms: C_15  and  O_16
REMARK                            x       y       z     vdW  Elec       q    Type
REMARK                         _______ _______ _______ _____ _____    ______ ____
ROOT
ATOM      1  C   UNL     1       4.494   5.264  18.583  0.00  0.00    +0.000 C 
ATOM      2  C   UNL     1       3.835   5.037  19.727  0.00  0.00    +0.000 C 
ATOM      3  C   UNL     1       2.641   5.799  20.128  0.00  0.00    +0.000 C 
ATOM      4  O   UNL     1       1.932   5.326  21.005  0.00  0.00    +0.000 OA
ATOM      5  C   UNL     1       2.373   7.091  19.447  0.00  0.00    +0.000 A 
ATOM      6  C   UNL     1       3.029   7.316  18.231  0.00  0.00    +0.000 A 
ATOM      7  C   UNL     1       2.805   8.495  17.516  0.00  0.00    +0.000 A 
ATOM      8  C   UNL     1       1.948   9.466  18.023  0.00  0.00    +0.000 A 
ATOM      9  C   UNL     1       1.296   9.281  19.248  0.00  0.00    +0.000 A 
ATOM     10  C   UNL     1       0.454  10.299  19.733  0.00  0.00    +0.000 A 
ATOM     11  C   UNL     1      -0.199  10.146  20.947  0.00  0.00    +0.000 A 
ATOM     12  C   UNL     1      -0.020   8.991  21.687  0.00  0.00    +0.000 A 
ATOM     13  C   UNL     1       0.807   7.973  21.227  0.00  0.00    +0.000 A 
ATOM     14  C   UNL     1       1.492   8.078  19.990  0.00  0.00    +0.000 A 
ATOM     15  C   UNL     1       3.991   6.338  17.678  0.00  0.00    +0.000 C 
ATOM     16  O   UNL     1       4.384   6.445  16.521  0.00  0.00    +0.000 OA
ENDROOT
BRANCH   1  18
ATOM     17  C   UNL     1       6.885   5.123  18.431  0.00  0.00    +0.000 C 
ATOM     18  O   UNL     1       5.606   4.572  18.144  0.00  0.00    +0.000 OA
ENDBRANCH   1  18
BRANCH  11  19
ATOM     19  O   UNL     1      -1.023  11.109  21.458  0.00  0.00    +0.000 OA
ATOM     20  H   UNL     1      -0.482  11.876  21.711  0.00  0.00    +0.000 HD
ENDBRANCH  11  19
BRANCH  12  21
ATOM     21  O   UNL     1      -0.657   8.840  22.885  0.00  0.00    +0.000 OA
ATOM     22  H   UNL     1      -1.535   8.474  22.657  0.00  0.00    +0.000 HD
ENDBRANCH  12  21
TORSDOF 3
ENDMDL
MODEL 4
REMARK VINA RESULT:      -6.6      3.740      6.505
REMARK  Name = 
REMARK  4 active torsions:
REMARK  status: ('A' for Active; 'I' for Inactive)
REMARK    1  A    between atoms: C_1  and  O_2
REMARK    2  A    between atoms: O_2  and  C_3
REMARK    3  A    between atoms: C_13  and  O_14
REMARK    4  A    between atoms: C_15  and  O_16
REMARK                            x       y       z     vdW  Elec       q    Type
REMARK                         _______ _______ _______ _____ _____    ______ ____
ROOT
ATOM      1  C   UNL     1       1.902   3.219  19.794  0.00  0.00    +0.000 C 
ATOM      2  C   UNL     1       2.322   2.317  18.897  0.00  0.00    +0.000 C 
ATOM      3  C   UNL     1       3.474   2.547  18.010  0.00  0.00    +0.000 C 
ATOM      4  O   UNL     1       3.976   1.574  17.463  0.00  0.00    +0.000 OA
ATOM      5  C   UNL     1       3.954   3.941  17.831  0.00  0.00    +0.000 A 
ATOM      6  C   UNL     1       3.549   4.879  18.789  0.00  0.00    +0.000 A 
ATOM      7  C   UNL     1       3.983   6.205  18.706  0.00  0.00    +0.000 A 
ATOM      8  C   UNL     1       4.800   6.606  17.654  0.00  0.00    +0.000 A 
ATOM      9  C   UNL     1       5.202   5.697  16.668  0.00  0.00    +0.000 A 
ATOM     10  C   UNL     1       6.011   6.152  15.611  0.00  0.00    +0.000 A 
ATOM     11  C   UNL     1       6.419   5.276  14.616  0.00  0.00    +0.000 A 
ATOM     12  C   UNL     1       6.026   3.950  14.660  0.00  0.00    +0.000 A 
ATOM     13  C   UNL     1       5.227   3.479  15.694  0.00  0.00    +0.000 A 
ATOM     14  C   UNL     1       4.788   4.334  16.738  0.00  0.00    +0.000 A 
ATOM     15  C   UNL     1       2.638   4.513  19.894  0.00  0.00    +0.000 C 
ATOM     16  O   UNL     1       2.471   5.280  20.837  0.00  0.00    +0.000 OA
ENDROOT
BRANCH   1  18
ATOM     17  C   UNL     1       1.115   2.480  21.938  0.00  0.00    +0.000 C 
ATOM     18  O   UNL     1       0.843   3.054  20.665  0.00  0.00    +0.000 OA
ENDBRANCH   1  18
BRANCH  11  19
ATOM     19  O   UNL     1       7.202   5.674  13.569  0.00  0.00    +0.000 OA
ATOM     20  H   UNL     1       6.901   5.214  12.767  0.00  0.00    +0.000 HD
ENDBRANCH  11  19
BRANCH  12  21
ATOM     21  O   UNL     1       6.421   3.086  13.679  0.00  0.00    +0.000 OA
ATOM     22  H   UNL     1       7.334   2.834  13.922  0.00  0.00    +0.000 HD
ENDBRANCH  12  21
TORSDOF 3
ENDMDL
MODEL 5
REMARK VINA RESULT:      -6.6      1.939      3.569
REMARK  Name = 
REMARK  4 active torsions:
REMARK  status: ('A' for Active; 'I' for Inactive)
REMARK    1  A    between atoms: C_1  and  O_2
REMARK    2  A    between atoms: O_2  and  C_3
REMARK    3  A    between atoms: C_13  and  O_14
REMARK    4  A    between atoms: C_15  and  O_16
REMARK                            x       y       z     vdW  Elec       q    Type
REMARK                         _______ _______ _______ _____ _____    ______ ____
ROOT
ATOM      1  C   UNL     1       0.706   9.883  20.320  0.00  0.00    +0.000 C 
ATOM      2  C   UNL     1       1.331  10.141  19.162  0.00  0.00    +0.000 C 
ATOM      3  C   UNL     1       1.954   9.092  18.339  0.00  0.00    +0.000 C 
ATOM      4  O   UNL     1       2.212   9.361  17.173  0.00  0.00    +0.000 OA
ATOM      5  C   UNL     1       2.235   7.778  18.971  0.00  0.00    +0.000 A 
ATOM      6  C   UNL     1       1.555   7.488  20.160  0.00  0.00    +0.000 A 
ATOM      7  C   UNL     1       1.743   6.260  20.799  0.00  0.00    +0.000 A 
ATOM      8  C   UNL     1       2.629   5.327  20.270  0.00  0.00    +0.000 A 
ATOM      9  C   UNL     1       3.341   5.598  19.095  0.00  0.00    +0.000 A 
ATOM     10  C   UNL     1       4.242   4.633  18.607  0.00  0.00    +0.000 A 
ATOM     11  C   UNL     1       4.967   4.877  17.451  0.00  0.00    +0.000 A 
ATOM     12  C   UNL     1       4.807   6.073  16.774  0.00  0.00    +0.000 A 
ATOM     13  C   UNL     1       3.923   7.039  17.238  0.00  0.00    +0.000 A 
ATOM     14  C   UNL     1       3.154   6.836  18.413  0.00  0.00    +0.000 A 
ATOM     15  C   UNL     1       0.645   8.468  20.791  0.00  0.00    +0.000 C 
ATOM     16  O   UNL     1      -0.103   8.122  21.699  0.00  0.00    +0.000 OA
ENDROOT
BRANCH   1  18
ATOM     17  C   UNL     1      -0.960  11.594  20.556  0.00  0.00    +0.000 C 
ATOM     18  O   UNL     1       0.087  10.818  21.125  0.00  0.00    +0.000 OA
ENDBRANCH   1  18
BRANCH  11  19
ATOM     19  O   UNL     1       5.856   3.972  16.942  0.00  0.00    +0.000 OA
ATOM     20  H   UNL     1       5.367   3.337  16.390  0.00  0.00    +0.000 HD
ENDBRANCH  11  19
BRANCH  12  21
ATOM     21  O   UNL     1       5.523   6.318  15.638  0.00  0.00    +0.000 OA
ATOM     22  H   UNL     1       6.031   7.130  15.833  0.00  0.00    +0.000 HD
ENDBRANCH  12  21
TORSDOF 3
ENDMDL
MODEL 6
REMARK VINA RESULT:      -6.6      1.482      6.479
REMARK  Name = 
REMARK  4 active torsions:
REMARK  status: ('A' for Active; 'I' for Inactive)
REMARK    1  A    between atoms: C_1  and  O_2
REMARK    2  A    between atoms: O_2  and  C_3
REMARK    3  A    between atoms: C_13  and  O_14
REMARK    4  A    between atoms: C_15  and  O_16
REMARK                            x       y       z     vdW  Elec       q    Type
REMARK                         _______ _______ _______ _____ _____    ______ ____
ROOT
ATOM      1  C   UNL     1       3.593   3.895  18.331  0.00  0.00    +0.000 C 
ATOM      2  C   UNL     1       3.912   4.856  17.453  0.00  0.00    +0.000 C 
ATOM      3  C   UNL     1       3.721   6.289  17.729  0.00  0.00    +0.000 C 
ATOM      4  O   UNL     1       4.322   7.090  17.026  0.00  0.00    +0.000 OA
ATOM      5  C   UNL     1       2.813   6.674  18.839  0.00  0.00    +0.000 A 
ATOM      6  C   UNL     1       2.508   5.685  19.781  0.00  0.00    +0.000 A 
ATOM      7  C   UNL     1       1.683   5.977  20.871  0.00  0.00    +0.000 A 
ATOM      8  C   UNL     1       1.139   7.250  21.011  0.00  0.00    +0.000 A 
ATOM      9  C   UNL     1       1.408   8.254  20.073  0.00  0.00    +0.000 A 
ATOM     10  C   UNL     1       0.819   9.521  20.243  0.00  0.00    +0.000 A 
ATOM     11  C   UNL     1       1.060  10.532  19.326  0.00  0.00    +0.000 A 
ATOM     12  C   UNL     1       1.880  10.295  18.237  0.00  0.00    +0.000 A 
ATOM     13  C   UNL     1       2.471   9.053  18.049  0.00  0.00    +0.000 A 
ATOM     14  C   UNL     1       2.260   7.987  18.961  0.00  0.00    +0.000 A 
ATOM     15  C   UNL     1       3.016   4.303  19.646  0.00  0.00    +0.000 C 
ATOM     16  O   UNL     1       2.924   3.515  20.582  0.00  0.00    +0.000 OA
ENDROOT
BRANCH   1  18
ATOM     17  C   UNL     1       2.620   1.767  17.795  0.00  0.00    +0.000 C 
ATOM     18  O   UNL     1       3.765   2.539  18.138  0.00  0.00    +0.000 OA
ENDBRANCH   1  18
BRANCH  11  19
ATOM     19  O   UNL     1       0.508  11.776  19.449  0.00  0.00    +0.000 OA
ATOM     20  H   UNL     1      -0.332  11.695  19.931  0.00  0.00    +0.000 HD
ENDBRANCH  11  19
BRANCH  12  21
ATOM     21  O   UNL     1       2.115  11.288  17.329  0.00  0.00    +0.000 OA
ATOM     22  H   UNL     1       2.507  12.016  17.850  0.00  0.00    +0.000 HD
ENDBRANCH  12  21
TORSDOF 3
ENDMDL
MODEL 7
REMARK VINA RESULT:      -6.5      3.537      4.954
REMARK  Name = 
REMARK  4 active torsions:
REMARK  status: ('A' for Active; 'I' for Inactive)
REMARK    1  A    between atoms: C_1  and  O_2
REMARK    2  A    between atoms: O_2  and  C_3
REMARK    3  A    between atoms: C_13  and  O_14
REMARK    4  A    between atoms: C_15  and  O_16
REMARK                            x       y       z     vdW  Elec       q    Type
REMARK                         _______ _______ _______ _____ _____    ______ ____
ROOT
ATOM      1  C   UNL     1       6.933   6.890  17.508  0.00  0.00    +0.000 C 
ATOM      2  C   UNL     1       7.207   5.977  18.450  0.00  0.00    +0.000 C 
ATOM      3  C   UNL     1       6.226   4.983  18.911  0.00  0.00    +0.000 C 
ATOM      4  O   UNL     1       6.645   4.008  19.521  0.00  0.00    +0.000 OA
ATOM      5  C   UNL     1       4.791   5.222  18.611  0.00  0.00    +0.000 A 
ATOM      6  C   UNL     1       4.500   6.146  17.600  0.00  0.00    +0.000 A 
ATOM      7  C   UNL     1       3.175   6.404  17.240  0.00  0.00    +0.000 A 
ATOM      8  C   UNL     1       2.135   5.762  17.904  0.00  0.00    +0.000 A 
ATOM      9  C   UNL     1       2.393   4.850  18.934  0.00  0.00    +0.000 A 
ATOM     10  C   UNL     1       1.309   4.240  19.592  0.00  0.00    +0.000 A 
ATOM     11  C   UNL     1       1.534   3.340  20.622  0.00  0.00    +0.000 A 
ATOM     12  C   UNL     1       2.829   3.041  21.007  0.00  0.00    +0.000 A 
ATOM     13  C   UNL     1       3.914   3.632  20.372  0.00  0.00    +0.000 A 
ATOM     14  C   UNL     1       3.737   4.555  19.310  0.00  0.00    +0.000 A 
ATOM     15  C   UNL     1       5.568   6.894  16.904  0.00  0.00    +0.000 C 
ATOM     16  O   UNL     1       5.316   7.527  15.884  0.00  0.00    +0.000 OA
ENDROOT
BRANCH   1  18
ATOM     17  C   UNL     1       8.093   8.965  17.838  0.00  0.00    +0.000 C 
ATOM     18  O   UNL     1       7.815   7.834  17.021  0.00  0.00    +0.000 OA
ENDBRANCH   1  18
BRANCH  11  19
ATOM     19  O   UNL     1       0.513   2.726  21.291  0.00  0.00    +0.000 OA
ATOM     20  H   UNL     1      -0.209   2.556  20.663  0.00  0.00    +0.000 HD
ENDBRANCH  11  19
BRANCH  12  21
ATOM     21  O   UNL     1       3.054   2.159  22.025  0.00  0.00    +0.000 OA
ATOM     22  H   UNL     1       2.681   2.592  22.818  0.00  0.00    +0.000 HD
ENDBRANCH  12  21
TORSDOF 3
ENDMDL
MODEL 8
REMARK VINA RESULT:      -6.4      9.305     11.037
REMARK  Name = 
REMARK  4 active torsions:
REMARK  status: ('A' for Active; 'I' for Inactive)
REMARK    1  A    between atoms: C_1  and  O_2
REMARK    2  A    between atoms: O_2  and  C_3
REMARK    3  A    between atoms: C_13  and  O_14
REMARK    4  A    between atoms: C_15  and  O_16
REMARK                            x       y       z     vdW  Elec       q    Type
REMARK                         _______ _______ _______ _____ _____    ______ ____
ROOT
ATOM      1  C   UNL     1       8.487  13.727  23.249  0.00  0.00    +0.000 C 
ATOM      2  C   UNL     1       8.860  14.840  22.604  0.00  0.00    +0.000 C 
ATOM      3  C   UNL     1       9.211  14.858  21.175  0.00  0.00    +0.000 C 
ATOM      4  O   UNL     1       9.226  15.941  20.605  0.00  0.00    +0.000 OA
ATOM      5  C   UNL     1       9.527  13.566  20.515  0.00  0.00    +0.000 A 
ATOM      6  C   UNL     1       9.105  12.401  21.165  0.00  0.00    +0.000 A 
ATOM      7  C   UNL     1       9.339  11.148  20.593  0.00  0.00    +0.000 A 
ATOM      8  C   UNL     1      10.019  11.051  19.383  0.00  0.00    +0.000 A 
ATOM      9  C   UNL     1      10.474  12.197  18.720  0.00  0.00    +0.000 A 
ATOM     10  C   UNL     1      11.175  12.049  17.509  0.00  0.00    +0.000 A 
ATOM     11  C   UNL     1      11.645  13.166  16.834  0.00  0.00    +0.000 A 
ATOM     12  C   UNL     1      11.427  14.430  17.354  0.00  0.00    +0.000 A 
ATOM     13  C   UNL     1      10.738  14.598  18.547  0.00  0.00    +0.000 A 
ATOM     14  C   UNL     1      10.233  13.489  19.273  0.00  0.00    +0.000 A 
ATOM     15  C   UNL     1       8.428  12.450  22.479  0.00  0.00    +0.000 C 
ATOM     16  O   UNL     1       7.874  11.451  22.927  0.00  0.00    +0.000 OA
ENDROOT
BRANCH   1  18
ATOM     17  C   UNL     1       7.043  14.457  25.022  0.00  0.00    +0.000 C 
ATOM     18  O   UNL     1       8.128  13.650  24.580  0.00  0.00    +0.000 OA
ENDBRANCH   1  18
BRANCH  11  19
ATOM     19  O   UNL     1      12.333  13.071  15.657  0.00  0.00    +0.000 OA
ATOM     20  H   UNL     1      13.158  12.584  15.820  0.00  0.00    +0.000 HD
ENDBRANCH  11  19
BRANCH  12  21
ATOM     21  O   UNL     1      11.893  15.530  16.694  0.00  0.00    +0.000 OA
ATOM     22  H   UNL     1      11.332  16.266  17.008  0.00  0.00    +0.000 HD
ENDBRANCH  12  21
TORSDOF 3
ENDMDL
MODEL 9
REMARK VINA RESULT:      -6.4      3.509      6.047
REMARK  Name = 
REMARK  4 active torsions:
REMARK  status: ('A' for Active; 'I' for Inactive)
REMARK    1  A    between atoms: C_1  and  O_2
REMARK    2  A    between atoms: O_2  and  C_3
REMARK    3  A    between atoms: C_13  and  O_14
REMARK    4  A    between atoms: C_15  and  O_16
REMARK                            x       y       z     vdW  Elec       q    Type
REMARK                         _______ _______ _______ _____ _____    ______ ____
ROOT
ATOM      1  C   UNL     1       1.542   3.851  20.274  0.00  0.00    +0.000 C 
ATOM      2  C   UNL     1       2.204   5.007  20.416  0.00  0.00    +0.000 C 
ATOM      3  C   UNL     1       3.058   5.575  19.361  0.00  0.00    +0.000 C 
ATOM      4  O   UNL     1       3.359   6.758  19.447  0.00  0.00    +0.000 OA
ATOM      5  C   UNL     1       3.503   4.681  18.262  0.00  0.00    +0.000 A 
ATOM      6  C   UNL     1       2.789   3.491  18.084  0.00  0.00    +0.000 A 
ATOM      7  C   UNL     1       3.129   2.611  17.052  0.00  0.00    +0.000 A 
ATOM      8  C   UNL     1       4.198   2.903  16.212  0.00  0.00    +0.000 A 
ATOM      9  C   UNL     1       4.945   4.075  16.379  0.00  0.00    +0.000 A 
ATOM     10  C   UNL     1       6.032   4.319  15.518  0.00  0.00    +0.000 A 
ATOM     11  C   UNL     1       6.795   5.467  15.665  0.00  0.00    +0.000 A 
ATOM     12  C   UNL     1       6.491   6.375  16.663  0.00  0.00    +0.000 A 
ATOM     13  C   UNL     1       5.424   6.154  17.524  0.00  0.00    +0.000 A 
ATOM     14  C   UNL     1       4.609   4.998  17.412  0.00  0.00    +0.000 A 
ATOM     15  C   UNL     1       1.681   3.110  18.986  0.00  0.00    +0.000 C 
ATOM     16  O   UNL     1       0.932   2.185  18.689  0.00  0.00    +0.000 OA
ENDROOT
BRANCH   1  18
ATOM     17  C   UNL     1       1.305   2.422  22.188  0.00  0.00    +0.000 C 
ATOM     18  O   UNL     1       0.713   3.277  21.217  0.00  0.00    +0.000 OA
ENDBRANCH   1  18
BRANCH  11  19
ATOM     19  O   UNL     1       7.860   5.744  14.855  0.00  0.00    +0.000 OA
ATOM     20  H   UNL     1       8.678   5.598  15.359  0.00  0.00    +0.000 HD
ENDBRANCH  11  19
BRANCH  12  21
ATOM     21  O   UNL     1       7.244   7.504  16.814  0.00  0.00    +0.000 OA
ATOM     22  H   UNL     1       8.142   7.179  17.020  0.00  0.00    +0.000 HD
ENDBRANCH  12  21
TORSDOF 3
ENDMDL
