MODEL 1
REMARK VINA RESULT:      -7.3      0.000      0.000
REMARK  Name = 
REMARK  16 active torsions:
REMARK  status: ('A' for Active; 'I' for Inactive)
REMARK    1  A    between atoms: C_1  and  C_2
REMARK    2  A    between atoms: C_2  and  N_3
REMARK    3  A    between atoms: N_3  and  C_4
REMARK    4  A    between atoms: C_4  and  C_5
REMARK    5  A    between atoms: C_6  and  C_8
REMARK    6  A    between atoms: C_11  and  O_12
REMARK    7  A    between atoms: O_12  and  C_13
REMARK    8  A    between atoms: C_13  and  C_14
REMARK    9  A    between atoms: C_14  and  N_15
REMARK   10  A    between atoms: N_15  and  C_16
REMARK   11  A    between atoms: N_15  and  C_17
REMARK   12  A    between atoms: C_17  and  C_18
REMARK   13  A    between atoms: C_18  and  C_19
REMARK   14  A    between atoms: C_22  and  N_23
REMARK   15  A    between atoms: N_23  and  S_24
REMARK   16  A    between atoms: S_24  and  C_25
REMARK                            x       y       z     vdW  Elec       q    Type
REMARK                         _______ _______ _______ _____ _____    ______ ____
ROOT
ATOM      1  C   UNL     1       1.386   3.737  19.146  0.00  0.00    +0.000 C 
ENDROOT
BRANCH   1   2
ATOM      2  N   UNL     1       1.024   4.111  20.530  0.00  0.00    +0.000 NA
ATOM      3  C   UNL     1       1.264   3.006  21.469  0.00  0.00    +0.000 C 
BRANCH   2   4
ATOM      4  C   UNL     1       1.777   5.301  20.986  0.00  0.00    +0.000 C 
BRANCH   4   5
ATOM      5  C   UNL     1       2.589   5.982  19.873  0.00  0.00    +0.000 C 
BRANCH   5   6
ATOM      6  C   UNL     1       2.079   7.367  19.554  0.00  0.00    +0.000 A 
ATOM      7  C   UNL     1       2.144   7.845  18.239  0.00  0.00    +0.000 A 
ATOM      8  C   UNL     1       1.638   9.104  17.918  0.00  0.00    +0.000 A 
ATOM      9  C   UNL     1       1.080   9.902  18.912  0.00  0.00    +0.000 A 
ATOM     10  C   UNL     1       1.022   9.446  20.231  0.00  0.00    +0.000 A 
ATOM     11  C   UNL     1       1.524   8.181  20.551  0.00  0.00    +0.000 A 
BRANCH   9  12
ATOM     12  N   UNL     1       0.541  11.167  18.545  0.00  0.00    +0.000 N 
ATOM     13  H   UNL     1       0.989  11.978  18.966  0.00  0.00    +0.000 HD
BRANCH  12  14
ATOM     14  S   UNL     1      -1.143  11.344  18.606  0.00  0.00    +0.000 S 
ATOM     15  C   UNL     1      -1.366  12.012  20.240  0.00  0.00    +0.000 C 
ATOM     16  O   UNL     1      -1.581  12.317  17.632  0.00  0.00    +0.000 OA
ATOM     17  O   UNL     1      -1.667   9.995  18.610  0.00  0.00    +0.000 OA
ENDBRANCH  12  14
ENDBRANCH   9  12
ENDBRANCH   5   6
ENDBRANCH   4   5
ENDBRANCH   2   4
ENDBRANCH   1   2
BRANCH   1  18
ATOM     18  C   UNL     1       1.081   2.275  18.800  0.00  0.00    +0.000 C 
BRANCH  18  19
ATOM     19  O   UNL     1       2.307   1.571  18.573  0.00  0.00    +0.000 OA
BRANCH  19  23
ATOM     20  C   UNL     1       5.558   4.132  18.045  0.00  0.00    +0.000 A 
ATOM     21  C   UNL     1       4.751   3.725  16.977  0.00  0.00    +0.000 A 
ATOM     22  C   UNL     1       3.641   2.908  17.198  0.00  0.00    +0.000 A 
ATOM     23  C   UNL     1       3.393   2.397  18.470  0.00  0.00    +0.000 A 
ATOM     24  C   UNL     1       4.230   2.750  19.532  0.00  0.00    +0.000 A 
ATOM     25  C   UNL     1       5.308   3.617  19.319  0.00  0.00    +0.000 A 
BRANCH  20  27
ATOM     26  N   UNL     1       6.536   6.382  17.465  0.00  0.00    +0.000 N 
ATOM     27  C   UNL     1       6.716   5.052  17.889  0.00  0.00    +0.000 C 
ATOM     28  O   UNL     1       7.830   4.601  18.179  0.00  0.00    +0.000 OA
BRANCH  26  30
ATOM     29  C   UNL     1       8.105   8.175  18.190  0.00  0.00    +0.000 C 
ATOM     30  C   UNL     1       7.755   7.130  17.141  0.00  0.00    +0.000 C 
ENDBRANCH  26  30
BRANCH  26  31
ATOM     31  C   UNL     1       5.235   6.975  17.141  0.00  0.00    +0.000 C 
ATOM     32  C   UNL     1       4.785   6.943  15.693  0.00  0.00    +0.000 C 
ENDBRANCH  26  31
ENDBRANCH  20  27
ENDBRANCH  19  23
ENDBRANCH  18  19
ENDBRANCH   1  18
TORSDOF 12
ENDMDL
MODEL 2
REMARK VINA RESULT:      -6.9      3.874      7.213
REMARK  Name = 
REMARK  16 active torsions:
REMARK  status: ('A' for Active; 'I' for Inactive)
REMARK    1  A    between atoms: C_1  and  C_2
REMARK    2  A    between atoms: C_2  and  N_3
REMARK    3  A    between atoms: N_3  and  C_4
REMARK    4  A    between atoms: C_4  and  C_5
REMARK    5  A    between atoms: C_6  and  C_8
REMARK    6  A    between atoms: C_11  and  O_12
REMARK    7  A    between atoms: O_12  and  C_13
REMARK    8  A    between atoms: C_13  and  C_14
REMARK    9  A    between atoms: C_14  and  N_15
REMARK   10  A    between atoms: N_15  and  C_16
REMARK   11  A    between atoms: N_15  and  C_17
REMARK   12  A    between atoms: C_17  and  C_18
REMARK   13  A    between atoms: C_18  and  C_19
REMARK   14  A    between atoms: C_22  and  N_23
REMARK   15  A    between atoms: N_23  and  S_24
REMARK   16  A    between atoms: S_24  and  C_25
REMARK                            x       y       z     vdW  Elec       q    Type
REMARK                         _______ _______ _______ _____ _____    ______ ____
ROOT
ATOM      1  C   UNL     1      -1.015  11.672  19.008  0.00  0.00    +0.000 C 
ENDROOT
BRANCH   1   2
ATOM      2  N   UNL     1      -0.017  12.700  19.376  0.00  0.00    +0.000 NA
ATOM      3  C   UNL     1      -0.153  13.906  18.548  0.00  0.00    +0.000 C 
BRANCH   2   4
ATOM      4  C   UNL     1      -0.131  13.080  20.802  0.00  0.00    +0.000 C 
BRANCH   4   5
ATOM      5  C   UNL     1      -0.850  12.032  21.666  0.00  0.00    +0.000 C 
BRANCH   5   6
ATOM      6  C   UNL     1      -2.087  12.586  22.331  0.00  0.00    +0.000 A 
ATOM      7  C   UNL     1      -2.769  13.660  21.743  0.00  0.00    +0.000 A 
ATOM      8  C   UNL     1      -3.937  14.156  22.319  0.00  0.00    +0.000 A 
ATOM      9  C   UNL     1      -4.423  13.596  23.497  0.00  0.00    +0.000 A 
ATOM     10  C   UNL     1      -3.745  12.536  24.104  0.00  0.00    +0.000 A 
ATOM     11  C   UNL     1      -2.577  12.034  23.522  0.00  0.00    +0.000 A 
BRANCH   9  12
ATOM     12  N   UNL     1      -5.637  14.102  24.041  0.00  0.00    +0.000 N 
ATOM     13  H   UNL     1      -5.648  14.235  25.050  0.00  0.00    +0.000 HD
BRANCH  12  14
ATOM     14  S   UNL     1      -7.080  13.370  23.540  0.00  0.00    +0.000 S 
ATOM     15  C   UNL     1      -7.766  14.631  22.490  0.00  0.00    +0.000 C 
ATOM     16  O   UNL     1      -6.799  12.194  22.749  0.00  0.00    +0.000 OA
ATOM     17  O   UNL     1      -7.901  13.298  24.730  0.00  0.00    +0.000 OA
ENDBRANCH  12  14
ENDBRANCH   9  12
ENDBRANCH   5   6
ENDBRANCH   4   5
ENDBRANCH   2   4
ENDBRANCH   1   2
BRANCH   1  18
ATOM     18  C   UNL     1      -0.448  10.248  18.968  0.00  0.00    +0.000 C 
BRANCH  18  19
ATOM     19  O   UNL     1       0.966  10.300  18.754  0.00  0.00    +0.000 OA
BRANCH  19  23
ATOM     20  C   UNL     1       2.950   6.642  19.042  0.00  0.00    +0.000 A 
ATOM     21  C   UNL     1       2.980   7.414  17.876  0.00  0.00    +0.000 A 
ATOM     22  C   UNL     1       2.347   8.657  17.832  0.00  0.00    +0.000 A 
ATOM     23  C   UNL     1       1.582   9.088  18.913  0.00  0.00    +0.000 A 
ATOM     24  C   UNL     1       1.497   8.295  20.060  0.00  0.00    +0.000 A 
ATOM     25  C   UNL     1       2.182   7.077  20.125  0.00  0.00    +0.000 A 
BRANCH  20  27
ATOM     26  N   UNL     1       2.952   4.123  19.149  0.00  0.00    +0.000 N 
ATOM     27  C   UNL     1       3.657   5.340  19.178  0.00  0.00    +0.000 C 
ATOM     28  O   UNL     1       4.888   5.383  19.286  0.00  0.00    +0.000 OA
BRANCH  26  30
ATOM     29  C   UNL     1       3.614   1.824  18.456  0.00  0.00    +0.000 C 
ATOM     30  C   UNL     1       3.715   2.922  19.505  0.00  0.00    +0.000 C 
ENDBRANCH  26  30
BRANCH  26  31
ATOM     31  C   UNL     1       1.498   4.016  18.991  0.00  0.00    +0.000 C 
ATOM     32  C   UNL     1       0.700   3.462  20.156  0.00  0.00    +0.000 C 
ENDBRANCH  26  31
ENDBRANCH  20  27
ENDBRANCH  19  23
ENDBRANCH  18  19
ENDBRANCH   1  18
TORSDOF 12
ENDMDL
MODEL 3
REMARK VINA RESULT:      -6.9      4.919      8.592
REMARK  Name = 
REMARK  16 active torsions:
REMARK  status: ('A' for Active; 'I' for Inactive)
REMARK    1  A    between atoms: C_1  and  C_2
REMARK    2  A    between atoms: C_2  and  N_3
REMARK    3  A    between atoms: N_3  and  C_4
REMARK    4  A    between atoms: C_4  and  C_5
REMARK    5  A    between atoms: C_6  and  C_8
REMARK    6  A    between atoms: C_11  and  O_12
REMARK    7  A    between atoms: O_12  and  C_13
REMARK    8  A    between atoms: C_13  and  C_14
REMARK    9  A    between atoms: C_14  and  N_15
REMARK   10  A    between atoms: N_15  and  C_16
REMARK   11  A    between atoms: N_15  and  C_17
REMARK   12  A    between atoms: C_17  and  C_18
REMARK   13  A    between atoms: C_18  and  C_19
REMARK   14  A    between atoms: C_22  and  N_23
REMARK   15  A    between atoms: N_23  and  S_24
REMARK   16  A    between atoms: S_24  and  C_25
REMARK                            x       y       z     vdW  Elec       q    Type
REMARK                         _______ _______ _______ _____ _____    ______ ____
ROOT
ATOM      1  C   UNL     1       7.485   7.105  17.721  0.00  0.00    +0.000 C 
ENDROOT
BRANCH   1   2
ATOM      2  N   UNL     1       7.094   6.665  16.363  0.00  0.00    +0.000 NA
ATOM      3  C   UNL     1       7.723   5.385  16.008  0.00  0.00    +0.000 C 
BRANCH   2   4
ATOM      4  C   UNL     1       5.626   6.530  16.239  0.00  0.00    +0.000 C 
BRANCH   4   5
ATOM      5  C   UNL     1       5.164   5.110  15.875  0.00  0.00    +0.000 C 
BRANCH   5   6
ATOM      6  C   UNL     1       4.538   4.392  17.046  0.00  0.00    +0.000 A 
ATOM      7  C   UNL     1       3.255   3.842  16.918  0.00  0.00    +0.000 A 
ATOM      8  C   UNL     1       2.679   3.138  17.974  0.00  0.00    +0.000 A 
ATOM      9  C   UNL     1       3.372   2.993  19.172  0.00  0.00    +0.000 A 
ATOM     10  C   UNL     1       4.645   3.549  19.321  0.00  0.00    +0.000 A 
ATOM     11  C   UNL     1       5.225   4.250  18.259  0.00  0.00    +0.000 A 
BRANCH   9  12
ATOM     12  N   UNL     1       2.771   2.238  20.218  0.00  0.00    +0.000 N 
ATOM     13  H   UNL     1       2.548   1.271  19.994  0.00  0.00    +0.000 HD
BRANCH  12  14
ATOM     14  S   UNL     1       1.478   2.949  21.049  0.00  0.00    +0.000 S 
ATOM     15  C   UNL     1       2.066   4.616  21.253  0.00  0.00    +0.000 C 
ATOM     16  O   UNL     1       0.294   2.961  20.221  0.00  0.00    +0.000 OA
ATOM     17  O   UNL     1       1.476   2.324  22.355  0.00  0.00    +0.000 OA
ENDBRANCH  12  14
ENDBRANCH   9  12
ENDBRANCH   5   6
ENDBRANCH   4   5
ENDBRANCH   2   4
ENDBRANCH   1   2
BRANCH   1  18
ATOM     18  C   UNL     1       7.926   8.571  17.792  0.00  0.00    +0.000 C 
BRANCH  18  19
ATOM     19  O   UNL     1       8.762   8.765  18.937  0.00  0.00    +0.000 OA
BRANCH  19  23
ATOM     20  C   UNL     1      10.145  12.698  19.097  0.00  0.00    +0.000 A 
ATOM     21  C   UNL     1      10.079  11.981  17.897  0.00  0.00    +0.000 A 
ATOM     22  C   UNL     1       9.563  10.684  17.873  0.00  0.00    +0.000 A 
ATOM     23  C   UNL     1       9.216  10.050  19.064  0.00  0.00    +0.000 A 
ATOM     24  C   UNL     1       9.336  10.738  20.274  0.00  0.00    +0.000 A 
ATOM     25  C   UNL     1       9.797  12.059  20.289  0.00  0.00    +0.000 A 
BRANCH  20  27
ATOM     26  N   UNL     1       9.718  15.181  19.179  0.00  0.00    +0.000 N 
ATOM     27  C   UNL     1      10.623  14.104  19.183  0.00  0.00    +0.000 C 
ATOM     28  O   UNL     1      11.843  14.272  19.288  0.00  0.00    +0.000 OA
BRANCH  26  30
ATOM     29  C   UNL     1       9.506  17.428  18.125  0.00  0.00    +0.000 C 
ATOM     30  C   UNL     1      10.303  16.520  19.051  0.00  0.00    +0.000 C 
ENDBRANCH  26  30
BRANCH  26  31
ATOM     31  C   UNL     1       8.261  15.034  19.090  0.00  0.00    +0.000 C 
ATOM     32  C   UNL     1       7.461  15.146  20.373  0.00  0.00    +0.000 C 
ENDBRANCH  26  31
ENDBRANCH  20  27
ENDBRANCH  19  23
ENDBRANCH  18  19
ENDBRANCH   1  18
TORSDOF 12
ENDMDL
MODEL 4
REMARK VINA RESULT:      -6.7      5.600      8.326
REMARK  Name = 
REMARK  16 active torsions:
REMARK  status: ('A' for Active; 'I' for Inactive)
REMARK    1  A    between atoms: C_1  and  C_2
REMARK    2  A    between atoms: C_2  and  N_3
REMARK    3  A    between atoms: N_3  and  C_4
REMARK    4  A    between atoms: C_4  and  C_5
REMARK    5  A    between atoms: C_6  and  C_8
REMARK    6  A    between atoms: C_11  and  O_12
REMARK    7  A    between atoms: O_12  and  C_13
REMARK    8  A    between atoms: C_13  and  C_14
REMARK    9  A    between atoms: C_14  and  N_15
REMARK   10  A    between atoms: N_15  and  C_16
REMARK   11  A    between atoms: N_15  and  C_17
REMARK   12  A    between atoms: C_17  and  C_18
REMARK   13  A    between atoms: C_18  and  C_19
REMARK   14  A    between atoms: C_22  and  N_23
REMARK   15  A    between atoms: N_23  and  S_24
REMARK   16  A    between atoms: S_24  and  C_25
REMARK                            x       y       z     vdW  Elec       q    Type
REMARK                         _______ _______ _______ _____ _____    ______ ____
ROOT
ATOM      1  C   UNL     1       9.186   9.985  19.273  0.00  0.00    +0.000 C 
ENDROOT
BRANCH   1   2
ATOM      2  N   UNL     1       9.799  11.242  18.790  0.00  0.00    +0.000 NA
ATOM      3  C   UNL     1       8.844  12.045  18.013  0.00  0.00    +0.000 C 
BRANCH   2   4
ATOM      4  C   UNL     1      10.316  12.059  19.910  0.00  0.00    +0.000 C 
BRANCH   4   5
ATOM      5  C   UNL     1       9.391  13.222  20.304  0.00  0.00    +0.000 C 
BRANCH   5   6
ATOM      6  C   UNL     1       8.902  13.110  21.728  0.00  0.00    +0.000 A 
ATOM      7  C   UNL     1       8.999  14.216  22.584  0.00  0.00    +0.000 A 
ATOM      8  C   UNL     1       8.512  14.145  23.888  0.00  0.00    +0.000 A 
ATOM      9  C   UNL     1       7.944  12.963  24.354  0.00  0.00    +0.000 A 
ATOM     10  C   UNL     1       7.855  11.847  23.518  0.00  0.00    +0.000 A 
ATOM     11  C   UNL     1       8.337  11.922  22.208  0.00  0.00    +0.000 A 
BRANCH   9  12
ATOM     12  N   UNL     1       7.425  12.934  25.679  0.00  0.00    +0.000 N 
ATOM     13  H   UNL     1       7.644  12.101  26.222  0.00  0.00    +0.000 HD
BRANCH  12  14
ATOM     14  S   UNL     1       5.795  13.345  25.888  0.00  0.00    +0.000 S 
ATOM     15  C   UNL     1       5.932  14.934  26.676  0.00  0.00    +0.000 C 
ATOM     16  O   UNL     1       5.149  13.506  24.605  0.00  0.00    +0.000 OA
ATOM     17  O   UNL     1       5.291  12.411  26.872  0.00  0.00    +0.000 OA
ENDBRANCH  12  14
ENDBRANCH   9  12
ENDBRANCH   5   6
ENDBRANCH   4   5
ENDBRANCH   2   4
ENDBRANCH   1   2
BRANCH   1  18
ATOM     18  C   UNL     1       8.397   9.229  18.198  0.00  0.00    +0.000 C 
BRANCH  18  19
ATOM     19  O   UNL     1       8.598   7.821  18.358  0.00  0.00    +0.000 OA
BRANCH  19  23
ATOM     20  C   UNL     1       5.233   5.431  17.750  0.00  0.00    +0.000 A 
ATOM     21  C   UNL     1       6.264   5.057  18.619  0.00  0.00    +0.000 A 
ATOM     22  C   UNL     1       7.351   5.905  18.837  0.00  0.00    +0.000 A 
ATOM     23  C   UNL     1       7.475   7.082  18.102  0.00  0.00    +0.000 A 
ATOM     24  C   UNL     1       6.479   7.434  17.187  0.00  0.00    +0.000 A 
ATOM     25  C   UNL     1       5.360   6.612  17.014  0.00  0.00    +0.000 A 
BRANCH  20  27
ATOM     26  N   UNL     1       2.914   4.678  18.394  0.00  0.00    +0.000 N 
ATOM     27  C   UNL     1       4.017   4.606  17.523  0.00  0.00    +0.000 C 
ATOM     28  O   UNL     1       4.013   3.883  16.519  0.00  0.00    +0.000 OA
BRANCH  26  30
ATOM     29  C   UNL     1       2.237   2.312  18.771  0.00  0.00    +0.000 C 
ATOM     30  C   UNL     1       1.865   3.672  18.199  0.00  0.00    +0.000 C 
ENDBRANCH  26  30
BRANCH  26  31
ATOM     31  C   UNL     1       2.855   5.543  19.578  0.00  0.00    +0.000 C 
ATOM     32  C   UNL     1       1.769   5.265  20.600  0.00  0.00    +0.000 C 
ENDBRANCH  26  31
ENDBRANCH  20  27
ENDBRANCH  19  23
ENDBRANCH  18  19
ENDBRANCH   1  18
TORSDOF 12
ENDMDL
MODEL 5
REMARK VINA RESULT:      -6.7      1.315      1.791
REMARK  Name = 
REMARK  16 active torsions:
REMARK  status: ('A' for Active; 'I' for Inactive)
REMARK    1  A    between atoms: C_1  and  C_2
REMARK    2  A    between atoms: C_2  and  N_3
REMARK    3  A    between atoms: N_3  and  C_4
REMARK    4  A    between atoms: C_4  and  C_5
REMARK    5  A    between atoms: C_6  and  C_8
REMARK    6  A    between atoms: C_11  and  O_12
REMARK    7  A    between atoms: O_12  and  C_13
REMARK    8  A    between atoms: C_13  and  C_14
REMARK    9  A    between atoms: C_14  and  N_15
REMARK   10  A    between atoms: N_15  and  C_16
REMARK   11  A    between atoms: N_15  and  C_17
REMARK   12  A    between atoms: C_17  and  C_18
REMARK   13  A    between atoms: C_18  and  C_19
REMARK   14  A    between atoms: C_22  and  N_23
REMARK   15  A    between atoms: N_23  and  S_24
REMARK   16  A    between atoms: S_24  and  C_25
REMARK                            x       y       z     vdW  Elec       q    Type
REMARK                         _______ _______ _______ _____ _____    ______ ____
ROOT
ATOM      1  C   UNL     1       0.774   2.422  19.947  0.00  0.00    +0.000 C 
ENDROOT
BRANCH   1   2
ATOM      2  N   UNL     1       1.087   3.446  20.967  0.00  0.00    +0.000 NA
ATOM      3  C   UNL     1       2.471   3.325  21.448  0.00  0.00    +0.000 C 
BRANCH   2   4
ATOM      4  C   UNL     1       0.878   4.814  20.444  0.00  0.00    +0.000 C 
BRANCH   4   5
ATOM      5  C   UNL     1       1.989   5.802  20.835  0.00  0.00    +0.000 C 
BRANCH   5   6
ATOM      6  C   UNL     1       1.617   7.234  20.532  0.00  0.00    +0.000 A 
ATOM      7  C   UNL     1       2.034   7.820  19.329  0.00  0.00    +0.000 A 
ATOM      8  C   UNL     1       1.663   9.126  19.013  0.00  0.00    +0.000 A 
ATOM      9  C   UNL     1       0.890   9.864  19.905  0.00  0.00    +0.000 A 
ATOM     10  C   UNL     1       0.481   9.299  21.116  0.00  0.00    +0.000 A 
ATOM     11  C   UNL     1       0.848   7.987  21.429  0.00  0.00    +0.000 A 
BRANCH   9  12
ATOM     12  N   UNL     1       0.500  11.182  19.537  0.00  0.00    +0.000 N 
ATOM     13  H   UNL     1       0.765  11.919  20.186  0.00  0.00    +0.000 HD
BRANCH  12  14
ATOM     14  S   UNL     1      -1.101  11.408  19.032  0.00  0.00    +0.000 S 
ATOM     15  C   UNL     1      -1.855  12.020  20.523  0.00  0.00    +0.000 C 
ATOM     16  O   UNL     1      -1.167  12.431  18.013  0.00  0.00    +0.000 OA
ATOM     17  O   UNL     1      -1.617  10.077  18.796  0.00  0.00    +0.000 OA
ENDBRANCH  12  14
ENDBRANCH   9  12
ENDBRANCH   5   6
ENDBRANCH   4   5
ENDBRANCH   2   4
ENDBRANCH   1   2
BRANCH   1  18
ATOM     18  C   UNL     1       0.788   2.955  18.510  0.00  0.00    +0.000 C 
BRANCH  18  19
ATOM     19  O   UNL     1       1.848   2.331  17.777  0.00  0.00    +0.000 OA
BRANCH  19  23
ATOM     20  C   UNL     1       4.761   5.148  16.786  0.00  0.00    +0.000 A 
ATOM     21  C   UNL     1       3.543   5.512  17.370  0.00  0.00    +0.000 A 
ATOM     22  C   UNL     1       2.613   4.538  17.735  0.00  0.00    +0.000 A 
ATOM     23  C   UNL     1       2.841   3.202  17.416  0.00  0.00    +0.000 A 
ATOM     24  C   UNL     1       4.029   2.836  16.778  0.00  0.00    +0.000 A 
ATOM     25  C   UNL     1       4.987   3.807  16.466  0.00  0.00    +0.000 A 
BRANCH  20  27
ATOM     26  N   UNL     1       7.031   6.183  17.151  0.00  0.00    +0.000 N 
ATOM     27  C   UNL     1       5.823   6.128  16.433  0.00  0.00    +0.000 C 
ATOM     28  O   UNL     1       5.602   6.864  15.464  0.00  0.00    +0.000 OA
BRANCH  26  30
ATOM     29  C   UNL     1       7.687   8.497  17.797  0.00  0.00    +0.000 C 
ATOM     30  C   UNL     1       7.910   7.320  16.858  0.00  0.00    +0.000 C 
ENDBRANCH  26  30
BRANCH  26  31
ATOM     31  C   UNL     1       7.356   5.311  18.286  0.00  0.00    +0.000 C 
ATOM     32  C   UNL     1       6.460   5.380  19.507  0.00  0.00    +0.000 C 
ENDBRANCH  26  31
ENDBRANCH  20  27
ENDBRANCH  19  23
ENDBRANCH  18  19
ENDBRANCH   1  18
TORSDOF 12
ENDMDL
MODEL 6
REMARK VINA RESULT:      -6.7      4.899      7.818
REMARK  Name = 
REMARK  16 active torsions:
REMARK  status: ('A' for Active; 'I' for Inactive)
REMARK    1  A    between atoms: C_1  and  C_2
REMARK    2  A    between atoms: C_2  and  N_3
REMARK    3  A    between atoms: N_3  and  C_4
REMARK    4  A    between atoms: C_4  and  C_5
REMARK    5  A    between atoms: C_6  and  C_8
REMARK    6  A    between atoms: C_11  and  O_12
REMARK    7  A    between atoms: O_12  and  C_13
REMARK    8  A    between atoms: C_13  and  C_14
REMARK    9  A    between atoms: C_14  and  N_15
REMARK   10  A    between atoms: N_15  and  C_16
REMARK   11  A    between atoms: N_15  and  C_17
REMARK   12  A    between atoms: C_17  and  C_18
REMARK   13  A    between atoms: C_18  and  C_19
REMARK   14  A    between atoms: C_22  and  N_23
REMARK   15  A    between atoms: N_23  and  S_24
REMARK   16  A    between atoms: S_24  and  C_25
REMARK                            x       y       z     vdW  Elec       q    Type
REMARK                         _______ _______ _______ _____ _____    ______ ____
ROOT
ATOM      1  C   UNL     1       8.647  10.106  17.839  0.00  0.00    +0.000 C 
ENDROOT
BRANCH   1   2
ATOM      2  N   UNL     1       9.907  10.523  18.492  0.00  0.00    +0.000 NA
ATOM      3  C   UNL     1      10.424  11.774  17.919  0.00  0.00    +0.000 C 
BRANCH   2   4
ATOM      4  C   UNL     1       9.730  10.699  19.951  0.00  0.00    +0.000 C 
BRANCH   4   5
ATOM      5  C   UNL     1      10.299  12.023  20.487  0.00  0.00    +0.000 C 
BRANCH   5   6
ATOM      6  C   UNL     1       9.234  12.899  21.102  0.00  0.00    +0.000 A 
ATOM      7  C   UNL     1       8.929  12.769  22.463  0.00  0.00    +0.000 A 
ATOM      8  C   UNL     1       7.980  13.599  23.058  0.00  0.00    +0.000 A 
ATOM      9  C   UNL     1       7.315  14.553  22.293  0.00  0.00    +0.000 A 
ATOM     10  C   UNL     1       7.597  14.684  20.931  0.00  0.00    +0.000 A 
ATOM     11  C   UNL     1       8.554  13.855  20.337  0.00  0.00    +0.000 A 
BRANCH   9  12
ATOM     12  N   UNL     1       6.378  15.408  22.937  0.00  0.00    +0.000 N 
ATOM     13  H   UNL     1       6.723  15.906  23.755  0.00  0.00    +0.000 HD
BRANCH  12  14
ATOM     14  S   UNL     1       4.837  14.780  23.254  0.00  0.00    +0.000 S 
ATOM     15  C   UNL     1       3.838  16.249  23.184  0.00  0.00    +0.000 C 
ATOM     16  O   UNL     1       4.434  13.880  22.197  0.00  0.00    +0.000 OA
ATOM     17  O   UNL     1       4.881  14.346  24.634  0.00  0.00    +0.000 OA
ENDBRANCH  12  14
ENDBRANCH   9  12
ENDBRANCH   5   6
ENDBRANCH   4   5
ENDBRANCH   2   4
ENDBRANCH   1   2
BRANCH   1  18
ATOM     18  C   UNL     1       8.153   8.722  18.276  0.00  0.00    +0.000 C 
BRANCH  18  19
ATOM     19  O   UNL     1       7.813   7.948  17.120  0.00  0.00    +0.000 OA
BRANCH  19  23
ATOM     20  C   UNL     1       5.048   4.904  17.819  0.00  0.00    +0.000 A 
ATOM     21  C   UNL     1       4.701   6.086  17.155  0.00  0.00    +0.000 A 
ATOM     22  C   UNL     1       5.664   7.061  16.894  0.00  0.00    +0.000 A 
ATOM     23  C   UNL     1       6.956   6.916  17.394  0.00  0.00    +0.000 A 
ATOM     24  C   UNL     1       7.296   5.766  18.110  0.00  0.00    +0.000 A 
ATOM     25  C   UNL     1       6.344   4.762  18.320  0.00  0.00    +0.000 A 
BRANCH  20  27
ATOM     26  N   UNL     1       3.208   3.833  19.171  0.00  0.00    +0.000 N 
ATOM     27  C   UNL     1       4.087   3.797  18.072  0.00  0.00    +0.000 C 
ATOM     28  O   UNL     1       4.080   2.868  17.257  0.00  0.00    +0.000 OA
BRANCH  26  30
ATOM     29  C   UNL     1       1.016   2.668  18.972  0.00  0.00    +0.000 C 
ATOM     30  C   UNL     1       2.461   2.601  19.445  0.00  0.00    +0.000 C 
ENDBRANCH  26  30
BRANCH  26  31
ATOM     31  C   UNL     1       3.154   4.926  20.147  0.00  0.00    +0.000 C 
ATOM     32  C   UNL     1       2.110   6.007  19.939  0.00  0.00    +0.000 C 
ENDBRANCH  26  31
ENDBRANCH  20  27
ENDBRANCH  19  23
ENDBRANCH  18  19
ENDBRANCH   1  18
TORSDOF 12
ENDMDL
MODEL 7
REMARK VINA RESULT:      -6.7      5.516      8.082
REMARK  Name = 
REMARK  16 active torsions:
REMARK  status: ('A' for Active; 'I' for Inactive)
REMARK    1  A    between atoms: C_1  and  C_2
REMARK    2  A    between atoms: C_2  and  N_3
REMARK    3  A    between atoms: N_3  and  C_4
REMARK    4  A    between atoms: C_4  and  C_5
REMARK    5  A    between atoms: C_6  and  C_8
REMARK    6  A    between atoms: C_11  and  O_12
REMARK    7  A    between atoms: O_12  and  C_13
REMARK    8  A    between atoms: C_13  and  C_14
REMARK    9  A    between atoms: C_14  and  N_15
REMARK   10  A    between atoms: N_15  and  C_16
REMARK   11  A    between atoms: N_15  and  C_17
REMARK   12  A    between atoms: C_17  and  C_18
REMARK   13  A    between atoms: C_18  and  C_19
REMARK   14  A    between atoms: C_22  and  N_23
REMARK   15  A    between atoms: N_23  and  S_24
REMARK   16  A    between atoms: S_24  and  C_25
REMARK                            x       y       z     vdW  Elec       q    Type
REMARK                         _______ _______ _______ _____ _____    ______ ____
ROOT
ATOM      1  C   UNL     1       8.977   9.030  18.703  0.00  0.00    +0.000 C 
ENDROOT
BRANCH   1   2
ATOM      2  N   UNL     1       9.461  10.397  18.996  0.00  0.00    +0.000 NA
ATOM      3  C   UNL     1       8.828  11.394  18.120  0.00  0.00    +0.000 C 
BRANCH   2   4
ATOM      4  C   UNL     1       9.213  10.770  20.406  0.00  0.00    +0.000 C 
BRANCH   4   5
ATOM      5  C   UNL     1       9.437  12.262  20.700  0.00  0.00    +0.000 C 
BRANCH   5   6
ATOM      6  C   UNL     1       8.850  12.682  22.026  0.00  0.00    +0.000 A 
ATOM      7  C   UNL     1       8.294  11.715  22.875  0.00  0.00    +0.000 A 
ATOM      8  C   UNL     1       7.786  12.078  24.122  0.00  0.00    +0.000 A 
ATOM      9  C   UNL     1       7.814  13.410  24.522  0.00  0.00    +0.000 A 
ATOM     10  C   UNL     1       8.350  14.387  23.680  0.00  0.00    +0.000 A 
ATOM     11  C   UNL     1       8.864  14.022  22.432  0.00  0.00    +0.000 A 
BRANCH   9  12
ATOM     12  N   UNL     1       7.320  13.742  25.815  0.00  0.00    +0.000 N 
ATOM     13  H   UNL     1       7.702  13.199  26.587  0.00  0.00    +0.000 HD
BRANCH  12  14
ATOM     14  S   UNL     1       5.643  13.896  25.994  0.00  0.00    +0.000 S 
ATOM     15  C   UNL     1       5.237  12.372  26.818  0.00  0.00    +0.000 C 
ATOM     16  O   UNL     1       5.330  15.005  26.866  0.00  0.00    +0.000 OA
ATOM     17  O   UNL     1       5.109  13.821  24.651  0.00  0.00    +0.000 OA
ENDBRANCH  12  14
ENDBRANCH   9  12
ENDBRANCH   5   6
ENDBRANCH   4   5
ENDBRANCH   2   4
ENDBRANCH   1   2
BRANCH   1  18
ATOM     18  C   UNL     1       7.720   8.994  17.826  0.00  0.00    +0.000 C 
BRANCH  18  19
ATOM     19  O   UNL     1       7.770   7.852  16.965  0.00  0.00    +0.000 OA
BRANCH  19  23
ATOM     20  C   UNL     1       4.986   4.883  17.882  0.00  0.00    +0.000 A 
ATOM     21  C   UNL     1       4.782   5.799  16.845  0.00  0.00    +0.000 A 
ATOM     22  C   UNL     1       5.757   6.747  16.533  0.00  0.00    +0.000 A 
ATOM     23  C   UNL     1       6.896   6.863  17.328  0.00  0.00    +0.000 A 
ATOM     24  C   UNL     1       7.080   5.991  18.403  0.00  0.00    +0.000 A 
ATOM     25  C   UNL     1       6.128   5.002  18.678  0.00  0.00    +0.000 A 
BRANCH  20  27
ATOM     26  N   UNL     1       3.131   3.945  19.309  0.00  0.00    +0.000 N 
ATOM     27  C   UNL     1       4.018   3.807  18.225  0.00  0.00    +0.000 C 
ATOM     28  O   UNL     1       4.012   2.809  17.494  0.00  0.00    +0.000 OA
BRANCH  26  30
ATOM     29  C   UNL     1       0.877   2.898  19.469  0.00  0.00    +0.000 C 
ATOM     30  C   UNL     1       2.376   2.745  19.685  0.00  0.00    +0.000 C 
ENDBRANCH  26  30
BRANCH  26  31
ATOM     31  C   UNL     1       3.075   5.120  20.184  0.00  0.00    +0.000 C 
ATOM     32  C   UNL     1       2.325   6.339  19.682  0.00  0.00    +0.000 C 
ENDBRANCH  26  31
ENDBRANCH  20  27
ENDBRANCH  19  23
ENDBRANCH  18  19
ENDBRANCH   1  18
TORSDOF 12
ENDMDL
MODEL 8
REMARK VINA RESULT:      -6.6      5.104      7.988
REMARK  Name = 
REMARK  16 active torsions:
REMARK  status: ('A' for Active; 'I' for Inactive)
REMARK    1  A    between atoms: C_1  and  C_2
REMARK    2  A    between atoms: C_2  and  N_3
REMARK    3  A    between atoms: N_3  and  C_4
REMARK    4  A    between atoms: C_4  and  C_5
REMARK    5  A    between atoms: C_6  and  C_8
REMARK    6  A    between atoms: C_11  and  O_12
REMARK    7  A    between atoms: O_12  and  C_13
REMARK    8  A    between atoms: C_13  and  C_14
REMARK    9  A    between atoms: C_14  and  N_15
REMARK   10  A    between atoms: N_15  and  C_16
REMARK   11  A    between atoms: N_15  and  C_17
REMARK   12  A    between atoms: C_17  and  C_18
REMARK   13  A    between atoms: C_18  and  C_19
REMARK   14  A    between atoms: C_22  and  N_23
REMARK   15  A    between atoms: N_23  and  S_24
REMARK   16  A    between atoms: S_24  and  C_25
REMARK                            x       y       z     vdW  Elec       q    Type
REMARK                         _______ _______ _______ _____ _____    ______ ____
ROOT
ATOM      1  C   UNL     1       7.836   9.581  17.957  0.00  0.00    +0.000 C 
ENDROOT
BRANCH   1   2
ATOM      2  N   UNL     1       9.043  10.410  18.165  0.00  0.00    +0.000 NA
ATOM      3  C   UNL     1       8.801  11.816  17.814  0.00  0.00    +0.000 C 
BRANCH   2   4
ATOM      4  C   UNL     1       9.517  10.337  19.565  0.00  0.00    +0.000 C 
BRANCH   4   5
ATOM      5  C   UNL     1      10.141  11.646  20.075  0.00  0.00    +0.000 C 
BRANCH   5   6
ATOM      6  C   UNL     1       9.451  12.167  21.314  0.00  0.00    +0.000 A 
ATOM      7  C   UNL     1       9.587  13.517  21.667  0.00  0.00    +0.000 A 
ATOM      8  C   UNL     1       8.923  14.025  22.782  0.00  0.00    +0.000 A 
ATOM      9  C   UNL     1       8.134  13.186  23.563  0.00  0.00    +0.000 A 
ATOM     10  C   UNL     1       8.002  11.835  23.233  0.00  0.00    +0.000 A 
ATOM     11  C   UNL     1       8.664  11.327  22.110  0.00  0.00    +0.000 A 
BRANCH   9  12
ATOM     12  N   UNL     1       7.441  13.743  24.674  0.00  0.00    +0.000 N 
ATOM     13  H   UNL     1       7.834  13.536  25.590  0.00  0.00    +0.000 HD
BRANCH  12  14
ATOM     14  S   UNL     1       5.758  13.560  24.716  0.00  0.00    +0.000 S 
ATOM     15  C   UNL     1       5.297  14.190  23.117  0.00  0.00    +0.000 C 
ATOM     16  O   UNL     1       5.406  12.161  24.794  0.00  0.00    +0.000 OA
ATOM     17  O   UNL     1       5.297  14.508  25.708  0.00  0.00    +0.000 OA
ENDBRANCH  12  14
ENDBRANCH   9  12
ENDBRANCH   5   6
ENDBRANCH   4   5
ENDBRANCH   2   4
ENDBRANCH   1   2
BRANCH   1  18
ATOM     18  C   UNL     1       8.138   8.098  17.714  0.00  0.00    +0.000 C 
BRANCH  18  19
ATOM     19  O   UNL     1       7.138   7.540  16.856  0.00  0.00    +0.000 OA
BRANCH  19  23
ATOM     20  C   UNL     1       4.327   5.400  19.076  0.00  0.00    +0.000 A 
ATOM     21  C   UNL     1       5.698   5.331  19.347  0.00  0.00    +0.000 A 
ATOM     22  C   UNL     1       6.605   6.100  18.617  0.00  0.00    +0.000 A 
ATOM     23  C   UNL     1       6.164   6.857  17.534  0.00  0.00    +0.000 A 
ATOM     24  C   UNL     1       4.804   6.884  17.218  0.00  0.00    +0.000 A 
ATOM     25  C   UNL     1       3.888   6.160  17.989  0.00  0.00    +0.000 A 
BRANCH  20  27
ATOM     26  N   UNL     1       3.141   3.268  19.712  0.00  0.00    +0.000 N 
ATOM     27  C   UNL     1       3.301   4.659  19.857  0.00  0.00    +0.000 C 
ATOM     28  O   UNL     1       2.625   5.317  20.656  0.00  0.00    +0.000 OA
BRANCH  26  30
ATOM     29  C   UNL     1       0.706   2.782  19.518  0.00  0.00    +0.000 C 
ATOM     30  C   UNL     1       1.967   2.679  20.364  0.00  0.00    +0.000 C 
ENDBRANCH  26  30
BRANCH  26  31
ATOM     31  C   UNL     1       3.938   2.437  18.804  0.00  0.00    +0.000 C 
ATOM     32  C   UNL     1       3.444   2.274  17.379  0.00  0.00    +0.000 C 
ENDBRANCH  26  31
ENDBRANCH  20  27
ENDBRANCH  19  23
ENDBRANCH  18  19
ENDBRANCH   1  18
TORSDOF 12
ENDMDL
MODEL 9
REMARK VINA RESULT:      -6.5      2.647      7.710
REMARK  Name = 
REMARK  16 active torsions:
REMARK  status: ('A' for Active; 'I' for Inactive)
REMARK    1  A    between atoms: C_1  and  C_2
REMARK    2  A    between atoms: C_2  and  N_3
REMARK    3  A    between atoms: N_3  and  C_4
REMARK    4  A    between atoms: C_4  and  C_5
REMARK    5  A    between atoms: C_6  and  C_8
REMARK    6  A    between atoms: C_11  and  O_12
REMARK    7  A    between atoms: O_12  and  C_13
REMARK    8  A    between atoms: C_13  and  C_14
REMARK    9  A    between atoms: C_14  and  N_15
REMARK   10  A    between atoms: N_15  and  C_16
REMARK   11  A    between atoms: N_15  and  C_17
REMARK   12  A    between atoms: C_17  and  C_18
REMARK   13  A    between atoms: C_18  and  C_19
REMARK   14  A    between atoms: C_22  and  N_23
REMARK   15  A    between atoms: N_23  and  S_24
REMARK   16  A    between atoms: S_24  and  C_25
REMARK                            x       y       z     vdW  Elec       q    Type
REMARK                         _______ _______ _______ _____ _____    ______ ____
ROOT
ATOM      1  C   UNL     1       5.547   5.925  18.417  0.00  0.00    +0.000 C 
ENDROOT
BRANCH   1   2
ATOM      2  N   UNL     1       5.257   5.876  16.967  0.00  0.00    +0.000 NA
ATOM      3  C   UNL     1       5.715   7.093  16.282  0.00  0.00    +0.000 C 
BRANCH   2   4
ATOM      4  C   UNL     1       5.887   4.699  16.327  0.00  0.00    +0.000 C 
BRANCH   4   5
ATOM      5  C   UNL     1       4.879   3.641  15.851  0.00  0.00    +0.000 C 
BRANCH   5   6
ATOM      6  C   UNL     1       3.962   3.180  16.959  0.00  0.00    +0.000 A 
ATOM      7  C   UNL     1       4.483   2.430  18.022  0.00  0.00    +0.000 A 
ATOM      8  C   UNL     1       3.661   2.033  19.076  0.00  0.00    +0.000 A 
ATOM      9  C   UNL     1       2.309   2.365  19.066  0.00  0.00    +0.000 A 
ATOM     10  C   UNL     1       1.773   3.099  18.005  0.00  0.00    +0.000 A 
ATOM     11  C   UNL     1       2.599   3.502  16.952  0.00  0.00    +0.000 A 
BRANCH   9  12
ATOM     12  N   UNL     1       1.505   1.976  20.173  0.00  0.00    +0.000 N 
ATOM     13  H   UNL     1       0.499   2.006  20.022  0.00  0.00    +0.000 HD
BRANCH  12  14
ATOM     14  S   UNL     1       1.880   2.645  21.683  0.00  0.00    +0.000 S 
ATOM     15  C   UNL     1       1.929   4.380  21.295  0.00  0.00    +0.000 C 
ATOM     16  O   UNL     1       0.810   2.398  22.622  0.00  0.00    +0.000 OA
ATOM     17  O   UNL     1       3.236   2.221  21.961  0.00  0.00    +0.000 OA
ENDBRANCH  12  14
ENDBRANCH   9  12
ENDBRANCH   5   6
ENDBRANCH   4   5
ENDBRANCH   2   4
ENDBRANCH   1   2
BRANCH   1  18
ATOM     18  C   UNL     1       4.294   6.008  19.295  0.00  0.00    +0.000 C 
BRANCH  18  19
ATOM     19  O   UNL     1       3.144   6.225  18.470  0.00  0.00    +0.000 OA
BRANCH  19  23
ATOM     20  C   UNL     1       1.078   9.775  19.199  0.00  0.00    +0.000 A 
ATOM     21  C   UNL     1       1.661   9.496  17.958  0.00  0.00    +0.000 A 
ATOM     22  C   UNL     1       2.302   8.276  17.735  0.00  0.00    +0.000 A 
ATOM     23  C   UNL     1       2.465   7.372  18.782  0.00  0.00    +0.000 A 
ATOM     24  C   UNL     1       1.937   7.670  20.041  0.00  0.00    +0.000 A 
ATOM     25  C   UNL     1       1.243   8.867  20.247  0.00  0.00    +0.000 A 
BRANCH  20  27
ATOM     26  N   UNL     1      -1.033  11.154  19.140  0.00  0.00    +0.000 N 
ATOM     27  C   UNL     1       0.326  11.026  19.484  0.00  0.00    +0.000 C 
ATOM     28  O   UNL     1       0.943  11.928  20.063  0.00  0.00    +0.000 OA
BRANCH  26  30
ATOM     29  C   UNL     1      -2.617  12.596  20.409  0.00  0.00    +0.000 C 
ATOM     30  C   UNL     1      -1.613  12.494  19.270  0.00  0.00    +0.000 C 
ENDBRANCH  26  30
BRANCH  26  31
ATOM     31  C   UNL     1      -1.819  10.103  18.484  0.00  0.00    +0.000 C 
ATOM     32  C   UNL     1      -1.993  10.188  16.979  0.00  0.00    +0.000 C 
ENDBRANCH  26  31
ENDBRANCH  20  27
ENDBRANCH  19  23
ENDBRANCH  18  19
ENDBRANCH   1  18
TORSDOF 12
ENDMDL
