MODEL 1
REMARK VINA RESULT:      -9.0      0.000      0.000
REMARK  Name = 
REMARK  5 active torsions:
REMARK  status: ('A' for Active; 'I' for Inactive)
REMARK    1  A    between atoms: C_1  and  C_2
REMARK    2  A    between atoms: N_4  and  C_5
REMARK    3  A    between atoms: C_11  and  C_12
REMARK    4  A    between atoms: N_19  and  C_20
REMARK    5  A    between atoms: C_20  and  C_21
REMARK                            x       y       z     vdW  Elec       q    Type
REMARK                         _______ _______ _______ _____ _____    ______ ____
ROOT
ATOM      1  C   UNL     1       1.614   7.777  20.284  0.00  0.00    +0.000 A 
ATOM      2  C   UNL     1       1.771   6.517  20.821  0.00  0.00    +0.000 A 
ATOM      3  S   UNL     1       2.757   5.571  19.804  0.00  0.00    +0.000 S 
ATOM      4  C   UNL     1       2.925   6.910  18.715  0.00  0.00    +0.000 A 
ATOM      5  N   UNL     1       3.674   6.834  17.589  0.00  0.00    +0.000 N 
ATOM      6  C   UNL     1       4.803   6.099  17.392  0.00  0.00    +0.000 C 
ATOM      7  N   UNL     1       5.617   5.718  18.322  0.00  0.00    +0.000 NA
ATOM      8  N   UNL     1       5.015   5.746  16.092  0.00  0.00    +0.000 N 
ATOM      9  N   UNL     1       2.227   7.975  19.056  0.00  0.00    +0.000 NA
ATOM     10  H   UNL     1       3.550   7.596  16.936  0.00  0.00    +0.000 HD
ATOM     11  H   UNL     1       5.298   6.089  19.220  0.00  0.00    +0.000 HD
ATOM     12  H   UNL     1       4.197   5.810  15.498  0.00  0.00    +0.000 HD
ENDROOT
BRANCH   1  19
ATOM     13  C   UNL     1      -1.386  11.024  18.689  0.00  0.00    +0.000 A 
ATOM     14  C   UNL     1      -1.793  11.880  19.711  0.00  0.00    +0.000 A 
ATOM     15  C   UNL     1      -1.332  11.725  21.022  0.00  0.00    +0.000 A 
ATOM     16  C   UNL     1      -0.441  10.682  21.280  0.00  0.00    +0.000 A 
ATOM     17  N   UNL     1       0.185  10.339  22.455  0.00  0.00    +0.000 N 
ATOM     18  C   UNL     1       0.994   9.254  22.253  0.00  0.00    +0.000 A 
ATOM     19  C   UNL     1       0.883   8.876  20.930  0.00  0.00    +0.000 A 
ATOM     20  C   UNL     1      -0.025   9.781  20.298  0.00  0.00    +0.000 A 
ATOM     21  C   UNL     1      -0.527   9.952  18.986  0.00  0.00    +0.000 A 
ATOM     22  H   UNL     1       0.082  10.841  23.325  0.00  0.00    +0.000 HD
BRANCH  13  26
ATOM     23  C   UNL     1      -2.904  10.829  15.242  0.00  0.00    +0.000 C 
ATOM     24  C   UNL     1      -2.746  10.424  16.684  0.00  0.00    +0.000 C 
ATOM     25  O   UNL     1      -3.420   9.513  17.151  0.00  0.00    +0.000 OA
ATOM     26  N   UNL     1      -1.794  11.181  17.346  0.00  0.00    +0.000 N 
ATOM     27  H   UNL     1      -1.436  11.996  16.865  0.00  0.00    +0.000 HD
ENDBRANCH  13  26
ENDBRANCH   1  19
BRANCH   8  28
ATOM     28  C   UNL     1       5.756   4.509  15.855  0.00  0.00    +0.000 C 
BRANCH  28  29
ATOM     29  C   UNL     1       6.186   4.390  14.415  0.00  0.00    +0.000 A 
ATOM     30  C   UNL     1       7.325   5.063  13.953  0.00  0.00    +0.000 A 
ATOM     31  C   UNL     1       7.752   4.905  12.633  0.00  0.00    +0.000 A 
ATOM     32  C   UNL     1       7.047   4.072  11.766  0.00  0.00    +0.000 A 
ATOM     33  C   UNL     1       5.916   3.393  12.215  0.00  0.00    +0.000 A 
ATOM     34  C   UNL     1       5.487   3.550  13.534  0.00  0.00    +0.000 A 
ENDBRANCH  28  29
ENDBRANCH   8  28
TORSDOF 4
ENDMDL
MODEL 2
REMARK VINA RESULT:      -8.3      2.296      3.100
REMARK  Name = 
REMARK  5 active torsions:
REMARK  status: ('A' for Active; 'I' for Inactive)
REMARK    1  A    between atoms: C_1  and  C_2
REMARK    2  A    between atoms: N_4  and  C_5
REMARK    3  A    between atoms: C_11  and  C_12
REMARK    4  A    between atoms: N_19  and  C_20
REMARK    5  A    between atoms: C_20  and  C_21
REMARK                            x       y       z     vdW  Elec       q    Type
REMARK                         _______ _______ _______ _____ _____    ______ ____
ROOT
ATOM      1  C   UNL     1       1.038   9.491  19.441  0.00  0.00    +0.000 A 
ATOM      2  C   UNL     1       1.636   9.516  18.199  0.00  0.00    +0.000 A 
ATOM      3  S   UNL     1       2.592   8.123  17.987  0.00  0.00    +0.000 S 
ATOM      4  C   UNL     1       2.135   7.564  19.564  0.00  0.00    +0.000 A 
ATOM      5  N   UNL     1       2.575   6.386  20.066  0.00  0.00    +0.000 N 
ATOM      6  C   UNL     1       2.863   5.246  19.378  0.00  0.00    +0.000 C 
ATOM      7  N   UNL     1       2.356   4.917  18.235  0.00  0.00    +0.000 NA
ATOM      8  N   UNL     1       3.789   4.452  19.986  0.00  0.00    +0.000 N 
ATOM      9  N   UNL     1       1.373   8.404  20.234  0.00  0.00    +0.000 NA
ATOM     10  H   UNL     1       2.407   6.249  21.054  0.00  0.00    +0.000 HD
ATOM     11  H   UNL     1       1.677   5.627  17.952  0.00  0.00    +0.000 HD
ATOM     12  H   UNL     1       4.349   4.917  20.691  0.00  0.00    +0.000 HD
ENDROOT
BRANCH   1  19
ATOM     13  C   UNL     1      -3.173  10.948  17.946  0.00  0.00    +0.000 A 
ATOM     14  C   UNL     1      -3.669  11.970  18.755  0.00  0.00    +0.000 A 
ATOM     15  C   UNL     1      -2.952  12.444  19.858  0.00  0.00    +0.000 A 
ATOM     16  C   UNL     1      -1.713  11.862  20.127  0.00  0.00    +0.000 A 
ATOM     17  N   UNL     1      -0.801  12.164  21.111  0.00  0.00    +0.000 N 
ATOM     18  C   UNL     1       0.295  11.354  20.998  0.00  0.00    +0.000 A 
ATOM     19  C   UNL     1       0.089  10.500  19.932  0.00  0.00    +0.000 A 
ATOM     20  C   UNL     1      -1.184  10.817  19.365  0.00  0.00    +0.000 A 
ATOM     21  C   UNL     1      -1.946  10.346  18.269  0.00  0.00    +0.000 A 
ATOM     22  H   UNL     1      -0.918  12.901  21.792  0.00  0.00    +0.000 HD
BRANCH  13  26
ATOM     23  C   UNL     1      -4.368   9.962  14.507  0.00  0.00    +0.000 C 
ATOM     24  C   UNL     1      -3.369  10.498  15.499  0.00  0.00    +0.000 C 
ATOM     25  O   UNL     1      -2.271  10.892  15.123  0.00  0.00    +0.000 OA
ATOM     26  N   UNL     1      -3.848  10.479  16.798  0.00  0.00    +0.000 N 
ATOM     27  H   UNL     1      -4.713   9.981  16.963  0.00  0.00    +0.000 HD
ENDBRANCH  13  26
ENDBRANCH   1  19
BRANCH   8  28
ATOM     28  C   UNL     1       4.609   3.610  19.118  0.00  0.00    +0.000 C 
BRANCH  28  29
ATOM     29  C   UNL     1       5.549   4.434  18.275  0.00  0.00    +0.000 A 
ATOM     30  C   UNL     1       6.457   5.317  18.875  0.00  0.00    +0.000 A 
ATOM     31  C   UNL     1       7.364   6.036  18.095  0.00  0.00    +0.000 A 
ATOM     32  C   UNL     1       7.373   5.878  16.710  0.00  0.00    +0.000 A 
ATOM     33  C   UNL     1       6.479   4.999  16.103  0.00  0.00    +0.000 A 
ATOM     34  C   UNL     1       5.571   4.279  16.881  0.00  0.00    +0.000 A 
ENDBRANCH  28  29
ENDBRANCH   8  28
TORSDOF 4
ENDMDL
MODEL 3
REMARK VINA RESULT:      -8.3      2.050      2.819
REMARK  Name = 
REMARK  5 active torsions:
REMARK  status: ('A' for Active; 'I' for Inactive)
REMARK    1  A    between atoms: C_1  and  C_2
REMARK    2  A    between atoms: N_4  and  C_5
REMARK    3  A    between atoms: C_11  and  C_12
REMARK    4  A    between atoms: N_19  and  C_20
REMARK    5  A    between atoms: C_20  and  C_21
REMARK                            x       y       z     vdW  Elec       q    Type
REMARK                         _______ _______ _______ _____ _____    ______ ____
ROOT
ATOM      1  C   UNL     1       1.164   9.110  20.048  0.00  0.00    +0.000 A 
ATOM      2  C   UNL     1       1.575   9.233  18.737  0.00  0.00    +0.000 A 
ATOM      3  S   UNL     1       2.436   7.842  18.265  0.00  0.00    +0.000 S 
ATOM      4  C   UNL     1       2.193   7.153  19.838  0.00  0.00    +0.000 A 
ATOM      5  N   UNL     1       2.656   5.924  20.166  0.00  0.00    +0.000 N 
ATOM      6  C   UNL     1       2.796   4.845  19.346  0.00  0.00    +0.000 C 
ATOM      7  N   UNL     1       2.115   4.634  18.267  0.00  0.00    +0.000 NA
ATOM      8  N   UNL     1       3.771   3.975  19.738  0.00  0.00    +0.000 N 
ATOM      9  N   UNL     1       1.569   7.948  20.685  0.00  0.00    +0.000 NA
ATOM     10  H   UNL     1       2.630   5.701  21.152  0.00  0.00    +0.000 HD
ATOM     11  H   UNL     1       1.430   5.384  18.151  0.00  0.00    +0.000 HD
ATOM     12  H   UNL     1       4.445   4.360  20.389  0.00  0.00    +0.000 HD
ENDROOT
BRANCH   1  19
ATOM     13  C   UNL     1      -2.480  11.787  18.764  0.00  0.00    +0.000 A 
ATOM     14  C   UNL     1      -2.909  12.592  19.818  0.00  0.00    +0.000 A 
ATOM     15  C   UNL     1      -2.291  12.550  21.071  0.00  0.00    +0.000 A 
ATOM     16  C   UNL     1      -1.219  11.671  21.239  0.00  0.00    +0.000 A 
ATOM     17  N   UNL     1      -0.423  11.465  22.340  0.00  0.00    +0.000 N 
ATOM     18  C   UNL     1       0.526  10.520  22.060  0.00  0.00    +0.000 A 
ATOM     19  C   UNL     1       0.337  10.094  20.760  0.00  0.00    +0.000 A 
ATOM     20  C   UNL     1      -0.769  10.823  20.224  0.00  0.00    +0.000 A 
ATOM     21  C   UNL     1      -1.431  10.876  18.974  0.00  0.00    +0.000 A 
ATOM     22  H   UNL     1      -0.513  11.966  23.212  0.00  0.00    +0.000 HD
BRANCH  13  26
ATOM     23  C   UNL     1      -3.988  11.169  15.363  0.00  0.00    +0.000 C 
ATOM     24  C   UNL     1      -3.471  10.759  16.717  0.00  0.00    +0.000 C 
ATOM     25  O   UNL     1      -3.453   9.578  17.044  0.00  0.00    +0.000 OA
ATOM     26  N   UNL     1      -3.050  11.840  17.473  0.00  0.00    +0.000 N 
ATOM     27  H   UNL     1      -3.273  12.763  17.123  0.00  0.00    +0.000 HD
ENDBRANCH  13  26
ENDBRANCH   1  19
BRANCH   8  28
ATOM     28  C   UNL     1       4.422   3.196  18.688  0.00  0.00    +0.000 C 
BRANCH  28  29
ATOM     29  C   UNL     1       5.342   4.051  17.854  0.00  0.00    +0.000 A 
ATOM     30  C   UNL     1       5.192   4.112  16.462  0.00  0.00    +0.000 A 
ATOM     31  C   UNL     1       6.009   4.949  15.699  0.00  0.00    +0.000 A 
ATOM     32  C   UNL     1       6.980   5.732  16.321  0.00  0.00    +0.000 A 
ATOM     33  C   UNL     1       7.135   5.684  17.705  0.00  0.00    +0.000 A 
ATOM     34  C   UNL     1       6.319   4.848  18.469  0.00  0.00    +0.000 A 
ENDBRANCH  28  29
ENDBRANCH   8  28
TORSDOF 4
ENDMDL
MODEL 4
REMARK VINA RESULT:      -8.2      3.106      3.871
REMARK  Name = 
REMARK  5 active torsions:
REMARK  status: ('A' for Active; 'I' for Inactive)
REMARK    1  A    between atoms: C_1  and  C_2
REMARK    2  A    between atoms: N_4  and  C_5
REMARK    3  A    between atoms: C_11  and  C_12
REMARK    4  A    between atoms: N_19  and  C_20
REMARK    5  A    between atoms: C_20  and  C_21
REMARK                            x       y       z     vdW  Elec       q    Type
REMARK                         _______ _______ _______ _____ _____    ______ ____
ROOT
ATOM      1  C   UNL     1       0.977   9.018  20.613  0.00  0.00    +0.000 A 
ATOM      2  C   UNL     1       1.254   9.279  19.288  0.00  0.00    +0.000 A 
ATOM      3  S   UNL     1       2.093   7.967  18.601  0.00  0.00    +0.000 S 
ATOM      4  C   UNL     1       2.021   7.123  20.114  0.00  0.00    +0.000 A 
ATOM      5  N   UNL     1       2.540   5.882  20.273  0.00  0.00    +0.000 N 
ATOM      6  C   UNL     1       2.622   4.892  19.342  0.00  0.00    +0.000 C 
ATOM      7  N   UNL     1       1.842   4.764  18.318  0.00  0.00    +0.000 NA
ATOM      8  N   UNL     1       3.648   4.019  19.551  0.00  0.00    +0.000 N 
ATOM      9  N   UNL     1       1.467   7.813  21.091  0.00  0.00    +0.000 NA
ATOM     10  H   UNL     1       2.616   5.565  21.231  0.00  0.00    +0.000 HD
ATOM     11  H   UNL     1       1.133   5.501  18.342  0.00  0.00    +0.000 HD
ATOM     12  H   UNL     1       4.375   4.360  20.169  0.00  0.00    +0.000 HD
ENDROOT
BRANCH   1  19
ATOM     13  C   UNL     1       0.623  13.690  20.983  0.00  0.00    +0.000 A 
ATOM     14  C   UNL     1      -0.240  14.050  22.016  0.00  0.00    +0.000 A 
ATOM     15  C   UNL     1      -0.889  13.089  22.796  0.00  0.00    +0.000 A 
ATOM     16  C   UNL     1      -0.644  11.745  22.510  0.00  0.00    +0.000 A 
ATOM     17  N   UNL     1      -1.115  10.617  23.140  0.00  0.00    +0.000 N 
ATOM     18  C   UNL     1      -0.604   9.499  22.541  0.00  0.00    +0.000 A 
ATOM     19  C   UNL     1       0.203   9.903  21.495  0.00  0.00    +0.000 A 
ATOM     20  C   UNL     1       0.190  11.332  21.468  0.00  0.00    +0.000 A 
ATOM     21  C   UNL     1       0.815  12.331  20.684  0.00  0.00    +0.000 A 
ATOM     22  H   UNL     1      -1.723  10.625  23.947  0.00  0.00    +0.000 HD
BRANCH  13  26
ATOM     23  C   UNL     1       1.869  16.255  18.514  0.00  0.00    +0.000 C 
ATOM     24  C   UNL     1       0.827  15.373  19.151  0.00  0.00    +0.000 C 
ATOM     25  O   UNL     1      -0.323  15.363  18.725  0.00  0.00    +0.000 OA
ATOM     26  N   UNL     1       1.332  14.635  20.208  0.00  0.00    +0.000 N 
ATOM     27  H   UNL     1       2.260  14.871  20.534  0.00  0.00    +0.000 HD
ENDBRANCH  13  26
ENDBRANCH   1  19
BRANCH   8  28
ATOM     28  C   UNL     1       4.209   3.364  18.371  0.00  0.00    +0.000 C 
BRANCH  28  29
ATOM     29  C   UNL     1       5.197   4.254  17.662  0.00  0.00    +0.000 A 
ATOM     30  C   UNL     1       6.311   4.767  18.340  0.00  0.00    +0.000 A 
ATOM     31  C   UNL     1       7.253   5.545  17.665  0.00  0.00    +0.000 A 
ATOM     32  C   UNL     1       7.092   5.815  16.307  0.00  0.00    +0.000 A 
ATOM     33  C   UNL     1       5.992   5.306  15.620  0.00  0.00    +0.000 A 
ATOM     34  C   UNL     1       5.048   4.529  16.293  0.00  0.00    +0.000 A 
ENDBRANCH  28  29
ENDBRANCH   8  28
TORSDOF 4
ENDMDL
MODEL 5
REMARK VINA RESULT:      -8.0      4.272      8.939
REMARK  Name = 
REMARK  5 active torsions:
REMARK  status: ('A' for Active; 'I' for Inactive)
REMARK    1  A    between atoms: C_1  and  C_2
REMARK    2  A    between atoms: N_4  and  C_5
REMARK    3  A    between atoms: C_11  and  C_12
REMARK    4  A    between atoms: N_19  and  C_20
REMARK    5  A    between atoms: C_20  and  C_21
REMARK                            x       y       z     vdW  Elec       q    Type
REMARK                         _______ _______ _______ _____ _____    ______ ____
ROOT
ATOM      1  C   UNL     1       1.836   6.477  20.004  0.00  0.00    +0.000 A 
ATOM      2  C   UNL     1       1.240   7.168  21.038  0.00  0.00    +0.000 A 
ATOM      3  S   UNL     1       1.235   8.836  20.695  0.00  0.00    +0.000 S 
ATOM      4  C   UNL     1       2.017   8.531  19.177  0.00  0.00    +0.000 A 
ATOM      5  N   UNL     1       2.320   9.524  18.309  0.00  0.00    +0.000 N 
ATOM      6  C   UNL     1       1.637  10.685  18.105  0.00  0.00    +0.000 C 
ATOM      7  N   UNL     1       0.376  10.858  18.334  0.00  0.00    +0.000 NA
ATOM      8  N   UNL     1       2.411  11.712  17.653  0.00  0.00    +0.000 N 
ATOM      9  N   UNL     1       2.327   7.265  18.974  0.00  0.00    +0.000 NA
ATOM     10  H   UNL     1       2.939   9.264  17.553  0.00  0.00    +0.000 HD
ATOM     11  H   UNL     1      -0.031   9.976  18.654  0.00  0.00    +0.000 HD
ATOM     12  H   UNL     1       3.406  11.587  17.798  0.00  0.00    +0.000 HD
ENDROOT
BRANCH   1  19
ATOM     13  C   UNL     1       4.249   3.568  17.211  0.00  0.00    +0.000 A 
ATOM     14  C   UNL     1       3.996   2.235  17.532  0.00  0.00    +0.000 A 
ATOM     15  C   UNL     1       3.128   1.884  18.571  0.00  0.00    +0.000 A 
ATOM     16  C   UNL     1       2.515   2.917  19.283  0.00  0.00    +0.000 A 
ATOM     17  N   UNL     1       1.602   2.848  20.309  0.00  0.00    +0.000 N 
ATOM     18  C   UNL     1       1.247   4.108  20.704  0.00  0.00    +0.000 A 
ATOM     19  C   UNL     1       1.949   5.014  19.932  0.00  0.00    +0.000 A 
ATOM     20  C   UNL     1       2.756   4.267  19.019  0.00  0.00    +0.000 A 
ATOM     21  C   UNL     1       3.657   4.587  17.975  0.00  0.00    +0.000 A 
ATOM     22  H   UNL     1       1.231   1.988  20.686  0.00  0.00    +0.000 HD
BRANCH  13  26
ATOM     23  C   UNL     1       6.986   4.730  14.891  0.00  0.00    +0.000 C 
ATOM     24  C   UNL     1       6.411   4.330  16.225  0.00  0.00    +0.000 C 
ATOM     25  O   UNL     1       7.105   4.360  17.235  0.00  0.00    +0.000 OA
ATOM     26  N   UNL     1       5.081   3.956  16.138  0.00  0.00    +0.000 N 
ATOM     27  H   UNL     1       4.695   3.836  15.210  0.00  0.00    +0.000 HD
ENDBRANCH  13  26
ENDBRANCH   1  19
BRANCH   8  28
ATOM     28  C   UNL     1       1.983  13.065  17.998  0.00  0.00    +0.000 C 
BRANCH  28  29
ATOM     29  C   UNL     1       2.987  13.753  18.888  0.00  0.00    +0.000 A 
ATOM     30  C   UNL     1       4.063  14.460  18.337  0.00  0.00    +0.000 A 
ATOM     31  C   UNL     1       4.958  15.143  19.163  0.00  0.00    +0.000 A 
ATOM     32  C   UNL     1       4.784  15.125  20.546  0.00  0.00    +0.000 A 
ATOM     33  C   UNL     1       3.715  14.430  21.106  0.00  0.00    +0.000 A 
ATOM     34  C   UNL     1       2.819  13.747  20.282  0.00  0.00    +0.000 A 
ENDBRANCH  28  29
ENDBRANCH   8  28
TORSDOF 4
ENDMDL
MODEL 6
REMARK VINA RESULT:      -8.0      3.256      4.052
REMARK  Name = 
REMARK  5 active torsions:
REMARK  status: ('A' for Active; 'I' for Inactive)
REMARK    1  A    between atoms: C_1  and  C_2
REMARK    2  A    between atoms: N_4  and  C_5
REMARK    3  A    between atoms: C_11  and  C_12
REMARK    4  A    between atoms: N_19  and  C_20
REMARK    5  A    between atoms: C_20  and  C_21
REMARK                            x       y       z     vdW  Elec       q    Type
REMARK                         _______ _______ _______ _____ _____    ______ ____
ROOT
ATOM      1  C   UNL     1       1.211   9.312  20.020  0.00  0.00    +0.000 A 
ATOM      2  C   UNL     1       1.412   9.372  18.657  0.00  0.00    +0.000 A 
ATOM      3  S   UNL     1       2.170   7.946  18.119  0.00  0.00    +0.000 S 
ATOM      4  C   UNL     1       2.169   7.328  19.739  0.00  0.00    +0.000 A 
ATOM      5  N   UNL     1       2.661   6.104  20.045  0.00  0.00    +0.000 N 
ATOM      6  C   UNL     1       2.657   4.990  19.262  0.00  0.00    +0.000 C 
ATOM      7  N   UNL     1       1.812   4.747  18.313  0.00  0.00    +0.000 NA
ATOM      8  N   UNL     1       3.669   4.118  19.534  0.00  0.00    +0.000 N 
ATOM      9  N   UNL     1       1.696   8.169  20.637  0.00  0.00    +0.000 NA
ATOM     10  H   UNL     1       2.787   5.924  21.032  0.00  0.00    +0.000 HD
ATOM     11  H   UNL     1       1.127   5.505  18.272  0.00  0.00    +0.000 HD
ATOM     12  H   UNL     1       4.442   4.516  20.054  0.00  0.00    +0.000 HD
ENDROOT
BRANCH   1  19
ATOM     13  C   UNL     1       0.945  13.992  19.685  0.00  0.00    +0.000 A 
ATOM     14  C   UNL     1       0.169  14.528  20.710  0.00  0.00    +0.000 A 
ATOM     15  C   UNL     1      -0.430  13.714  21.677  0.00  0.00    +0.000 A 
ATOM     16  C   UNL     1      -0.224  12.337  21.586  0.00  0.00    +0.000 A 
ATOM     17  N   UNL     1      -0.659  11.331  22.417  0.00  0.00    +0.000 N 
ATOM     18  C   UNL     1      -0.210  10.122  21.962  0.00  0.00    +0.000 A 
ATOM     19  C   UNL     1       0.518  10.341  20.809  0.00  0.00    +0.000 A 
ATOM     20  C   UNL     1       0.521  11.748  20.562  0.00  0.00    +0.000 A 
ATOM     21  C   UNL     1       1.096  12.599  19.587  0.00  0.00    +0.000 A 
ATOM     22  H   UNL     1      -1.203  11.479  23.255  0.00  0.00    +0.000 HD
BRANCH  13  26
ATOM     23  C   UNL     1       3.297  16.062  17.584  0.00  0.00    +0.000 C 
ATOM     24  C   UNL     1       2.933  15.172  18.744  0.00  0.00    +0.000 C 
ATOM     25  O   UNL     1       3.776  14.865  19.579  0.00  0.00    +0.000 OA
ATOM     26  N   UNL     1       1.603  14.789  18.721  0.00  0.00    +0.000 N 
ATOM     27  H   UNL     1       1.077  14.998  17.883  0.00  0.00    +0.000 HD
ENDBRANCH  13  26
ENDBRANCH   1  19
BRANCH   8  28
ATOM     28  C   UNL     1       4.137   3.282  18.431  0.00  0.00    +0.000 C 
BRANCH  28  29
ATOM     29  C   UNL     1       5.108   4.025  17.549  0.00  0.00    +0.000 A 
ATOM     30  C   UNL     1       6.284   4.570  18.082  0.00  0.00    +0.000 A 
ATOM     31  C   UNL     1       7.207   5.207  17.252  0.00  0.00    +0.000 A 
ATOM     32  C   UNL     1       6.965   5.303  15.882  0.00  0.00    +0.000 A 
ATOM     33  C   UNL     1       5.803   4.760  15.339  0.00  0.00    +0.000 A 
ATOM     34  C   UNL     1       4.878   4.123  16.168  0.00  0.00    +0.000 A 
ENDBRANCH  28  29
ENDBRANCH   8  28
TORSDOF 4
ENDMDL
MODEL 7
REMARK VINA RESULT:      -8.0      4.620      6.554
REMARK  Name = 
REMARK  5 active torsions:
REMARK  status: ('A' for Active; 'I' for Inactive)
REMARK    1  A    between atoms: C_1  and  C_2
REMARK    2  A    between atoms: N_4  and  C_5
REMARK    3  A    between atoms: C_11  and  C_12
REMARK    4  A    between atoms: N_19  and  C_20
REMARK    5  A    between atoms: C_20  and  C_21
REMARK                            x       y       z     vdW  Elec       q    Type
REMARK                         _______ _______ _______ _____ _____    ______ ____
ROOT
ATOM      1  C   UNL     1      -0.411  12.967  22.193  0.00  0.00    +0.000 A 
ATOM      2  C   UNL     1       0.423  13.369  21.171  0.00  0.00    +0.000 A 
ATOM      3  S   UNL     1       1.240  12.023  20.524  0.00  0.00    +0.000 S 
ATOM      4  C   UNL     1       0.417  10.981  21.641  0.00  0.00    +0.000 A 
ATOM      5  N   UNL     1       0.612   9.642  21.655  0.00  0.00    +0.000 N 
ATOM      6  C   UNL     1       0.903   8.835  20.597  0.00  0.00    +0.000 C 
ATOM      7  N   UNL     1       0.601   9.083  19.364  0.00  0.00    +0.000 NA
ATOM      8  N   UNL     1       1.594   7.709  20.933  0.00  0.00    +0.000 N 
ATOM      9  N   UNL     1      -0.366  11.614  22.492  0.00  0.00    +0.000 NA
ATOM     10  H   UNL     1       0.236   9.159  22.460  0.00  0.00    +0.000 HD
ATOM     11  H   UNL     1       0.077   9.959  19.317  0.00  0.00    +0.000 HD
ATOM     12  H   UNL     1       2.050   7.746  21.837  0.00  0.00    +0.000 HD
ENDROOT
BRANCH   1  19
ATOM     13  C   UNL     1      -5.072  13.026  22.793  0.00  0.00    +0.000 A 
ATOM     14  C   UNL     1      -5.466  14.112  23.571  0.00  0.00    +0.000 A 
ATOM     15  C   UNL     1      -4.537  15.024  24.081  0.00  0.00    +0.000 A 
ATOM     16  C   UNL     1      -3.189  14.813  23.783  0.00  0.00    +0.000 A 
ATOM     17  N   UNL     1      -2.092  15.570  24.121  0.00  0.00    +0.000 N 
ATOM     18  C   UNL     1      -0.959  15.006  23.603  0.00  0.00    +0.000 A 
ATOM     19  C   UNL     1      -1.321  13.856  22.929  0.00  0.00    +0.000 A 
ATOM     20  C   UNL     1      -2.740  13.725  23.031  0.00  0.00    +0.000 A 
ATOM     21  C   UNL     1      -3.706  12.810  22.549  0.00  0.00    +0.000 A 
ATOM     22  H   UNL     1      -2.132  16.432  24.646  0.00  0.00    +0.000 HD
BRANCH  13  26
ATOM     23  C   UNL     1      -7.780  11.205  20.900  0.00  0.00    +0.000 C 
ATOM     24  C   UNL     1      -6.932  12.400  21.249  0.00  0.00    +0.000 C 
ATOM     25  O   UNL     1      -7.115  13.476  20.692  0.00  0.00    +0.000 OA
ATOM     26  N   UNL     1      -5.989  12.115  22.222  0.00  0.00    +0.000 N 
ATOM     27  H   UNL     1      -5.861  11.142  22.470  0.00  0.00    +0.000 HD
ENDBRANCH  13  26
ENDBRANCH   1  19
BRANCH   8  28
ATOM     28  C   UNL     1       2.472   7.142  19.912  0.00  0.00    +0.000 C 
BRANCH  28  29
ATOM     29  C   UNL     1       2.069   5.733  19.557  0.00  0.00    +0.000 A 
ATOM     30  C   UNL     1       1.459   4.904  20.508  0.00  0.00    +0.000 A 
ATOM     31  C   UNL     1       1.037   3.620  20.159  0.00  0.00    +0.000 A 
ATOM     32  C   UNL     1       1.218   3.155  18.857  0.00  0.00    +0.000 A 
ATOM     33  C   UNL     1       1.818   3.972  17.901  0.00  0.00    +0.000 A 
ATOM     34  C   UNL     1       2.242   5.256  18.248  0.00  0.00    +0.000 A 
ENDBRANCH  28  29
ENDBRANCH   8  28
TORSDOF 4
ENDMDL
MODEL 8
REMARK VINA RESULT:      -8.0      4.928      6.981
REMARK  Name = 
REMARK  5 active torsions:
REMARK  status: ('A' for Active; 'I' for Inactive)
REMARK    1  A    between atoms: C_1  and  C_2
REMARK    2  A    between atoms: N_4  and  C_5
REMARK    3  A    between atoms: C_11  and  C_12
REMARK    4  A    between atoms: N_19  and  C_20
REMARK    5  A    between atoms: C_20  and  C_21
REMARK                            x       y       z     vdW  Elec       q    Type
REMARK                         _______ _______ _______ _____ _____    ______ ____
ROOT
ATOM      1  C   UNL     1       0.024  12.643  19.943  0.00  0.00    +0.000 A 
ATOM      2  C   UNL     1      -0.898  12.175  20.856  0.00  0.00    +0.000 A 
ATOM      3  S   UNL     1      -0.636  10.518  21.147  0.00  0.00    +0.000 S 
ATOM      4  C   UNL     1       0.704  10.531  20.046  0.00  0.00    +0.000 A 
ATOM      5  N   UNL     1       1.446   9.426  19.801  0.00  0.00    +0.000 N 
ATOM      6  C   UNL     1       1.732   8.410  20.662  0.00  0.00    +0.000 C 
ATOM      7  N   UNL     1       1.756   8.510  21.952  0.00  0.00    +0.000 NA
ATOM      8  N   UNL     1       1.972   7.216  20.051  0.00  0.00    +0.000 N 
ATOM      9  N   UNL     1       0.896  11.687  19.444  0.00  0.00    +0.000 NA
ATOM     10  H   UNL     1       2.072   9.493  19.009  0.00  0.00    +0.000 HD
ATOM     11  H   UNL     1       1.566   9.480  22.217  0.00  0.00    +0.000 HD
ATOM     12  H   UNL     1       1.633   7.153  19.098  0.00  0.00    +0.000 HD
ENDROOT
BRANCH   1  19
ATOM     13  C   UNL     1       3.466  15.121  17.920  0.00  0.00    +0.000 A 
ATOM     14  C   UNL     1       3.087  16.449  17.732  0.00  0.00    +0.000 A 
ATOM     15  C   UNL     1       1.824  16.912  18.114  0.00  0.00    +0.000 A 
ATOM     16  C   UNL     1       0.946  15.997  18.697  0.00  0.00    +0.000 A 
ATOM     17  N   UNL     1      -0.321  16.197  19.192  0.00  0.00    +0.000 N 
ATOM     18  C   UNL     1      -0.817  15.026  19.695  0.00  0.00    +0.000 A 
ATOM     19  C   UNL     1       0.136  14.043  19.512  0.00  0.00    +0.000 A 
ATOM     20  C   UNL     1       1.266  14.651  18.882  0.00  0.00    +0.000 A 
ATOM     21  C   UNL     1       2.545  14.211  18.465  0.00  0.00    +0.000 A 
ATOM     22  H   UNL     1      -0.794  17.090  19.208  0.00  0.00    +0.000 HD
BRANCH  13  26
ATOM     23  C   UNL     1       7.118  14.217  17.647  0.00  0.00    +0.000 C 
ATOM     24  C   UNL     1       5.916  14.841  18.307  0.00  0.00    +0.000 C 
ATOM     25  O   UNL     1       6.035  15.454  19.362  0.00  0.00    +0.000 OA
ATOM     26  N   UNL     1       4.750  14.633  17.590  0.00  0.00    +0.000 N 
ATOM     27  H   UNL     1       4.792  13.976  16.822  0.00  0.00    +0.000 HD
ENDBRANCH  13  26
ENDBRANCH   1  19
BRANCH   8  28
ATOM     28  C   UNL     1       1.660   6.009  20.813  0.00  0.00    +0.000 C 
BRANCH  28  29
ATOM     29  C   UNL     1       1.593   4.794  19.922  0.00  0.00    +0.000 A 
ATOM     30  C   UNL     1       2.064   4.850  18.603  0.00  0.00    +0.000 A 
ATOM     31  C   UNL     1       2.052   3.708  17.800  0.00  0.00    +0.000 A 
ATOM     32  C   UNL     1       1.571   2.502  18.307  0.00  0.00    +0.000 A 
ATOM     33  C   UNL     1       1.105   2.433  19.618  0.00  0.00    +0.000 A 
ATOM     34  C   UNL     1       1.116   3.573  20.423  0.00  0.00    +0.000 A 
ENDBRANCH  28  29
ENDBRANCH   8  28
TORSDOF 4
ENDMDL
MODEL 9
REMARK VINA RESULT:      -8.0      6.182      8.628
REMARK  Name = 
REMARK  5 active torsions:
REMARK  status: ('A' for Active; 'I' for Inactive)
REMARK    1  A    between atoms: C_1  and  C_2
REMARK    2  A    between atoms: N_4  and  C_5
REMARK    3  A    between atoms: C_11  and  C_12
REMARK    4  A    between atoms: N_19  and  C_20
REMARK    5  A    between atoms: C_20  and  C_21
REMARK                            x       y       z     vdW  Elec       q    Type
REMARK                         _______ _______ _______ _____ _____    ______ ____
ROOT
ATOM      1  C   UNL     1       8.571   9.114  18.428  0.00  0.00    +0.000 A 
ATOM      2  C   UNL     1       8.864   8.058  19.264  0.00  0.00    +0.000 A 
ATOM      3  S   UNL     1       7.967   6.687  18.804  0.00  0.00    +0.000 S 
ATOM      4  C   UNL     1       7.252   7.585  17.503  0.00  0.00    +0.000 A 
ATOM      5  N   UNL     1       6.367   7.028  16.644  0.00  0.00    +0.000 N 
ATOM      6  C   UNL     1       6.324   5.734  16.219  0.00  0.00    +0.000 C 
ATOM      7  N   UNL     1       7.335   4.930  16.174  0.00  0.00    +0.000 NA
ATOM      8  N   UNL     1       5.079   5.311  15.858  0.00  0.00    +0.000 N 
ATOM      9  N   UNL     1       7.610   8.853  17.463  0.00  0.00    +0.000 NA
ATOM     10  H   UNL     1       5.871   7.681  16.051  0.00  0.00    +0.000 HD
ATOM     11  H   UNL     1       8.176   5.432  16.469  0.00  0.00    +0.000 HD
ATOM     12  H   UNL     1       4.319   5.881  16.211  0.00  0.00    +0.000 HD
ENDROOT
BRANCH   1  19
ATOM     13  C   UNL     1       9.303  12.178  21.915  0.00  0.00    +0.000 A 
ATOM     14  C   UNL     1       9.947  13.324  21.452  0.00  0.00    +0.000 A 
ATOM     15  C   UNL     1      10.306  13.471  20.109  0.00  0.00    +0.000 A 
ATOM     16  C   UNL     1       9.996  12.427  19.236  0.00  0.00    +0.000 A 
ATOM     17  N   UNL     1      10.199  12.334  17.879  0.00  0.00    +0.000 N 
ATOM     18  C   UNL     1       9.723  11.138  17.416  0.00  0.00    +0.000 A 
ATOM     19  C   UNL     1       9.214  10.434  18.490  0.00  0.00    +0.000 A 
ATOM     20  C   UNL     1       9.377  11.247  19.654  0.00  0.00    +0.000 A 
ATOM     21  C   UNL     1       9.046  11.122  21.025  0.00  0.00    +0.000 A 
ATOM     22  H   UNL     1      10.610  13.062  17.312  0.00  0.00    +0.000 HD
BRANCH  13  26
ATOM     23  C   UNL     1       7.490  11.895  25.211  0.00  0.00    +0.000 C 
ATOM     24  C   UNL     1       7.578  12.054  23.715  0.00  0.00    +0.000 C 
ATOM     25  O   UNL     1       6.562  12.196  23.045  0.00  0.00    +0.000 OA
ATOM     26  N   UNL     1       8.883  12.019  23.254  0.00  0.00    +0.000 N 
ATOM     27  H   UNL     1       9.598  11.740  23.914  0.00  0.00    +0.000 HD
ENDBRANCH  13  26
ENDBRANCH   1  19
BRANCH   8  28
ATOM     28  C   UNL     1       4.796   3.885  16.007  0.00  0.00    +0.000 C 
BRANCH  28  29
ATOM     29  C   UNL     1       3.757   3.636  17.070  0.00  0.00    +0.000 A 
ATOM     30  C   UNL     1       2.925   4.673  17.512  0.00  0.00    +0.000 A 
ATOM     31  C   UNL     1       1.926   4.425  18.455  0.00  0.00    +0.000 A 
ATOM     32  C   UNL     1       1.749   3.139  18.963  0.00  0.00    +0.000 A 
ATOM     33  C   UNL     1       2.567   2.099  18.528  0.00  0.00    +0.000 A 
ATOM     34  C   UNL     1       3.566   2.345  17.585  0.00  0.00    +0.000 A 
ENDBRANCH  28  29
ENDBRANCH   8  28
TORSDOF 4
ENDMDL
