MODEL 1
REMARK VINA RESULT:      -8.3      0.000      0.000
REMARK  Name = 
REMARK  4 active torsions:
REMARK  status: ('A' for Active; 'I' for Inactive)
REMARK    1  A    between atoms: C_1  and  C_2
REMARK    2  A    between atoms: C_10  and  C_11
REMARK    3  A    between atoms: C_12  and  C_13
REMARK    4  A    between atoms: N_20  and  C_21
REMARK                            x       y       z     vdW  Elec       q    Type
REMARK                         _______ _______ _______ _____ _____    ______ ____
ROOT
ATOM      1  C   UNL     1      -0.029  10.438  20.108  0.00  0.00    +0.000 A 
ATOM      2  C   UNL     1      -0.376  10.736  21.389  0.00  0.00    +0.000 A 
ATOM      3  C   UNL     1       0.142   9.938  22.548  0.00  0.00    +0.000 A 
ATOM      4  O   UNL     1      -0.133  10.234  23.707  0.00  0.00    +0.000 OA
ATOM      5  N   UNL     1       0.934   8.850  22.263  0.00  0.00    +0.000 N 
ATOM      6  C   UNL     1       1.284   8.562  20.972  0.00  0.00    +0.000 A 
ATOM      7  N   UNL     1       2.054   7.562  20.572  0.00  0.00    +0.000 NA
ATOM      8  N   UNL     1       2.108   7.778  19.221  0.00  0.00    +0.000 N 
ATOM      9  N   UNL     1       1.400   8.852  18.760  0.00  0.00    +0.000 NA
ATOM     10  C   UNL     1       0.855   9.332  19.880  0.00  0.00    +0.000 A 
ATOM     11  H   UNL     1       1.299   8.274  23.009  0.00  0.00    +0.000 HD
ENDROOT
BRANCH   1  21
ATOM     12  C   UNL     1       1.003  13.245  18.905  0.00  0.00    +0.000 C 
ATOM     13  C   UNL     1      -0.106  12.353  18.480  0.00  0.00    +0.000 A 
ATOM     14  N   UNL     1      -0.904  12.678  17.409  0.00  0.00    +0.000 N 
ATOM     15  C   UNL     1      -1.848  11.704  17.186  0.00  0.00    +0.000 A 
ATOM     16  C   UNL     1      -2.849  11.627  16.210  0.00  0.00    +0.000 A 
ATOM     17  C   UNL     1      -3.681  10.505  16.220  0.00  0.00    +0.000 A 
ATOM     18  C   UNL     1      -3.518   9.502  17.172  0.00  0.00    +0.000 A 
ATOM     19  C   UNL     1      -2.513   9.595  18.142  0.00  0.00    +0.000 A 
ATOM     20  C   UNL     1      -1.656  10.717  18.152  0.00  0.00    +0.000 A 
ATOM     21  C   UNL     1      -0.560  11.139  18.968  0.00  0.00    +0.000 A 
ATOM     22  H   UNL     1      -0.816  13.517  16.849  0.00  0.00    +0.000 HD
ENDBRANCH   1  21
BRANCH   8  23
ATOM     23  C   UNL     1       2.875   6.952  18.358  0.00  0.00    +0.000 A 
ATOM     24  C   UNL     1       2.678   5.563  18.367  0.00  0.00    +0.000 A 
ATOM     25  C   UNL     1       3.444   4.746  17.533  0.00  0.00    +0.000 A 
ATOM     26  C   UNL     1       4.412   5.307  16.701  0.00  0.00    +0.000 A 
ATOM     27  C   UNL     1       4.608   6.689  16.688  0.00  0.00    +0.000 A 
ATOM     28  C   UNL     1       3.837   7.515  17.508  0.00  0.00    +0.000 A 
ENDBRANCH   8  23
BRANCH   2  29
ATOM     29  C   UNL     1      -1.337  11.881  21.661  0.00  0.00    +0.000 C 
ATOM     30  N   UNL     1      -2.134  12.833  21.886  0.00  0.00    +0.000 NA
ENDBRANCH   2  29
TORSDOF 3
ENDMDL
MODEL 2
REMARK VINA RESULT:      -8.0      0.730      1.124
REMARK  Name = 
REMARK  4 active torsions:
REMARK  status: ('A' for Active; 'I' for Inactive)
REMARK    1  A    between atoms: C_1  and  C_2
REMARK    2  A    between atoms: C_10  and  C_11
REMARK    3  A    between atoms: C_12  and  C_13
REMARK    4  A    between atoms: N_20  and  C_21
REMARK                            x       y       z     vdW  Elec       q    Type
REMARK                         _______ _______ _______ _____ _____    ______ ____
ROOT
ATOM      1  C   UNL     1      -0.489  10.779  20.123  0.00  0.00    +0.000 A 
ATOM      2  C   UNL     1      -0.977  11.183  21.326  0.00  0.00    +0.000 A 
ATOM      3  C   UNL     1      -0.566  10.516  22.605  0.00  0.00    +0.000 A 
ATOM      4  O   UNL     1      -0.970  10.909  23.695  0.00  0.00    +0.000 OA
ATOM      5  N   UNL     1       0.277   9.432  22.510  0.00  0.00    +0.000 N 
ATOM      6  C   UNL     1       0.769   9.037  21.296  0.00  0.00    +0.000 A 
ATOM      7  N   UNL     1       1.600   8.030  21.077  0.00  0.00    +0.000 NA
ATOM      8  N   UNL     1       1.793   8.121  19.724  0.00  0.00    +0.000 N 
ATOM      9  N   UNL     1       1.113   9.122  19.090  0.00  0.00    +0.000 NA
ATOM     10  C   UNL     1       0.440   9.686  20.096  0.00  0.00    +0.000 A 
ATOM     11  H   UNL     1       0.573   8.941  23.342  0.00  0.00    +0.000 HD
ENDROOT
BRANCH   1  21
ATOM     12  C   UNL     1       0.525  13.546  18.817  0.00  0.00    +0.000 C 
ATOM     13  C   UNL     1      -0.470  12.552  18.340  0.00  0.00    +0.000 A 
ATOM     14  N   UNL     1      -1.144  12.738  17.157  0.00  0.00    +0.000 N 
ATOM     15  C   UNL     1      -1.996  11.688  16.906  0.00  0.00    +0.000 A 
ATOM     16  C   UNL     1      -2.860  11.469  15.827  0.00  0.00    +0.000 A 
ATOM     17  C   UNL     1      -3.622  10.298  15.832  0.00  0.00    +0.000 A 
ATOM     18  C   UNL     1      -3.522   9.385  16.879  0.00  0.00    +0.000 A 
ATOM     19  C   UNL     1      -2.654   9.620  17.952  0.00  0.00    +0.000 A 
ATOM     20  C   UNL     1      -1.870  10.794  17.969  0.00  0.00    +0.000 A 
ATOM     21  C   UNL     1      -0.911  11.352  18.872  0.00  0.00    +0.000 A 
ATOM     22  H   UNL     1      -1.034  13.534  16.542  0.00  0.00    +0.000 HD
ENDBRANCH   1  21
BRANCH   8  23
ATOM     23  C   UNL     1       2.667   7.243  19.030  0.00  0.00    +0.000 A 
ATOM     24  C   UNL     1       3.227   7.642  17.807  0.00  0.00    +0.000 A 
ATOM     25  C   UNL     1       4.072   6.774  17.112  0.00  0.00    +0.000 A 
ATOM     26  C   UNL     1       4.350   5.508  17.626  0.00  0.00    +0.000 A 
ATOM     27  C   UNL     1       3.797   5.110  18.845  0.00  0.00    +0.000 A 
ATOM     28  C   UNL     1       2.962   5.977  19.554  0.00  0.00    +0.000 A 
ENDBRANCH   8  23
BRANCH   2  29
ATOM     29  C   UNL     1      -1.988  12.316  21.385  0.00  0.00    +0.000 C 
ATOM     30  N   UNL     1      -2.828  13.256  21.433  0.00  0.00    +0.000 NA
ENDBRANCH   2  29
TORSDOF 3
ENDMDL
MODEL 3
REMARK VINA RESULT:      -7.1      2.694      7.119
REMARK  Name = 
REMARK  4 active torsions:
REMARK  status: ('A' for Active; 'I' for Inactive)
REMARK    1  A    between atoms: C_1  and  C_2
REMARK    2  A    between atoms: C_10  and  C_11
REMARK    3  A    between atoms: C_12  and  C_13
REMARK    4  A    between atoms: N_20  and  C_21
REMARK                            x       y       z     vdW  Elec       q    Type
REMARK                         _______ _______ _______ _____ _____    ______ ____
ROOT
ATOM      1  C   UNL     1      -1.149  11.195  20.515  0.00  0.00    +0.000 A 
ATOM      2  C   UNL     1      -0.178  10.337  20.928  0.00  0.00    +0.000 A 
ATOM      3  C   UNL     1       0.015  10.009  22.379  0.00  0.00    +0.000 A 
ATOM      4  O   UNL     1       0.860   9.200  22.748  0.00  0.00    +0.000 OA
ATOM      5  N   UNL     1      -0.788  10.661  23.286  0.00  0.00    +0.000 N 
ATOM      6  C   UNL     1      -1.767  11.517  22.861  0.00  0.00    +0.000 A 
ATOM      7  N   UNL     1      -2.613  12.184  23.630  0.00  0.00    +0.000 NA
ATOM      8  N   UNL     1      -3.383  12.828  22.699  0.00  0.00    +0.000 N 
ATOM      9  N   UNL     1      -3.049  12.608  21.393  0.00  0.00    +0.000 NA
ATOM     10  C   UNL     1      -1.999  11.791  21.505  0.00  0.00    +0.000 A 
ATOM     11  H   UNL     1      -0.689  10.483  24.276  0.00  0.00    +0.000 HD
ENDROOT
BRANCH   1  21
ATOM     12  C   UNL     1       0.160  13.746  19.044  0.00  0.00    +0.000 C 
ATOM     13  C   UNL     1      -0.757  12.695  18.536  0.00  0.00    +0.000 A 
ATOM     14  N   UNL     1      -1.198  12.711  17.234  0.00  0.00    +0.000 N 
ATOM     15  C   UNL     1      -2.018  11.637  16.979  0.00  0.00    +0.000 A 
ATOM     16  C   UNL     1      -2.676  11.266  15.801  0.00  0.00    +0.000 A 
ATOM     17  C   UNL     1      -3.457  10.109  15.830  0.00  0.00    +0.000 A 
ATOM     18  C   UNL     1      -3.575   9.355  16.994  0.00  0.00    +0.000 A 
ATOM     19  C   UNL     1      -2.912   9.740  18.166  0.00  0.00    +0.000 A 
ATOM     20  C   UNL     1      -2.112  10.904  18.162  0.00  0.00    +0.000 A 
ATOM     21  C   UNL     1      -1.320  11.584  19.139  0.00  0.00    +0.000 A 
ATOM     22  H   UNL     1      -0.956  13.412  16.544  0.00  0.00    +0.000 HD
ENDBRANCH   1  21
BRANCH   8  23
ATOM     23  C   UNL     1      -4.478  13.653  23.070  0.00  0.00    +0.000 A 
ATOM     24  C   UNL     1      -5.668  13.067  23.526  0.00  0.00    +0.000 A 
ATOM     25  C   UNL     1      -6.753  13.875  23.875  0.00  0.00    +0.000 A 
ATOM     26  C   UNL     1      -6.658  15.261  23.758  0.00  0.00    +0.000 A 
ATOM     27  C   UNL     1      -5.473  15.847  23.308  0.00  0.00    +0.000 A 
ATOM     28  C   UNL     1      -4.379  15.048  22.971  0.00  0.00    +0.000 A 
ENDBRANCH   8  23
BRANCH   2  29
ATOM     29  C   UNL     1       0.760   9.715  19.906  0.00  0.00    +0.000 C 
ATOM     30  N   UNL     1       1.538   9.200  19.058  0.00  0.00    +0.000 NA
ENDBRANCH   2  29
TORSDOF 3
ENDMDL
MODEL 4
REMARK VINA RESULT:      -7.0      1.183      3.252
REMARK  Name = 
REMARK  4 active torsions:
REMARK  status: ('A' for Active; 'I' for Inactive)
REMARK    1  A    between atoms: C_1  and  C_2
REMARK    2  A    between atoms: C_10  and  C_11
REMARK    3  A    between atoms: C_12  and  C_13
REMARK    4  A    between atoms: N_20  and  C_21
REMARK                            x       y       z     vdW  Elec       q    Type
REMARK                         _______ _______ _______ _____ _____    ______ ____
ROOT
ATOM      1  C   UNL     1       0.565  10.829  20.625  0.00  0.00    +0.000 A 
ATOM      2  C   UNL     1      -0.051  10.959  21.830  0.00  0.00    +0.000 A 
ATOM      3  C   UNL     1      -0.156   9.809  22.787  0.00  0.00    +0.000 A 
ATOM      4  O   UNL     1      -0.670   9.937  23.893  0.00  0.00    +0.000 OA
ATOM      5  N   UNL     1       0.339   8.594  22.371  0.00  0.00    +0.000 N 
ATOM      6  C   UNL     1       0.962   8.473  21.160  0.00  0.00    +0.000 A 
ATOM      7  N   UNL     1       1.496   7.370  20.658  0.00  0.00    +0.000 NA
ATOM      8  N   UNL     1       2.014   7.827  19.476  0.00  0.00    +0.000 N 
ATOM      9  N   UNL     1       1.816   9.152  19.210  0.00  0.00    +0.000 NA
ATOM     10  C   UNL     1       1.120   9.553  20.277  0.00  0.00    +0.000 A 
ATOM     11  H   UNL     1       0.281   7.785  22.974  0.00  0.00    +0.000 HD
ENDROOT
BRANCH   1  21
ATOM     12  C   UNL     1      -1.388  11.262  18.097  0.00  0.00    +0.000 C 
ATOM     13  C   UNL     1      -0.218  12.046  18.568  0.00  0.00    +0.000 A 
ATOM     14  N   UNL     1       0.204  13.163  17.889  0.00  0.00    +0.000 N 
ATOM     15  C   UNL     1       1.286  13.739  18.512  0.00  0.00    +0.000 A 
ATOM     16  C   UNL     1       2.023  14.878  18.168  0.00  0.00    +0.000 A 
ATOM     17  C   UNL     1       3.090  15.236  18.995  0.00  0.00    +0.000 A 
ATOM     18  C   UNL     1       3.407  14.481  20.121  0.00  0.00    +0.000 A 
ATOM     19  C   UNL     1       2.662  13.342  20.451  0.00  0.00    +0.000 A 
ATOM     20  C   UNL     1       1.575  12.961  19.633  0.00  0.00    +0.000 A 
ATOM     21  C   UNL     1       0.626  11.891  19.655  0.00  0.00    +0.000 A 
ATOM     22  H   UNL     1      -0.218  13.526  17.043  0.00  0.00    +0.000 HD
ENDBRANCH   1  21
BRANCH   8  23
ATOM     23  C   UNL     1       2.734   6.979  18.594  0.00  0.00    +0.000 A 
ATOM     24  C   UNL     1       2.490   5.597  18.602  0.00  0.00    +0.000 A 
ATOM     25  C   UNL     1       3.210   4.758  17.749  0.00  0.00    +0.000 A 
ATOM     26  C   UNL     1       4.179   5.290  16.899  0.00  0.00    +0.000 A 
ATOM     27  C   UNL     1       4.422   6.664  16.887  0.00  0.00    +0.000 A 
ATOM     28  C   UNL     1       3.696   7.513  17.726  0.00  0.00    +0.000 A 
ENDBRANCH   8  23
BRANCH   2  29
ATOM     29  C   UNL     1      -0.679  12.289  22.214  0.00  0.00    +0.000 C 
ATOM     30  N   UNL     1      -1.201  13.392  22.533  0.00  0.00    +0.000 NA
ENDBRANCH   2  29
TORSDOF 3
ENDMDL
MODEL 5
REMARK VINA RESULT:      -6.9      3.274      8.160
REMARK  Name = 
REMARK  4 active torsions:
REMARK  status: ('A' for Active; 'I' for Inactive)
REMARK    1  A    between atoms: C_1  and  C_2
REMARK    2  A    between atoms: C_10  and  C_11
REMARK    3  A    between atoms: C_12  and  C_13
REMARK    4  A    between atoms: N_20  and  C_21
REMARK                            x       y       z     vdW  Elec       q    Type
REMARK                         _______ _______ _______ _____ _____    ______ ____
ROOT
ATOM      1  C   UNL     1       3.383   4.533  19.253  0.00  0.00    +0.000 A 
ATOM      2  C   UNL     1       3.335   3.491  20.125  0.00  0.00    +0.000 A 
ATOM      3  C   UNL     1       2.582   3.583  21.418  0.00  0.00    +0.000 A 
ATOM      4  O   UNL     1       2.499   2.628  22.184  0.00  0.00    +0.000 OA
ATOM      5  N   UNL     1       1.992   4.789  21.721  0.00  0.00    +0.000 N 
ATOM      6  C   UNL     1       2.039   5.829  20.835  0.00  0.00    +0.000 A 
ATOM      7  N   UNL     1       1.496   7.025  21.000  0.00  0.00    +0.000 NA
ATOM      8  N   UNL     1       1.801   7.634  19.812  0.00  0.00    +0.000 N 
ATOM      9  N   UNL     1       2.519   6.883  18.924  0.00  0.00    +0.000 NA
ATOM     10  C   UNL     1       2.691   5.742  19.595  0.00  0.00    +0.000 A 
ATOM     11  H   UNL     1       1.483   4.905  22.586  0.00  0.00    +0.000 HD
ENDROOT
BRANCH   1  21
ATOM     12  C   UNL     1       2.677   2.916  16.555  0.00  0.00    +0.000 C 
ATOM     13  C   UNL     1       3.831   3.787  16.894  0.00  0.00    +0.000 A 
ATOM     14  N   UNL     1       4.838   4.011  15.985  0.00  0.00    +0.000 N 
ATOM     15  C   UNL     1       5.789   4.859  16.503  0.00  0.00    +0.000 A 
ATOM     16  C   UNL     1       6.966   5.350  15.928  0.00  0.00    +0.000 A 
ATOM     17  C   UNL     1       7.756   6.209  16.697  0.00  0.00    +0.000 A 
ATOM     18  C   UNL     1       7.380   6.558  17.991  0.00  0.00    +0.000 A 
ATOM     19  C   UNL     1       6.200   6.057  18.553  0.00  0.00    +0.000 A 
ATOM     20  C   UNL     1       5.382   5.190  17.795  0.00  0.00    +0.000 A 
ATOM     21  C   UNL     1       4.150   4.503  18.035  0.00  0.00    +0.000 A 
ATOM     22  H   UNL     1       4.884   3.614  15.055  0.00  0.00    +0.000 HD
ENDBRANCH   1  21
BRANCH   8  23
ATOM     23  C   UNL     1       1.374   8.954  19.513  0.00  0.00    +0.000 A 
ATOM     24  C   UNL     1       1.791   9.568  18.322  0.00  0.00    +0.000 A 
ATOM     25  C   UNL     1       1.388  10.874  18.034  0.00  0.00    +0.000 A 
ATOM     26  C   UNL     1       0.582  11.572  18.932  0.00  0.00    +0.000 A 
ATOM     27  C   UNL     1       0.163  10.962  20.116  0.00  0.00    +0.000 A 
ATOM     28  C   UNL     1       0.549   9.652  20.406  0.00  0.00    +0.000 A 
ENDBRANCH   8  23
BRANCH   2  29
ATOM     29  C   UNL     1       4.086   2.208  19.805  0.00  0.00    +0.000 C 
ATOM     30  N   UNL     1       4.709   1.145  19.540  0.00  0.00    +0.000 NA
ENDBRANCH   2  29
TORSDOF 3
ENDMDL
MODEL 6
REMARK VINA RESULT:      -6.9      2.921      7.398
REMARK  Name = 
REMARK  4 active torsions:
REMARK  status: ('A' for Active; 'I' for Inactive)
REMARK    1  A    between atoms: C_1  and  C_2
REMARK    2  A    between atoms: C_10  and  C_11
REMARK    3  A    between atoms: C_12  and  C_13
REMARK    4  A    between atoms: N_20  and  C_21
REMARK                            x       y       z     vdW  Elec       q    Type
REMARK                         _______ _______ _______ _____ _____    ______ ____
ROOT
ATOM      1  C   UNL     1      -1.415  11.455  20.614  0.00  0.00    +0.000 A 
ATOM      2  C   UNL     1      -0.455  10.676  21.181  0.00  0.00    +0.000 A 
ATOM      3  C   UNL     1      -0.380  10.478  22.666  0.00  0.00    +0.000 A 
ATOM      4  O   UNL     1       0.456   9.738  23.174  0.00  0.00    +0.000 OA
ATOM      5  N   UNL     1      -1.282  11.169  23.442  0.00  0.00    +0.000 N 
ATOM      6  C   UNL     1      -2.248  11.945  22.863  0.00  0.00    +0.000 A 
ATOM      7  N   UNL     1      -3.181  12.638  23.497  0.00  0.00    +0.000 NA
ATOM      8  N   UNL     1      -3.888  13.170  22.451  0.00  0.00    +0.000 N 
ATOM      9  N   UNL     1      -3.432  12.856  21.202  0.00  0.00    +0.000 NA
ATOM     10  C   UNL     1      -2.369  12.095  21.473  0.00  0.00    +0.000 A 
ATOM     11  H   UNL     1      -1.264  11.078  24.448  0.00  0.00    +0.000 HD
ENDROOT
BRANCH   1  21
ATOM     12  C   UNL     1       0.033  13.858  19.027  0.00  0.00    +0.000 C 
ATOM     13  C   UNL     1      -0.856  12.770  18.546  0.00  0.00    +0.000 A 
ATOM     14  N   UNL     1      -1.198  12.672  17.218  0.00  0.00    +0.000 N 
ATOM     15  C   UNL     1      -2.010  11.584  16.998  0.00  0.00    +0.000 A 
ATOM     16  C   UNL     1      -2.582  11.114  15.810  0.00  0.00    +0.000 A 
ATOM     17  C   UNL     1      -3.378   9.968  15.882  0.00  0.00    +0.000 A 
ATOM     18  C   UNL     1      -3.592   9.322  17.096  0.00  0.00    +0.000 A 
ATOM     19  C   UNL     1      -3.014   9.806  18.276  0.00  0.00    +0.000 A 
ATOM     20  C   UNL     1      -2.202  10.960  18.230  0.00  0.00    +0.000 A 
ATOM     21  C   UNL     1      -1.477  11.720  19.201  0.00  0.00    +0.000 A 
ATOM     22  H   UNL     1      -0.897  13.308  16.489  0.00  0.00    +0.000 HD
ENDBRANCH   1  21
BRANCH   8  23
ATOM     23  C   UNL     1      -5.038  13.977  22.655  0.00  0.00    +0.000 A 
ATOM     24  C   UNL     1      -5.225  15.131  21.880  0.00  0.00    +0.000 A 
ATOM     25  C   UNL     1      -6.347  15.937  22.091  0.00  0.00    +0.000 A 
ATOM     26  C   UNL     1      -7.273  15.602  23.079  0.00  0.00    +0.000 A 
ATOM     27  C   UNL     1      -7.090  14.452  23.849  0.00  0.00    +0.000 A 
ATOM     28  C   UNL     1      -5.980  13.632  23.635  0.00  0.00    +0.000 A 
ENDBRANCH   8  23
BRANCH   2  29
ATOM     29  C   UNL     1       0.590  10.010  20.300  0.00  0.00    +0.000 C 
ATOM     30  N   UNL     1       1.458   9.458  19.571  0.00  0.00    +0.000 NA
ENDBRANCH   2  29
TORSDOF 3
ENDMDL
MODEL 7
REMARK VINA RESULT:      -6.7      4.568      7.854
REMARK  Name = 
REMARK  4 active torsions:
REMARK  status: ('A' for Active; 'I' for Inactive)
REMARK    1  A    between atoms: C_1  and  C_2
REMARK    2  A    between atoms: C_10  and  C_11
REMARK    3  A    between atoms: C_12  and  C_13
REMARK    4  A    between atoms: N_20  and  C_21
REMARK                            x       y       z     vdW  Elec       q    Type
REMARK                         _______ _______ _______ _____ _____    ______ ____
ROOT
ATOM      1  C   UNL     1       4.896   5.849  17.644  0.00  0.00    +0.000 A 
ATOM      2  C   UNL     1       4.847   4.768  16.820  0.00  0.00    +0.000 A 
ATOM      3  C   UNL     1       5.937   4.484  15.831  0.00  0.00    +0.000 A 
ATOM      4  O   UNL     1       5.917   3.485  15.120  0.00  0.00    +0.000 OA
ATOM      5  N   UNL     1       6.963   5.397  15.742  0.00  0.00    +0.000 N 
ATOM      6  C   UNL     1       7.009   6.478  16.579  0.00  0.00    +0.000 A 
ATOM      7  N   UNL     1       7.949   7.410  16.606  0.00  0.00    +0.000 NA
ATOM      8  N   UNL     1       7.527   8.197  17.645  0.00  0.00    +0.000 N 
ATOM      9  N   UNL     1       6.366   7.811  18.253  0.00  0.00    +0.000 NA
ATOM     10  C   UNL     1       6.026   6.728  17.550  0.00  0.00    +0.000 A 
ATOM     11  H   UNL     1       7.716   5.257  15.082  0.00  0.00    +0.000 HD
ENDROOT
BRANCH   1  21
ATOM     12  C   UNL     1       3.948   4.167  20.224  0.00  0.00    +0.000 C 
ATOM     13  C   UNL     1       3.440   5.439  19.652  0.00  0.00    +0.000 A 
ATOM     14  N   UNL     1       2.383   6.103  20.230  0.00  0.00    +0.000 N 
ATOM     15  C   UNL     1       2.098   7.261  19.547  0.00  0.00    +0.000 A 
ATOM     16  C   UNL     1       1.115   8.229  19.788  0.00  0.00    +0.000 A 
ATOM     17  C   UNL     1       1.052   9.321  18.919  0.00  0.00    +0.000 A 
ATOM     18  C   UNL     1       1.936   9.436  17.850  0.00  0.00    +0.000 A 
ATOM     19  C   UNL     1       2.912   8.458  17.621  0.00  0.00    +0.000 A 
ATOM     20  C   UNL     1       3.000   7.347  18.488  0.00  0.00    +0.000 A 
ATOM     21  C   UNL     1       3.837   6.189  18.558  0.00  0.00    +0.000 A 
ATOM     22  H   UNL     1       1.877   5.791  21.049  0.00  0.00    +0.000 HD
ENDBRANCH   1  21
BRANCH   8  23
ATOM     23  C   UNL     1       8.266   9.330  18.077  0.00  0.00    +0.000 A 
ATOM     24  C   UNL     1       9.071   9.239  19.223  0.00  0.00    +0.000 A 
ATOM     25  C   UNL     1       9.785  10.357  19.661  0.00  0.00    +0.000 A 
ATOM     26  C   UNL     1       9.689  11.564  18.970  0.00  0.00    +0.000 A 
ATOM     27  C   UNL     1       8.891  11.655  17.828  0.00  0.00    +0.000 A 
ATOM     28  C   UNL     1       8.185  10.539  17.373  0.00  0.00    +0.000 A 
ENDBRANCH   8  23
BRANCH   2  29
ATOM     29  C   UNL     1       3.647   3.837  16.873  0.00  0.00    +0.000 C 
ATOM     30  N   UNL     1       2.650   3.066  16.917  0.00  0.00    +0.000 NA
ENDBRANCH   2  29
TORSDOF 3
ENDMDL
MODEL 8
REMARK VINA RESULT:      -6.6      1.720      3.804
REMARK  Name = 
REMARK  4 active torsions:
REMARK  status: ('A' for Active; 'I' for Inactive)
REMARK    1  A    between atoms: C_1  and  C_2
REMARK    2  A    between atoms: C_10  and  C_11
REMARK    3  A    between atoms: C_12  and  C_13
REMARK    4  A    between atoms: N_20  and  C_21
REMARK                            x       y       z     vdW  Elec       q    Type
REMARK                         _______ _______ _______ _____ _____    ______ ____
ROOT
ATOM      1  C   UNL     1      -0.007  11.602  20.871  0.00  0.00    +0.000 A 
ATOM      2  C   UNL     1      -0.837  12.018  21.864  0.00  0.00    +0.000 A 
ATOM      3  C   UNL     1      -1.327  11.078  22.925  0.00  0.00    +0.000 A 
ATOM      4  O   UNL     1      -2.038  11.463  23.848  0.00  0.00    +0.000 OA
ATOM      5  N   UNL     1      -0.955   9.757  22.819  0.00  0.00    +0.000 N 
ATOM      6  C   UNL     1      -0.114   9.348  21.821  0.00  0.00    +0.000 A 
ATOM      7  N   UNL     1       0.331   8.116  21.626  0.00  0.00    +0.000 NA
ATOM      8  N   UNL     1       1.156   8.289  20.547  0.00  0.00    +0.000 N 
ATOM      9  N   UNL     1       1.234   9.560  20.052  0.00  0.00    +0.000 NA
ATOM     10  C   UNL     1       0.400  10.226  20.854  0.00  0.00    +0.000 A 
ATOM     11  H   UNL     1      -1.269   9.082  23.502  0.00  0.00    +0.000 HD
ENDROOT
BRANCH   1  21
ATOM     12  C   UNL     1      -1.458  12.043  18.028  0.00  0.00    +0.000 C 
ATOM     13  C   UNL     1      -0.206  12.619  18.581  0.00  0.00    +0.000 A 
ATOM     14  N   UNL     1       0.553  13.498  17.845  0.00  0.00    +0.000 N 
ATOM     15  C   UNL     1       1.651  13.916  18.560  0.00  0.00    +0.000 A 
ATOM     16  C   UNL     1       2.675  14.801  18.200  0.00  0.00    +0.000 A 
ATOM     17  C   UNL     1       3.681  15.045  19.138  0.00  0.00    +0.000 A 
ATOM     18  C   UNL     1       3.661  14.426  20.385  0.00  0.00    +0.000 A 
ATOM     19  C   UNL     1       2.631  13.542  20.729  0.00  0.00    +0.000 A 
ATOM     20  C   UNL     1       1.600  13.281  19.800  0.00  0.00    +0.000 A 
ATOM     21  C   UNL     1       0.429  12.459  19.801  0.00  0.00    +0.000 A 
ATOM     22  H   UNL     1       0.342  13.805  16.904  0.00  0.00    +0.000 HD
ENDBRANCH   1  21
BRANCH   8  23
ATOM     23  C   UNL     1       1.904   7.216  19.994  0.00  0.00    +0.000 A 
ATOM     24  C   UNL     1       2.613   7.405  18.798  0.00  0.00    +0.000 A 
ATOM     25  C   UNL     1       3.334   6.346  18.242  0.00  0.00    +0.000 A 
ATOM     26  C   UNL     1       3.340   5.099  18.867  0.00  0.00    +0.000 A 
ATOM     27  C   UNL     1       2.638   4.910  20.058  0.00  0.00    +0.000 A 
ATOM     28  C   UNL     1       1.926   5.967  20.630  0.00  0.00    +0.000 A 
ENDBRANCH   8  23
BRANCH   2  29
ATOM     29  C   UNL     1      -1.312  13.462  21.891  0.00  0.00    +0.000 C 
ATOM     30  N   UNL     1      -1.704  14.660  21.914  0.00  0.00    +0.000 NA
ENDBRANCH   2  29
TORSDOF 3
ENDMDL
MODEL 9
REMARK VINA RESULT:      -6.5      4.387      6.589
REMARK  Name = 
REMARK  4 active torsions:
REMARK  status: ('A' for Active; 'I' for Inactive)
REMARK    1  A    between atoms: C_1  and  C_2
REMARK    2  A    between atoms: C_10  and  C_11
REMARK    3  A    between atoms: C_12  and  C_13
REMARK    4  A    between atoms: N_20  and  C_21
REMARK                            x       y       z     vdW  Elec       q    Type
REMARK                         _______ _______ _______ _____ _____    ______ ____
ROOT
ATOM      1  C   UNL     1       0.185  15.143  20.662  0.00  0.00    +0.000 A 
ATOM      2  C   UNL     1       0.185  15.585  21.948  0.00  0.00    +0.000 A 
ATOM      3  C   UNL     1      -0.703  14.972  22.989  0.00  0.00    +0.000 A 
ATOM      4  O   UNL     1      -0.670  15.338  24.160  0.00  0.00    +0.000 OA
ATOM      5  N   UNL     1      -1.570  13.984  22.579  0.00  0.00    +0.000 N 
ATOM      6  C   UNL     1      -1.558  13.541  21.285  0.00  0.00    +0.000 A 
ATOM      7  N   UNL     1      -2.323  12.588  20.776  0.00  0.00    +0.000 NA
ATOM      8  N   UNL     1      -1.863  12.524  19.487  0.00  0.00    +0.000 N 
ATOM      9  N   UNL     1      -0.864  13.399  19.166  0.00  0.00    +0.000 NA
ATOM     10  C   UNL     1      -0.693  14.064  20.312  0.00  0.00    +0.000 A 
ATOM     11  H   UNL     1      -2.196  13.549  23.240  0.00  0.00    +0.000 HD
ENDROOT
BRANCH   1  21
ATOM     12  C   UNL     1       3.294  14.591  20.015  0.00  0.00    +0.000 C 
ATOM     13  C   UNL     1       2.315  15.506  19.376  0.00  0.00    +0.000 A 
ATOM     14  N   UNL     1       2.681  16.311  18.323  0.00  0.00    +0.000 N 
ATOM     15  C   UNL     1       1.615  17.056  17.879  0.00  0.00    +0.000 A 
ATOM     16  C   UNL     1       1.541  17.992  16.840  0.00  0.00    +0.000 A 
ATOM     17  C   UNL     1       0.310  18.609  16.608  0.00  0.00    +0.000 A 
ATOM     18  C   UNL     1      -0.802  18.301  17.388  0.00  0.00    +0.000 A 
ATOM     19  C   UNL     1      -0.712  17.364  18.424  0.00  0.00    +0.000 A 
ATOM     20  C   UNL     1       0.521  16.723  18.677  0.00  0.00    +0.000 A 
ATOM     21  C   UNL     1       0.974  15.750  19.623  0.00  0.00    +0.000 A 
ATOM     22  H   UNL     1       3.608  16.355  17.919  0.00  0.00    +0.000 HD
ENDBRANCH   1  21
BRANCH   8  23
ATOM     23  C   UNL     1      -2.378  11.588  18.552  0.00  0.00    +0.000 A 
ATOM     24  C   UNL     1      -1.502  10.717  17.885  0.00  0.00    +0.000 A 
ATOM     25  C   UNL     1      -2.003   9.808  16.951  0.00  0.00    +0.000 A 
ATOM     26  C   UNL     1      -3.369   9.773  16.671  0.00  0.00    +0.000 A 
ATOM     27  C   UNL     1      -4.242  10.636  17.336  0.00  0.00    +0.000 A 
ATOM     28  C   UNL     1      -3.752  11.538  18.282  0.00  0.00    +0.000 A 
ENDBRANCH   8  23
BRANCH   2  29
ATOM     29  C   UNL     1       1.080  16.748  22.343  0.00  0.00    +0.000 C 
ATOM     30  N   UNL     1       1.821  17.715  22.670  0.00  0.00    +0.000 NA
ENDBRANCH   2  29
TORSDOF 3
ENDMDL
