MODEL 1
REMARK VINA RESULT:      -7.5      0.000      0.000
REMARK  Name = 
REMARK  5 active torsions:
REMARK  status: ('A' for Active; 'I' for Inactive)
REMARK    1  A    between atoms: C_2  and  O_3
REMARK    2  A    between atoms: C_2  and  C_4
REMARK    3  A    between atoms: C_5  and  C_6
REMARK    4  A    between atoms: N_18  and  C_19
REMARK    5  A    between atoms: C_19  and  C_20
REMARK                            x       y       z     vdW  Elec       q    Type
REMARK                         _______ _______ _______ _____ _____    ______ ____
ROOT
ATOM      1  C   UNL     1       1.233   8.669  20.305  0.00  0.00    +0.000 A 
ATOM      2  C   UNL     1       1.117   9.754  19.426  0.00  0.00    +0.000 A 
ATOM      3  N   UNL     1       1.641   9.694  18.168  0.00  0.00    +0.000 NA
ATOM      4  C   UNL     1       2.290   8.566  17.786  0.00  0.00    +0.000 A 
ATOM      5  C   UNL     1       2.476   7.455  18.603  0.00  0.00    +0.000 A 
ATOM      6  C   UNL     1       1.903   7.496  19.884  0.00  0.00    +0.000 A 
ATOM      7  C   UNL     1       2.045   6.284  20.775  0.00  0.00    +0.000 C 
ATOM      8  C   UNL     1       2.377   5.010  19.999  0.00  0.00    +0.000 C 
ATOM      9  N   UNL     1       3.552   5.271  19.152  0.00  0.00    +0.000 NA
ATOM     10  C   UNL     1       3.169   6.213  18.079  0.00  0.00    +0.000 C 
ENDROOT
BRANCH   2  11
ATOM     11  C   UNL     1       0.454  11.039  19.729  0.00  0.00    +0.000 A 
ATOM     12  C   UNL     1      -0.879  11.322  19.475  0.00  0.00    +0.000 A 
ATOM     13  N   UNL     1      -1.485  12.508  19.715  0.00  0.00    +0.000 NA
ATOM     14  C   UNL     1      -0.703  13.461  20.238  0.00  0.00    +0.000 A 
ATOM     15  N   UNL     1       0.583  13.315  20.580  0.00  0.00    +0.000 NA
ATOM     16  C   UNL     1       1.123  12.102  20.321  0.00  0.00    +0.000 A 
ENDBRANCH   2  11
BRANCH   1  18
ATOM     17  O   UNL     1      -0.573   8.266  21.784  0.00  0.00    +0.000 OA
ATOM     18  C   UNL     1       0.553   8.695  21.615  0.00  0.00    +0.000 C 
BRANCH  18  19
ATOM     19  O   UNL     1       1.284   9.281  22.585  0.00  0.00    +0.000 OA
ATOM     20  H   UNL     1       0.786   9.607  23.357  0.00  0.00    +0.000 HD
ENDBRANCH  18  19
ENDBRANCH   1  18
BRANCH   9  21
ATOM     21  C   UNL     1       4.088   4.021  18.581  0.00  0.00    +0.000 C 
BRANCH  21  22
ATOM     22  C   UNL     1       5.384   4.232  17.865  0.00  0.00    +0.000 A 
ATOM     23  C   UNL     1       5.742   4.300  16.532  0.00  0.00    +0.000 A 
ATOM     24  C   UNL     1       7.132   4.574  16.503  0.00  0.00    +0.000 A 
ATOM     25  C   UNL     1       7.532   4.659  17.815  0.00  0.00    +0.000 A 
ATOM     26  O   UNL     1       6.481   4.453  18.648  0.00  0.00    +0.000 OA
ENDBRANCH  21  22
ENDBRANCH   9  21
TORSDOF 5
ENDMDL
MODEL 2
REMARK VINA RESULT:      -7.2      0.611      1.233
REMARK  Name = 
REMARK  5 active torsions:
REMARK  status: ('A' for Active; 'I' for Inactive)
REMARK    1  A    between atoms: C_2  and  O_3
REMARK    2  A    between atoms: C_2  and  C_4
REMARK    3  A    between atoms: C_5  and  C_6
REMARK    4  A    between atoms: N_18  and  C_19
REMARK    5  A    between atoms: C_19  and  C_20
REMARK                            x       y       z     vdW  Elec       q    Type
REMARK                         _______ _______ _______ _____ _____    ______ ____
ROOT
ATOM      1  C   UNL     1       1.248   8.677  20.299  0.00  0.00    +0.000 A 
ATOM      2  C   UNL     1       1.125   9.752  19.408  0.00  0.00    +0.000 A 
ATOM      3  N   UNL     1       1.633   9.674  18.145  0.00  0.00    +0.000 NA
ATOM      4  C   UNL     1       2.273   8.539  17.769  0.00  0.00    +0.000 A 
ATOM      5  C   UNL     1       2.465   7.437  18.599  0.00  0.00    +0.000 A 
ATOM      6  C   UNL     1       1.907   7.497  19.886  0.00  0.00    +0.000 A 
ATOM      7  C   UNL     1       2.056   6.295  20.790  0.00  0.00    +0.000 C 
ATOM      8  C   UNL     1       2.374   5.011  20.027  0.00  0.00    +0.000 C 
ATOM      9  N   UNL     1       3.539   5.256  19.162  0.00  0.00    +0.000 NA
ATOM     10  C   UNL     1       3.147   6.186  18.082  0.00  0.00    +0.000 C 
ENDROOT
BRANCH   2  11
ATOM     11  C   UNL     1       0.471  11.044  19.702  0.00  0.00    +0.000 A 
ATOM     12  C   UNL     1       1.096  12.132  20.292  0.00  0.00    +0.000 A 
ATOM     13  N   UNL     1       0.495  13.305  20.598  0.00  0.00    +0.000 NA
ATOM     14  C   UNL     1      -0.807  13.385  20.294  0.00  0.00    +0.000 A 
ATOM     15  N   UNL     1      -1.524  12.436  19.680  0.00  0.00    +0.000 NA
ATOM     16  C   UNL     1      -0.860  11.293  19.395  0.00  0.00    +0.000 A 
ENDBRANCH   2  11
BRANCH   1  18
ATOM     17  O   UNL     1      -0.544   8.304  21.804  0.00  0.00    +0.000 OA
ATOM     18  C   UNL     1       0.584   8.723  21.617  0.00  0.00    +0.000 C 
BRANCH  18  19
ATOM     19  O   UNL     1       1.331   9.313  22.571  0.00  0.00    +0.000 OA
ATOM     20  H   UNL     1       0.843   9.845  23.228  0.00  0.00    +0.000 HD
ENDBRANCH  18  19
ENDBRANCH   1  18
BRANCH   9  21
ATOM     21  C   UNL     1       4.064   3.997  18.601  0.00  0.00    +0.000 C 
BRANCH  21  22
ATOM     22  C   UNL     1       5.250   4.218  17.716  0.00  0.00    +0.000 A 
ATOM     23  C   UNL     1       6.521   4.716  17.924  0.00  0.00    +0.000 A 
ATOM     24  C   UNL     1       7.199   4.619  16.684  0.00  0.00    +0.000 A 
ATOM     25  C   UNL     1       6.302   4.066  15.801  0.00  0.00    +0.000 A 
ATOM     26  O   UNL     1       5.118   3.820  16.416  0.00  0.00    +0.000 OA
ENDBRANCH  21  22
ENDBRANCH   9  21
TORSDOF 5
ENDMDL
MODEL 3
REMARK VINA RESULT:      -7.2      0.847      1.033
REMARK  Name = 
REMARK  5 active torsions:
REMARK  status: ('A' for Active; 'I' for Inactive)
REMARK    1  A    between atoms: C_2  and  O_3
REMARK    2  A    between atoms: C_2  and  C_4
REMARK    3  A    between atoms: C_5  and  C_6
REMARK    4  A    between atoms: N_18  and  C_19
REMARK    5  A    between atoms: C_19  and  C_20
REMARK                            x       y       z     vdW  Elec       q    Type
REMARK                         _______ _______ _______ _____ _____    ______ ____
ROOT
ATOM      1  C   UNL     1       0.919   9.061  20.526  0.00  0.00    +0.000 A 
ATOM      2  C   UNL     1       0.695  10.207  19.752  0.00  0.00    +0.000 A 
ATOM      3  N   UNL     1       1.180  10.298  18.481  0.00  0.00    +0.000 NA
ATOM      4  C   UNL     1       1.897   9.261  17.982  0.00  0.00    +0.000 A 
ATOM      5  C   UNL     1       2.191   8.100  18.691  0.00  0.00    +0.000 A 
ATOM      6  C   UNL     1       1.658   7.984  19.984  0.00  0.00    +0.000 A 
ATOM      7  C   UNL     1       1.919   6.713  20.759  0.00  0.00    +0.000 C 
ATOM      8  C   UNL     1       2.317   5.541  19.863  0.00  0.00    +0.000 C 
ATOM      9  N   UNL     1       3.441   5.964  19.012  0.00  0.00    +0.000 NA
ATOM     10  C   UNL     1       2.955   6.965  18.038  0.00  0.00    +0.000 C 
ENDROOT
BRANCH   2  11
ATOM     11  C   UNL     1      -0.050  11.407  20.186  0.00  0.00    +0.000 A 
ATOM     12  C   UNL     1      -1.396  11.634  19.945  0.00  0.00    +0.000 A 
ATOM     13  N   UNL     1      -2.077  12.746  20.307  0.00  0.00    +0.000 NA
ATOM     14  C   UNL     1      -1.362  13.680  20.946  0.00  0.00    +0.000 A 
ATOM     15  N   UNL     1      -0.072  13.576  21.289  0.00  0.00    +0.000 NA
ATOM     16  C   UNL     1       0.545  12.435  20.905  0.00  0.00    +0.000 A 
ENDBRANCH   2  11
BRANCH   1  18
ATOM     17  O   UNL     1      -0.802   8.392  22.011  0.00  0.00    +0.000 OA
ATOM     18  C   UNL     1       0.283   8.921  21.851  0.00  0.00    +0.000 C 
BRANCH  18  19
ATOM     19  O   UNL     1       0.998   9.476  22.849  0.00  0.00    +0.000 OA
ATOM     20  H   UNL     1       1.677  10.122  22.580  0.00  0.00    +0.000 HD
ENDBRANCH  18  19
ENDBRANCH   1  18
BRANCH   9  21
ATOM     21  C   UNL     1       4.049   4.813  18.317  0.00  0.00    +0.000 C 
BRANCH  21  22
ATOM     22  C   UNL     1       5.537   4.929  18.218  0.00  0.00    +0.000 A 
ATOM     23  C   UNL     1       6.517   5.429  19.053  0.00  0.00    +0.000 A 
ATOM     24  C   UNL     1       7.755   5.199  18.403  0.00  0.00    +0.000 A 
ATOM     25  C   UNL     1       7.453   4.570  17.218  0.00  0.00    +0.000 A 
ATOM     26  O   UNL     1       6.112   4.402  17.096  0.00  0.00    +0.000 OA
ENDBRANCH  21  22
ENDBRANCH   9  21
TORSDOF 5
ENDMDL
MODEL 4
REMARK VINA RESULT:      -7.0      3.176      4.677
REMARK  Name = 
REMARK  5 active torsions:
REMARK  status: ('A' for Active; 'I' for Inactive)
REMARK    1  A    between atoms: C_2  and  O_3
REMARK    2  A    between atoms: C_2  and  C_4
REMARK    3  A    between atoms: C_5  and  C_6
REMARK    4  A    between atoms: N_18  and  C_19
REMARK    5  A    between atoms: C_19  and  C_20
REMARK                            x       y       z     vdW  Elec       q    Type
REMARK                         _______ _______ _______ _____ _____    ______ ____
ROOT
ATOM      1  C   UNL     1      -0.636  11.131  21.055  0.00  0.00    +0.000 A 
ATOM      2  C   UNL     1      -0.899  11.307  22.420  0.00  0.00    +0.000 A 
ATOM      3  N   UNL     1      -0.381  10.453  23.347  0.00  0.00    +0.000 NA
ATOM      4  C   UNL     1       0.386   9.418  22.924  0.00  0.00    +0.000 A 
ATOM      5  C   UNL     1       0.672   9.152  21.588  0.00  0.00    +0.000 A 
ATOM      6  C   UNL     1       0.176  10.053  20.632  0.00  0.00    +0.000 A 
ATOM      7  C   UNL     1       0.514   9.818  19.178  0.00  0.00    +0.000 C 
ATOM      8  C   UNL     1       1.733   8.917  18.989  0.00  0.00    +0.000 C 
ATOM      9  N   UNL     1       1.526   7.682  19.761  0.00  0.00    +0.000 NA
ATOM     10  C   UNL     1       1.583   8.003  21.203  0.00  0.00    +0.000 C 
ENDROOT
BRANCH   2  11
ATOM     11  C   UNL     1      -1.732  12.379  23.004  0.00  0.00    +0.000 A 
ATOM     12  C   UNL     1      -1.272  13.642  23.345  0.00  0.00    +0.000 A 
ATOM     13  N   UNL     1      -2.019  14.617  23.914  0.00  0.00    +0.000 NA
ATOM     14  C   UNL     1      -3.298  14.300  24.154  0.00  0.00    +0.000 A 
ATOM     15  N   UNL     1      -3.888  13.142  23.834  0.00  0.00    +0.000 NA
ATOM     16  C   UNL     1      -3.087  12.216  23.260  0.00  0.00    +0.000 A 
ENDBRANCH   2  11
BRANCH   1  18
ATOM     17  O   UNL     1      -2.152  12.039  19.476  0.00  0.00    +0.000 OA
ATOM     18  C   UNL     1      -1.095  12.133  20.072  0.00  0.00    +0.000 C 
BRANCH  18  19
ATOM     19  O   UNL     1      -0.209  13.129  19.872  0.00  0.00    +0.000 OA
ATOM     20  H   UNL     1       0.731  12.895  19.984  0.00  0.00    +0.000 HD
ENDBRANCH  18  19
ENDBRANCH   1  18
BRANCH   9  21
ATOM     21  C   UNL     1       2.531   6.659  19.415  0.00  0.00    +0.000 C 
BRANCH  21  22
ATOM     22  C   UNL     1       1.969   5.272  19.451  0.00  0.00    +0.000 A 
ATOM     23  C   UNL     1       1.430   4.483  20.448  0.00  0.00    +0.000 A 
ATOM     24  C   UNL     1       1.028   3.274  19.829  0.00  0.00    +0.000 A 
ATOM     25  C   UNL     1       1.341   3.403  18.497  0.00  0.00    +0.000 A 
ATOM     26  O   UNL     1       1.912   4.610  18.257  0.00  0.00    +0.000 OA
ENDBRANCH  21  22
ENDBRANCH   9  21
TORSDOF 5
ENDMDL
MODEL 5
REMARK VINA RESULT:      -7.0      3.087      4.478
REMARK  Name = 
REMARK  5 active torsions:
REMARK  status: ('A' for Active; 'I' for Inactive)
REMARK    1  A    between atoms: C_2  and  O_3
REMARK    2  A    between atoms: C_2  and  C_4
REMARK    3  A    between atoms: C_5  and  C_6
REMARK    4  A    between atoms: N_18  and  C_19
REMARK    5  A    between atoms: C_19  and  C_20
REMARK                            x       y       z     vdW  Elec       q    Type
REMARK                         _______ _______ _______ _____ _____    ______ ____
ROOT
ATOM      1  C   UNL     1      -0.642  11.085  21.028  0.00  0.00    +0.000 A 
ATOM      2  C   UNL     1      -0.867  11.243  22.402  0.00  0.00    +0.000 A 
ATOM      3  N   UNL     1      -0.290  10.402  23.306  0.00  0.00    +0.000 NA
ATOM      4  C   UNL     1       0.497   9.397  22.851  0.00  0.00    +0.000 A 
ATOM      5  C   UNL     1       0.750   9.149  21.504  0.00  0.00    +0.000 A 
ATOM      6  C   UNL     1       0.192  10.038  20.572  0.00  0.00    +0.000 A 
ATOM      7  C   UNL     1       0.491   9.824  19.106  0.00  0.00    +0.000 C 
ATOM      8  C   UNL     1       1.733   8.967  18.871  0.00  0.00    +0.000 C 
ATOM      9  N   UNL     1       1.594   7.720  19.640  0.00  0.00    +0.000 NA
ATOM     10  C   UNL     1       1.686   8.034  21.082  0.00  0.00    +0.000 C 
ENDROOT
BRANCH   2  11
ATOM     11  C   UNL     1      -1.717  12.282  23.021  0.00  0.00    +0.000 A 
ATOM     12  C   UNL     1      -3.051  12.115  23.361  0.00  0.00    +0.000 A 
ATOM     13  N   UNL     1      -3.846  13.072  23.894  0.00  0.00    +0.000 NA
ATOM     14  C   UNL     1      -3.263  14.261  24.094  0.00  0.00    +0.000 A 
ATOM     15  N   UNL     1      -1.978  14.551  23.861  0.00  0.00    +0.000 NA
ATOM     16  C   UNL     1      -1.238  13.546  23.337  0.00  0.00    +0.000 A 
ENDBRANCH   2  11
BRANCH   1  18
ATOM     17  O   UNL     1      -2.239  11.950  19.506  0.00  0.00    +0.000 OA
ATOM     18  C   UNL     1      -1.167  12.077  20.068  0.00  0.00    +0.000 C 
BRANCH  18  19
ATOM     19  O   UNL     1      -0.322  13.103  19.845  0.00  0.00    +0.000 OA
ATOM     20  H   UNL     1       0.236  13.369  20.600  0.00  0.00    +0.000 HD
ENDBRANCH  18  19
ENDBRANCH   1  18
BRANCH   9  21
ATOM     21  C   UNL     1       2.622   6.735  19.255  0.00  0.00    +0.000 C 
BRANCH  21  22
ATOM     22  C   UNL     1       2.046   5.375  19.013  0.00  0.00    +0.000 A 
ATOM     23  C   UNL     1       1.912   4.577  17.893  0.00  0.00    +0.000 A 
ATOM     24  C   UNL     1       1.322   3.367  18.331  0.00  0.00    +0.000 A 
ATOM     25  C   UNL     1       1.137   3.500  19.687  0.00  0.00    +0.000 A 
ATOM     26  O   UNL     1       1.572   4.713  20.110  0.00  0.00    +0.000 OA
ENDBRANCH  21  22
ENDBRANCH   9  21
TORSDOF 5
ENDMDL
MODEL 6
REMARK VINA RESULT:      -6.9      1.398      1.965
REMARK  Name = 
REMARK  5 active torsions:
REMARK  status: ('A' for Active; 'I' for Inactive)
REMARK    1  A    between atoms: C_2  and  O_3
REMARK    2  A    between atoms: C_2  and  C_4
REMARK    3  A    between atoms: C_5  and  C_6
REMARK    4  A    between atoms: N_18  and  C_19
REMARK    5  A    between atoms: C_19  and  C_20
REMARK                            x       y       z     vdW  Elec       q    Type
REMARK                         _______ _______ _______ _____ _____    ______ ____
ROOT
ATOM      1  C   UNL     1       0.924   9.055  20.396  0.00  0.00    +0.000 A 
ATOM      2  C   UNL     1       0.606  10.185  19.631  0.00  0.00    +0.000 A 
ATOM      3  N   UNL     1       1.092  10.331  18.365  0.00  0.00    +0.000 NA
ATOM      4  C   UNL     1       1.902   9.367  17.863  0.00  0.00    +0.000 A 
ATOM      5  C   UNL     1       2.292   8.229  18.563  0.00  0.00    +0.000 A 
ATOM      6  C   UNL     1       1.760   8.053  19.850  0.00  0.00    +0.000 A 
ATOM      7  C   UNL     1       2.125   6.801  20.615  0.00  0.00    +0.000 C 
ATOM      8  C   UNL     1       2.633   5.679  19.711  0.00  0.00    +0.000 C 
ATOM      9  N   UNL     1       3.723   6.208  18.876  0.00  0.00    +0.000 NA
ATOM     10  C   UNL     1       3.159   7.173  17.907  0.00  0.00    +0.000 C 
ENDROOT
BRANCH   2  11
ATOM     11  C   UNL     1      -0.246  11.310  20.069  0.00  0.00    +0.000 A 
ATOM     12  C   UNL     1      -1.576  11.480  19.717  0.00  0.00    +0.000 A 
ATOM     13  N   UNL     1      -2.353  12.525  20.084  0.00  0.00    +0.000 NA
ATOM     14  C   UNL     1      -1.755  13.449  20.847  0.00  0.00    +0.000 A 
ATOM     15  N   UNL     1      -0.499  13.392  21.303  0.00  0.00    +0.000 NA
ATOM     16  C   UNL     1       0.219  12.315  20.906  0.00  0.00    +0.000 A 
ENDBRANCH   2  11
BRANCH   1  18
ATOM     17  O   UNL     1      -0.767   8.257  21.851  0.00  0.00    +0.000 OA
ATOM     18  C   UNL     1       0.290   8.844  21.712  0.00  0.00    +0.000 C 
BRANCH  18  19
ATOM     19  O   UNL     1       0.973   9.406  22.730  0.00  0.00    +0.000 OA
ATOM     20  H   UNL     1       1.890   9.673  22.533  0.00  0.00    +0.000 HD
ENDBRANCH  18  19
ENDBRANCH   1  18
BRANCH   9  21
ATOM     21  C   UNL     1       4.436   5.123  18.176  0.00  0.00    +0.000 C 
BRANCH  21  22
ATOM     22  C   UNL     1       3.634   3.862  18.112  0.00  0.00    +0.000 A 
ATOM     23  C   UNL     1       2.506   3.478  17.414  0.00  0.00    +0.000 A 
ATOM     24  C   UNL     1       2.266   2.124  17.751  0.00  0.00    +0.000 A 
ATOM     25  C   UNL     1       3.262   1.766  18.628  0.00  0.00    +0.000 A 
ATOM     26  O   UNL     1       4.096   2.812  18.854  0.00  0.00    +0.000 OA
ENDBRANCH  21  22
ENDBRANCH   9  21
TORSDOF 5
ENDMDL
MODEL 7
REMARK VINA RESULT:      -6.9      3.118      4.559
REMARK  Name = 
REMARK  5 active torsions:
REMARK  status: ('A' for Active; 'I' for Inactive)
REMARK    1  A    between atoms: C_2  and  O_3
REMARK    2  A    between atoms: C_2  and  C_4
REMARK    3  A    between atoms: C_5  and  C_6
REMARK    4  A    between atoms: N_18  and  C_19
REMARK    5  A    between atoms: C_19  and  C_20
REMARK                            x       y       z     vdW  Elec       q    Type
REMARK                         _______ _______ _______ _____ _____    ______ ____
ROOT
ATOM      1  C   UNL     1      -0.597  11.085  21.062  0.00  0.00    +0.000 A 
ATOM      2  C   UNL     1      -0.865  11.273  22.424  0.00  0.00    +0.000 A 
ATOM      3  N   UNL     1      -0.351  10.427  23.361  0.00  0.00    +0.000 NA
ATOM      4  C   UNL     1       0.416   9.387  22.949  0.00  0.00    +0.000 A 
ATOM      5  C   UNL     1       0.707   9.110  21.616  0.00  0.00    +0.000 A 
ATOM      6  C   UNL     1       0.216  10.003  20.651  0.00  0.00    +0.000 A 
ATOM      7  C   UNL     1       0.558   9.755  19.200  0.00  0.00    +0.000 C 
ATOM      8  C   UNL     1       1.777   8.851  19.023  0.00  0.00    +0.000 C 
ATOM      9  N   UNL     1       1.565   7.622  19.805  0.00  0.00    +0.000 NA
ATOM     10  C   UNL     1       1.617   7.956  21.244  0.00  0.00    +0.000 C 
ENDROOT
BRANCH   2  11
ATOM     11  C   UNL     1      -1.699  12.351  22.996  0.00  0.00    +0.000 A 
ATOM     12  C   UNL     1      -3.042  12.228  23.317  0.00  0.00    +0.000 A 
ATOM     13  N   UNL     1      -3.821  13.220  23.807  0.00  0.00    +0.000 NA
ATOM     14  C   UNL     1      -3.212  14.400  23.982  0.00  0.00    +0.000 A 
ATOM     15  N   UNL     1      -1.916  14.650  23.764  0.00  0.00    +0.000 NA
ATOM     16  C   UNL     1      -1.193  13.612  23.284  0.00  0.00    +0.000 A 
ENDBRANCH   2  11
BRANCH   1  18
ATOM     17  O   UNL     1      -0.399  13.064  19.774  0.00  0.00    +0.000 OA
ATOM     18  C   UNL     1      -1.051  12.079  20.069  0.00  0.00    +0.000 C 
BRANCH  18  19
ATOM     19  O   UNL     1      -2.271  11.810  19.562  0.00  0.00    +0.000 OA
ATOM     20  H   UNL     1      -2.327  11.037  18.971  0.00  0.00    +0.000 HD
ENDBRANCH  18  19
ENDBRANCH   1  18
BRANCH   9  21
ATOM     21  C   UNL     1       2.570   6.595  19.471  0.00  0.00    +0.000 C 
BRANCH  21  22
ATOM     22  C   UNL     1       2.216   5.251  20.023  0.00  0.00    +0.000 A 
ATOM     23  C   UNL     1       1.025   4.635  20.357  0.00  0.00    +0.000 A 
ATOM     24  C   UNL     1       1.355   3.326  20.783  0.00  0.00    +0.000 A 
ATOM     25  C   UNL     1       2.722   3.223  20.679  0.00  0.00    +0.000 A 
ATOM     26  O   UNL     1       3.254   4.384  20.220  0.00  0.00    +0.000 OA
ENDBRANCH  21  22
ENDBRANCH   9  21
TORSDOF 5
ENDMDL
MODEL 8
REMARK VINA RESULT:      -6.9      1.418      2.083
REMARK  Name = 
REMARK  5 active torsions:
REMARK  status: ('A' for Active; 'I' for Inactive)
REMARK    1  A    between atoms: C_2  and  O_3
REMARK    2  A    between atoms: C_2  and  C_4
REMARK    3  A    between atoms: C_5  and  C_6
REMARK    4  A    between atoms: N_18  and  C_19
REMARK    5  A    between atoms: C_19  and  C_20
REMARK                            x       y       z     vdW  Elec       q    Type
REMARK                         _______ _______ _______ _____ _____    ______ ____
ROOT
ATOM      1  C   UNL     1       0.957   9.111  20.403  0.00  0.00    +0.000 A 
ATOM      2  C   UNL     1       0.685  10.320  19.749  0.00  0.00    +0.000 A 
ATOM      3  N   UNL     1       1.157  10.555  18.491  0.00  0.00    +0.000 NA
ATOM      4  C   UNL     1       1.909   9.601  17.888  0.00  0.00    +0.000 A 
ATOM      5  C   UNL     1       2.251   8.387  18.476  0.00  0.00    +0.000 A 
ATOM      6  C   UNL     1       1.732   8.122  19.753  0.00  0.00    +0.000 A 
ATOM      7  C   UNL     1       2.045   6.790  20.396  0.00  0.00    +0.000 C 
ATOM      8  C   UNL     1       2.480   5.730  19.385  0.00  0.00    +0.000 C 
ATOM      9  N   UNL     1       3.582   6.278  18.578  0.00  0.00    +0.000 NA
ATOM     10  C   UNL     1       3.053   7.352  17.711  0.00  0.00    +0.000 C 
ENDROOT
BRANCH   2  11
ATOM     11  C   UNL     1      -0.101  11.441  20.304  0.00  0.00    +0.000 A 
ATOM     12  C   UNL     1       0.384  12.380  21.201  0.00  0.00    +0.000 A 
ATOM     13  N   UNL     1      -0.339  13.388  21.742  0.00  0.00    +0.000 NA
ATOM     14  C   UNL     1      -1.621  13.452  21.357  0.00  0.00    +0.000 A 
ATOM     15  N   UNL     1      -2.208  12.647  20.464  0.00  0.00    +0.000 NA
ATOM     16  C   UNL     1      -1.426  11.667  19.956  0.00  0.00    +0.000 A 
ENDBRANCH   2  11
BRANCH   1  18
ATOM     17  O   UNL     1      -0.728   8.233  21.818  0.00  0.00    +0.000 OA
ATOM     18  C   UNL     1       0.335   8.815  21.709  0.00  0.00    +0.000 C 
BRANCH  18  19
ATOM     19  O   UNL     1       1.037   9.292  22.756  0.00  0.00    +0.000 OA
ATOM     20  H   UNL     1       1.552   8.635  23.261  0.00  0.00    +0.000 HD
ENDBRANCH  18  19
ENDBRANCH   1  18
BRANCH   9  21
ATOM     21  C   UNL     1       4.227   5.227  17.769  0.00  0.00    +0.000 C 
BRANCH  21  22
ATOM     22  C   UNL     1       3.889   3.850  18.249  0.00  0.00    +0.000 A 
ATOM     23  C   UNL     1       3.036   2.862  17.799  0.00  0.00    +0.000 A 
ATOM     24  C   UNL     1       3.209   1.756  18.668  0.00  0.00    +0.000 A 
ATOM     25  C   UNL     1       4.157   2.137  19.587  0.00  0.00    +0.000 A 
ATOM     26  O   UNL     1       4.576   3.404  19.342  0.00  0.00    +0.000 OA
ENDBRANCH  21  22
ENDBRANCH   9  21
TORSDOF 5
ENDMDL
MODEL 9
REMARK VINA RESULT:      -6.8      2.695      3.908
REMARK  Name = 
REMARK  5 active torsions:
REMARK  status: ('A' for Active; 'I' for Inactive)
REMARK    1  A    between atoms: C_2  and  O_3
REMARK    2  A    between atoms: C_2  and  C_4
REMARK    3  A    between atoms: C_5  and  C_6
REMARK    4  A    between atoms: N_18  and  C_19
REMARK    5  A    between atoms: C_19  and  C_20
REMARK                            x       y       z     vdW  Elec       q    Type
REMARK                         _______ _______ _______ _____ _____    ______ ____
ROOT
ATOM      1  C   UNL     1       0.107  10.723  20.158  0.00  0.00    +0.000 A 
ATOM      2  C   UNL     1      -0.052  10.836  21.545  0.00  0.00    +0.000 A 
ATOM      3  N   UNL     1       0.504   9.922  22.390  0.00  0.00    +0.000 NA
ATOM      4  C   UNL     1       1.206   8.889  21.861  0.00  0.00    +0.000 A 
ATOM      5  C   UNL     1       1.387   8.684  20.496  0.00  0.00    +0.000 A 
ATOM      6  C   UNL     1       0.852   9.645  19.625  0.00  0.00    +0.000 A 
ATOM      7  C   UNL     1       1.077   9.476  18.140  0.00  0.00    +0.000 C 
ATOM      8  C   UNL     1       2.250   8.551  17.818  0.00  0.00    +0.000 C 
ATOM      9  N   UNL     1       2.060   7.285  18.542  0.00  0.00    +0.000 NA
ATOM     10  C   UNL     1       2.231   7.530  19.990  0.00  0.00    +0.000 C 
ENDROOT
BRANCH   2  11
ATOM     11  C   UNL     1      -0.806  11.900  22.241  0.00  0.00    +0.000 A 
ATOM     12  C   UNL     1      -0.388  13.216  22.365  0.00  0.00    +0.000 A 
ATOM     13  N   UNL     1      -1.054  14.187  23.032  0.00  0.00    +0.000 NA
ATOM     14  C   UNL     1      -2.204  13.810  23.605  0.00  0.00    +0.000 A 
ATOM     15  N   UNL     1      -2.753  12.592  23.527  0.00  0.00    +0.000 NA
ATOM     16  C   UNL     1      -2.039  11.672  22.838  0.00  0.00    +0.000 A 
ENDBRANCH   2  11
BRANCH   1  18
ATOM     17  O   UNL     1       0.284  12.749  18.943  0.00  0.00    +0.000 OA
ATOM     18  C   UNL     1      -0.389  11.786  19.262  0.00  0.00    +0.000 C 
BRANCH  18  19
ATOM     19  O   UNL     1      -1.668  11.606  18.875  0.00  0.00    +0.000 OA
ATOM     20  H   UNL     1      -1.877  11.862  17.958  0.00  0.00    +0.000 HD
ENDBRANCH  18  19
ENDBRANCH   1  18
BRANCH   9  21
ATOM     21  C   UNL     1       3.005   6.253  18.074  0.00  0.00    +0.000 C 
BRANCH  21  22
ATOM     22  C   UNL     1       2.499   4.866  18.314  0.00  0.00    +0.000 A 
ATOM     23  C   UNL     1       1.477   4.111  17.771  0.00  0.00    +0.000 A 
ATOM     24  C   UNL     1       1.543   2.840  18.392  0.00  0.00    +0.000 A 
ATOM     25  C   UNL     1       2.600   2.897  19.268  0.00  0.00    +0.000 A 
ATOM     26  O   UNL     1       3.186   4.120  19.229  0.00  0.00    +0.000 OA
ENDBRANCH  21  22
ENDBRANCH   9  21
TORSDOF 5
ENDMDL
