MODEL 1
REMARK VINA RESULT:      -7.2      0.000      0.000
REMARK  Name = 
REMARK  7 active torsions:
REMARK  status: ('A' for Active; 'I' for Inactive)
REMARK    1  A    between atoms: C_1  and  C_2
REMARK    2  A    between atoms: C_2  and  C_3
REMARK    3  A    between atoms: C_2  and  C_4
REMARK    4  A    between atoms: C_4  and  C_5
REMARK    5  A    between atoms: C_4  and  N_7
REMARK    6  A    between atoms: C_8  and  C_10
REMARK    7  A    between atoms: C_19  and  C_20
REMARK                            x       y       z     vdW  Elec       q    Type
REMARK                         _______ _______ _______ _____ _____    ______ ____
ROOT
ATOM      1  C   UNL     1       4.366   5.192  16.699  0.00  0.00    +0.000 C 
ATOM      2  C   UNL     1       4.803   6.629  16.415  0.00  0.00    +0.000 C 
ATOM      3  C   UNL     1       6.084   6.929  17.131  0.00  0.00    +0.000 A 
ATOM      4  C   UNL     1       6.483   8.257  17.315  0.00  0.00    +0.000 A 
ATOM      5  C   UNL     1       7.657   8.545  18.010  0.00  0.00    +0.000 A 
ATOM      6  C   UNL     1       8.436   7.511  18.528  0.00  0.00    +0.000 A 
ATOM      7  C   UNL     1       8.055   6.186  18.326  0.00  0.00    +0.000 A 
ATOM      8  C   UNL     1       6.899   5.896  17.609  0.00  0.00    +0.000 A 
ATOM      9  O   UNL     1       6.624   4.566  17.439  0.00  0.00    +0.000 OA
ATOM     10  C   UNL     1       5.578   4.261  16.485  0.00  0.00    +0.000 C 
ENDROOT
BRANCH   1  12
ATOM     11  N   UNL     1       3.941   3.668  18.626  0.00  0.00    +0.000 N 
ATOM     12  C   UNL     1       3.811   4.937  18.112  0.00  0.00    +0.000 C 
ATOM     13  O   UNL     1       3.338   5.847  18.790  0.00  0.00    +0.000 OA
ATOM     14  H   UNL     1       4.365   2.929  18.089  0.00  0.00    +0.000 HD
BRANCH  11  15
ATOM     15  C   UNL     1       3.439   3.292  19.952  0.00  0.00    +0.000 C 
BRANCH  15  17
ATOM     16  C   UNL     1       0.960   3.742  20.373  0.00  0.00    +0.000 C 
ATOM     17  C   UNL     1       1.993   2.727  19.873  0.00  0.00    +0.000 C 
ATOM     18  C   UNL     1       1.590   2.247  18.471  0.00  0.00    +0.000 C 
ENDBRANCH  15  17
BRANCH  15  19
ATOM     19  C   UNL     1       4.363   2.323  20.597  0.00  0.00    +0.000 C 
ATOM     20  N   UNL     1       5.058   1.563  21.125  0.00  0.00    +0.000 NA
ENDBRANCH  15  19
ENDBRANCH  11  15
ENDBRANCH   1  12
BRANCH  10  21
ATOM     21  C   UNL     1       6.130   4.229  15.045  0.00  0.00    +0.000 C 
ATOM     22  F   UNL     1       5.312   4.843  14.160  0.00  0.00    +0.000 F 
ATOM     23  F   UNL     1       7.345   4.814  14.933  0.00  0.00    +0.000 F 
ATOM     24  F   UNL     1       6.270   2.952  14.613  0.00  0.00    +0.000 F 
ENDBRANCH  10  21
TORSDOF 5
ENDMDL
MODEL 2
REMARK VINA RESULT:      -7.1      2.131      3.686
REMARK  Name = 
REMARK  7 active torsions:
REMARK  status: ('A' for Active; 'I' for Inactive)
REMARK    1  A    between atoms: C_1  and  C_2
REMARK    2  A    between atoms: C_2  and  C_3
REMARK    3  A    between atoms: C_2  and  C_4
REMARK    4  A    between atoms: C_4  and  C_5
REMARK    5  A    between atoms: C_4  and  N_7
REMARK    6  A    between atoms: C_8  and  C_10
REMARK    7  A    between atoms: C_19  and  C_20
REMARK                            x       y       z     vdW  Elec       q    Type
REMARK                         _______ _______ _______ _____ _____    ______ ____
ROOT
ATOM      1  C   UNL     1       6.886   5.595  18.752  0.00  0.00    +0.000 C 
ATOM      2  C   UNL     1       7.611   4.796  17.670  0.00  0.00    +0.000 C 
ATOM      3  C   UNL     1       6.837   4.844  16.388  0.00  0.00    +0.000 A 
ATOM      4  C   UNL     1       7.105   3.913  15.378  0.00  0.00    +0.000 A 
ATOM      5  C   UNL     1       6.366   3.930  14.197  0.00  0.00    +0.000 A 
ATOM      6  C   UNL     1       5.355   4.873  14.016  0.00  0.00    +0.000 A 
ATOM      7  C   UNL     1       5.101   5.818  15.008  0.00  0.00    +0.000 A 
ATOM      8  C   UNL     1       5.856   5.819  16.178  0.00  0.00    +0.000 A 
ATOM      9  O   UNL     1       5.551   6.804  17.079  0.00  0.00    +0.000 OA
ATOM     10  C   UNL     1       6.494   6.968  18.166  0.00  0.00    +0.000 C 
ENDROOT
BRANCH   1  12
ATOM     11  N   UNL     1       5.540   3.564  19.284  0.00  0.00    +0.000 N 
ATOM     12  C   UNL     1       5.614   4.937  19.319  0.00  0.00    +0.000 C 
ATOM     13  O   UNL     1       4.731   5.604  19.855  0.00  0.00    +0.000 OA
ATOM     14  H   UNL     1       6.280   3.012  18.882  0.00  0.00    +0.000 HD
BRANCH  11  15
ATOM     15  C   UNL     1       4.375   2.819  19.775  0.00  0.00    +0.000 C 
BRANCH  15  17
ATOM     16  C   UNL     1       2.117   1.960  18.945  0.00  0.00    +0.000 C 
ATOM     17  C   UNL     1       3.603   2.140  18.610  0.00  0.00    +0.000 C 
ATOM     18  C   UNL     1       3.731   2.875  17.268  0.00  0.00    +0.000 C 
ENDBRANCH  15  17
BRANCH  15  19
ATOM     19  C   UNL     1       4.796   1.824  20.796  0.00  0.00    +0.000 C 
ATOM     20  N   UNL     1       5.151   1.038  21.568  0.00  0.00    +0.000 NA
ENDBRANCH  15  19
ENDBRANCH  11  15
ENDBRANCH   1  12
BRANCH  10  21
ATOM     21  C   UNL     1       7.680   7.859  17.744  0.00  0.00    +0.000 C 
ATOM     22  F   UNL     1       8.177   7.526  16.531  0.00  0.00    +0.000 F 
ATOM     23  F   UNL     1       7.360   9.173  17.694  0.00  0.00    +0.000 F 
ATOM     24  F   UNL     1       8.706   7.740  18.623  0.00  0.00    +0.000 F 
ENDBRANCH  10  21
TORSDOF 5
ENDMDL
MODEL 3
REMARK VINA RESULT:      -7.1      0.340      1.123
REMARK  Name = 
REMARK  7 active torsions:
REMARK  status: ('A' for Active; 'I' for Inactive)
REMARK    1  A    between atoms: C_1  and  C_2
REMARK    2  A    between atoms: C_2  and  C_3
REMARK    3  A    between atoms: C_2  and  C_4
REMARK    4  A    between atoms: C_4  and  C_5
REMARK    5  A    between atoms: C_4  and  N_7
REMARK    6  A    between atoms: C_8  and  C_10
REMARK    7  A    between atoms: C_19  and  C_20
REMARK                            x       y       z     vdW  Elec       q    Type
REMARK                         _______ _______ _______ _____ _____    ______ ____
ROOT
ATOM      1  C   UNL     1       4.373   5.356  16.603  0.00  0.00    +0.000 C 
ATOM      2  C   UNL     1       4.906   6.762  16.328  0.00  0.00    +0.000 C 
ATOM      3  C   UNL     1       6.166   6.996  17.104  0.00  0.00    +0.000 A 
ATOM      4  C   UNL     1       6.633   8.301  17.295  0.00  0.00    +0.000 A 
ATOM      5  C   UNL     1       7.786   8.529  18.045  0.00  0.00    +0.000 A 
ATOM      6  C   UNL     1       8.478   7.458  18.609  0.00  0.00    +0.000 A 
ATOM      7  C   UNL     1       8.032   6.155  18.400  0.00  0.00    +0.000 A 
ATOM      8  C   UNL     1       6.896   5.924  17.630  0.00  0.00    +0.000 A 
ATOM      9  O   UNL     1       6.553   4.609  17.458  0.00  0.00    +0.000 OA
ATOM     10  C   UNL     1       5.539   4.354  16.457  0.00  0.00    +0.000 C 
ENDROOT
BRANCH   1  12
ATOM     11  N   UNL     1       3.937   3.936  18.606  0.00  0.00    +0.000 N 
ATOM     12  C   UNL     1       3.737   5.150  17.990  0.00  0.00    +0.000 C 
ATOM     13  O   UNL     1       3.138   6.057  18.562  0.00  0.00    +0.000 OA
ATOM     14  H   UNL     1       4.462   3.203  18.156  0.00  0.00    +0.000 HD
BRANCH  11  15
ATOM     15  C   UNL     1       3.369   3.608  19.918  0.00  0.00    +0.000 C 
BRANCH  15  17
ATOM     16  C   UNL     1       1.650   2.091  18.793  0.00  0.00    +0.000 C 
ATOM     17  C   UNL     1       1.869   3.220  19.807  0.00  0.00    +0.000 C 
ATOM     18  C   UNL     1       1.228   2.825  21.145  0.00  0.00    +0.000 C 
ENDBRANCH  15  17
BRANCH  15  19
ATOM     19  C   UNL     1       4.160   2.529  20.565  0.00  0.00    +0.000 C 
ATOM     20  N   UNL     1       4.803   1.712  21.073  0.00  0.00    +0.000 NA
ENDBRANCH  15  19
ENDBRANCH  11  15
ENDBRANCH   1  12
BRANCH  10  21
ATOM     21  C   UNL     1       6.157   4.274  15.046  0.00  0.00    +0.000 C 
ATOM     22  F   UNL     1       7.402   4.800  14.992  0.00  0.00    +0.000 F 
ATOM     23  F   UNL     1       6.241   3.007  14.579  0.00  0.00    +0.000 F 
ATOM     24  F   UNL     1       5.409   4.971  14.154  0.00  0.00    +0.000 F 
ENDBRANCH  10  21
TORSDOF 5
ENDMDL
MODEL 4
REMARK VINA RESULT:      -7.0      2.063      3.650
REMARK  Name = 
REMARK  7 active torsions:
REMARK  status: ('A' for Active; 'I' for Inactive)
REMARK    1  A    between atoms: C_1  and  C_2
REMARK    2  A    between atoms: C_2  and  C_3
REMARK    3  A    between atoms: C_2  and  C_4
REMARK    4  A    between atoms: C_4  and  C_5
REMARK    5  A    between atoms: C_4  and  N_7
REMARK    6  A    between atoms: C_8  and  C_10
REMARK    7  A    between atoms: C_19  and  C_20
REMARK                            x       y       z     vdW  Elec       q    Type
REMARK                         _______ _______ _______ _____ _____    ______ ____
ROOT
ATOM      1  C   UNL     1       6.017   5.744  18.781  0.00  0.00    +0.000 C 
ATOM      2  C   UNL     1       6.742   4.650  17.997  0.00  0.00    +0.000 C 
ATOM      3  C   UNL     1       6.312   4.674  16.562  0.00  0.00    +0.000 A 
ATOM      4  C   UNL     1       6.556   3.564  15.745  0.00  0.00    +0.000 A 
ATOM      5  C   UNL     1       6.129   3.566  14.418  0.00  0.00    +0.000 A 
ATOM      6  C   UNL     1       5.455   4.671  13.900  0.00  0.00    +0.000 A 
ATOM      7  C   UNL     1       5.232   5.788  14.703  0.00  0.00    +0.000 A 
ATOM      8  C   UNL     1       5.681   5.799  16.020  0.00  0.00    +0.000 A 
ATOM      9  O   UNL     1       5.440   6.951  16.719  0.00  0.00    +0.000 OA
ATOM     10  C   UNL     1       6.126   7.065  17.989  0.00  0.00    +0.000 C 
ENDROOT
BRANCH   1  12
ATOM     11  N   UNL     1       4.156   4.184  19.344  0.00  0.00    +0.000 N 
ATOM     12  C   UNL     1       4.528   5.478  19.065  0.00  0.00    +0.000 C 
ATOM     13  O   UNL     1       3.711   6.396  19.118  0.00  0.00    +0.000 OA
ATOM     14  H   UNL     1       4.829   3.436  19.341  0.00  0.00    +0.000 HD
BRANCH  11  15
ATOM     15  C   UNL     1       2.766   3.797  19.613  0.00  0.00    +0.000 C 
BRANCH  15  17
ATOM     16  C   UNL     1       3.169   1.856  18.003  0.00  0.00    +0.000 C 
ATOM     17  C   UNL     1       2.182   2.937  18.458  0.00  0.00    +0.000 C 
ATOM     18  C   UNL     1       0.835   2.280  18.793  0.00  0.00    +0.000 C 
ENDBRANCH  15  17
BRANCH  15  19
ATOM     19  C   UNL     1       2.674   3.087  20.915  0.00  0.00    +0.000 C 
ATOM     20  N   UNL     1       2.621   2.561  21.946  0.00  0.00    +0.000 NA
ENDBRANCH  15  19
ENDBRANCH  11  15
ENDBRANCH   1  12
BRANCH  10  21
ATOM     21  C   UNL     1       7.561   7.597  17.802  0.00  0.00    +0.000 C 
ATOM     22  F   UNL     1       8.103   7.227  16.619  0.00  0.00    +0.000 F 
ATOM     23  F   UNL     1       7.636   8.946  17.867  0.00  0.00    +0.000 F 
ATOM     24  F   UNL     1       8.382   7.113  18.766  0.00  0.00    +0.000 F 
ENDBRANCH  10  21
TORSDOF 5
ENDMDL
MODEL 5
REMARK VINA RESULT:      -7.0      2.091      3.681
REMARK  Name = 
REMARK  7 active torsions:
REMARK  status: ('A' for Active; 'I' for Inactive)
REMARK    1  A    between atoms: C_1  and  C_2
REMARK    2  A    between atoms: C_2  and  C_3
REMARK    3  A    between atoms: C_2  and  C_4
REMARK    4  A    between atoms: C_4  and  C_5
REMARK    5  A    between atoms: C_4  and  N_7
REMARK    6  A    between atoms: C_8  and  C_10
REMARK    7  A    between atoms: C_19  and  C_20
REMARK                            x       y       z     vdW  Elec       q    Type
REMARK                         _______ _______ _______ _____ _____    ______ ____
ROOT
ATOM      1  C   UNL     1       6.002   5.686  18.829  0.00  0.00    +0.000 C 
ATOM      2  C   UNL     1       6.690   4.581  18.028  0.00  0.00    +0.000 C 
ATOM      3  C   UNL     1       6.261   4.640  16.594  0.00  0.00    +0.000 A 
ATOM      4  C   UNL     1       6.469   3.536  15.760  0.00  0.00    +0.000 A 
ATOM      5  C   UNL     1       6.043   3.572  14.433  0.00  0.00    +0.000 A 
ATOM      6  C   UNL     1       5.406   4.706  13.932  0.00  0.00    +0.000 A 
ATOM      7  C   UNL     1       5.219   5.817  14.752  0.00  0.00    +0.000 A 
ATOM      8  C   UNL     1       5.668   5.794  16.069  0.00  0.00    +0.000 A 
ATOM      9  O   UNL     1       5.465   6.942  16.786  0.00  0.00    +0.000 OA
ATOM     10  C   UNL     1       6.153   7.014  18.057  0.00  0.00    +0.000 C 
ENDROOT
BRANCH   1  12
ATOM     11  N   UNL     1       4.110   4.205  19.495  0.00  0.00    +0.000 N 
ATOM     12  C   UNL     1       4.504   5.465  19.109  0.00  0.00    +0.000 C 
ATOM     13  O   UNL     1       3.699   6.393  19.067  0.00  0.00    +0.000 OA
ATOM     14  H   UNL     1       4.773   3.451  19.569  0.00  0.00    +0.000 HD
BRANCH  11  15
ATOM     15  C   UNL     1       2.711   3.861  19.773  0.00  0.00    +0.000 C 
BRANCH  15  17
ATOM     16  C   UNL     1       1.461   4.072  17.556  0.00  0.00    +0.000 C 
ATOM     17  C   UNL     1       2.064   3.104  18.580  0.00  0.00    +0.000 C 
ATOM     18  C   UNL     1       3.021   2.142  17.861  0.00  0.00    +0.000 C 
ENDBRANCH  15  17
BRANCH  15  19
ATOM     19  C   UNL     1       2.616   3.071  21.028  0.00  0.00    +0.000 C 
ATOM     20  N   UNL     1       2.580   2.455  22.008  0.00  0.00    +0.000 NA
ENDBRANCH  15  19
ENDBRANCH  11  15
ENDBRANCH   1  12
BRANCH  10  21
ATOM     21  C   UNL     1       7.605   7.502  17.877  0.00  0.00    +0.000 C 
ATOM     22  F   UNL     1       8.444   7.000  18.813  0.00  0.00    +0.000 F 
ATOM     23  F   UNL     1       8.123   7.181  16.669  0.00  0.00    +0.000 F 
ATOM     24  F   UNL     1       7.676   8.851  17.987  0.00  0.00    +0.000 F 
ENDBRANCH  10  21
TORSDOF 5
ENDMDL
MODEL 6
REMARK VINA RESULT:      -6.7      3.254      5.502
REMARK  Name = 
REMARK  7 active torsions:
REMARK  status: ('A' for Active; 'I' for Inactive)
REMARK    1  A    between atoms: C_1  and  C_2
REMARK    2  A    between atoms: C_2  and  C_3
REMARK    3  A    between atoms: C_2  and  C_4
REMARK    4  A    between atoms: C_4  and  C_5
REMARK    5  A    between atoms: C_4  and  N_7
REMARK    6  A    between atoms: C_8  and  C_10
REMARK    7  A    between atoms: C_19  and  C_20
REMARK                            x       y       z     vdW  Elec       q    Type
REMARK                         _______ _______ _______ _____ _____    ______ ____
ROOT
ATOM      1  C   UNL     1       3.818   4.093  19.438  0.00  0.00    +0.000 C 
ATOM      2  C   UNL     1       3.063   5.029  20.382  0.00  0.00    +0.000 C 
ATOM      3  C   UNL     1       2.589   6.239  19.638  0.00  0.00    +0.000 A 
ATOM      4  C   UNL     1       2.199   7.382  20.345  0.00  0.00    +0.000 A 
ATOM      5  C   UNL     1       1.789   8.524  19.659  0.00  0.00    +0.000 A 
ATOM      6  C   UNL     1       1.769   8.534  18.265  0.00  0.00    +0.000 A 
ATOM      7  C   UNL     1       2.132   7.390  17.556  0.00  0.00    +0.000 A 
ATOM      8  C   UNL     1       2.516   6.241  18.241  0.00  0.00    +0.000 A 
ATOM      9  O   UNL     1       2.827   5.161  17.459  0.00  0.00    +0.000 OA
ATOM     10  C   UNL     1       2.973   3.903  18.161  0.00  0.00    +0.000 C 
ENDROOT
BRANCH   1  12
ATOM     11  N   UNL     1       5.531   4.520  17.678  0.00  0.00    +0.000 N 
ATOM     12  C   UNL     1       5.220   4.570  19.017  0.00  0.00    +0.000 C 
ATOM     13  O   UNL     1       6.007   5.049  19.831  0.00  0.00    +0.000 OA
ATOM     14  H   UNL     1       4.874   4.166  17.002  0.00  0.00    +0.000 HD
BRANCH  11  15
ATOM     15  C   UNL     1       6.839   4.928  17.151  0.00  0.00    +0.000 C 
BRANCH  15  17
ATOM     16  C   UNL     1       5.877   3.546  15.229  0.00  0.00    +0.000 C 
ATOM     17  C   UNL     1       7.088   4.340  15.734  0.00  0.00    +0.000 C 
ATOM     18  C   UNL     1       7.474   5.391  14.684  0.00  0.00    +0.000 C 
ENDBRANCH  15  17
BRANCH  15  19
ATOM     19  C   UNL     1       6.953   6.409  17.148  0.00  0.00    +0.000 C 
ATOM     20  N   UNL     1       7.078   7.560  17.143  0.00  0.00    +0.000 NA
ENDBRANCH  15  19
ENDBRANCH  11  15
ENDBRANCH   1  12
BRANCH  10  21
ATOM     21  C   UNL     1       1.605   3.225  18.379  0.00  0.00    +0.000 C 
ATOM     22  F   UNL     1       1.263   3.150  19.685  0.00  0.00    +0.000 F 
ATOM     23  F   UNL     1       0.594   3.860  17.741  0.00  0.00    +0.000 F 
ATOM     24  F   UNL     1       1.620   1.951  17.915  0.00  0.00    +0.000 F 
ENDBRANCH  10  21
TORSDOF 5
ENDMDL
MODEL 7
REMARK VINA RESULT:      -6.6      3.484      6.022
REMARK  Name = 
REMARK  7 active torsions:
REMARK  status: ('A' for Active; 'I' for Inactive)
REMARK    1  A    between atoms: C_1  and  C_2
REMARK    2  A    between atoms: C_2  and  C_3
REMARK    3  A    between atoms: C_2  and  C_4
REMARK    4  A    between atoms: C_4  and  C_5
REMARK    5  A    between atoms: C_4  and  N_7
REMARK    6  A    between atoms: C_8  and  C_10
REMARK    7  A    between atoms: C_19  and  C_20
REMARK                            x       y       z     vdW  Elec       q    Type
REMARK                         _______ _______ _______ _____ _____    ______ ____
ROOT
ATOM      1  C   UNL     1       2.557   5.970  18.172  0.00  0.00    +0.000 C 
ATOM      2  C   UNL     1       1.971   4.611  17.791  0.00  0.00    +0.000 C 
ATOM      3  C   UNL     1       2.842   3.510  18.311  0.00  0.00    +0.000 A 
ATOM      4  C   UNL     1       2.712   2.216  17.793  0.00  0.00    +0.000 A 
ATOM      5  C   UNL     1       3.543   1.194  18.248  0.00  0.00    +0.000 A 
ATOM      6  C   UNL     1       4.508   1.455  19.219  0.00  0.00    +0.000 A 
ATOM      7  C   UNL     1       4.625   2.735  19.757  0.00  0.00    +0.000 A 
ATOM      8  C   UNL     1       3.778   3.751  19.323  0.00  0.00    +0.000 A 
ATOM      9  O   UNL     1       3.950   4.966  19.931  0.00  0.00    +0.000 OA
ATOM     10  C   UNL     1       2.914   5.944  19.674  0.00  0.00    +0.000 C 
ENDROOT
BRANCH   1  12
ATOM     11  N   UNL     1       4.591   5.391  16.851  0.00  0.00    +0.000 N 
ATOM     12  C   UNL     1       3.815   6.390  17.389  0.00  0.00    +0.000 C 
ATOM     13  O   UNL     1       4.078   7.574  17.185  0.00  0.00    +0.000 OA
ATOM     14  H   UNL     1       4.357   4.420  16.982  0.00  0.00    +0.000 HD
BRANCH  11  15
ATOM     15  C   UNL     1       5.823   5.659  16.100  0.00  0.00    +0.000 C 
BRANCH  15  17
ATOM     16  C   UNL     1       7.381   7.161  17.455  0.00  0.00    +0.000 C 
ATOM     17  C   UNL     1       7.059   5.721  17.040  0.00  0.00    +0.000 C 
ATOM     18  C   UNL     1       6.927   4.852  18.298  0.00  0.00    +0.000 C 
ENDBRANCH  15  17
BRANCH  15  19
ATOM     19  C   UNL     1       6.006   4.640  15.034  0.00  0.00    +0.000 C 
ATOM     20  N   UNL     1       6.132   3.869  14.180  0.00  0.00    +0.000 NA
ENDBRANCH  15  19
ENDBRANCH  11  15
ENDBRANCH   1  12
BRANCH  10  21
ATOM     21  C   UNL     1       1.716   5.750  20.625  0.00  0.00    +0.000 C 
ATOM     22  F   UNL     1       1.172   6.922  21.025  0.00  0.00    +0.000 F 
ATOM     23  F   UNL     1       0.720   5.017  20.075  0.00  0.00    +0.000 F 
ATOM     24  F   UNL     1       2.100   5.103  21.754  0.00  0.00    +0.000 F 
ENDBRANCH  10  21
TORSDOF 5
ENDMDL
MODEL 8
REMARK VINA RESULT:      -6.5      3.413      5.986
REMARK  Name = 
REMARK  7 active torsions:
REMARK  status: ('A' for Active; 'I' for Inactive)
REMARK    1  A    between atoms: C_1  and  C_2
REMARK    2  A    between atoms: C_2  and  C_3
REMARK    3  A    between atoms: C_2  and  C_4
REMARK    4  A    between atoms: C_4  and  C_5
REMARK    5  A    between atoms: C_4  and  N_7
REMARK    6  A    between atoms: C_8  and  C_10
REMARK    7  A    between atoms: C_19  and  C_20
REMARK                            x       y       z     vdW  Elec       q    Type
REMARK                         _______ _______ _______ _____ _____    ______ ____
ROOT
ATOM      1  C   UNL     1       2.792   5.263  17.278  0.00  0.00    +0.000 C 
ATOM      2  C   UNL     1       1.515   4.599  17.794  0.00  0.00    +0.000 C 
ATOM      3  C   UNL     1       1.696   4.170  19.217  0.00  0.00    +0.000 A 
ATOM      4  C   UNL     1       0.817   3.238  19.780  0.00  0.00    +0.000 A 
ATOM      5  C   UNL     1       0.999   2.809  21.094  0.00  0.00    +0.000 A 
ATOM      6  C   UNL     1       2.060   3.302  21.851  0.00  0.00    +0.000 A 
ATOM      7  C   UNL     1       2.924   4.248  21.304  0.00  0.00    +0.000 A 
ATOM      8  C   UNL     1       2.727   4.699  20.002  0.00  0.00    +0.000 A 
ATOM      9  O   UNL     1       3.609   5.650  19.563  0.00  0.00    +0.000 OA
ATOM     10  C   UNL     1       3.257   6.302  18.320  0.00  0.00    +0.000 C 
ENDROOT
BRANCH   1  12
ATOM     11  N   UNL     1       5.186   4.871  16.704  0.00  0.00    +0.000 N 
ATOM     12  C   UNL     1       3.966   4.308  16.999  0.00  0.00    +0.000 C 
ATOM     13  O   UNL     1       3.843   3.089  17.109  0.00  0.00    +0.000 OA
ATOM     14  H   UNL     1       5.300   5.870  16.652  0.00  0.00    +0.000 HD
BRANCH  11  15
ATOM     15  C   UNL     1       6.378   4.071  16.401  0.00  0.00    +0.000 C 
BRANCH  15  17
ATOM     16  C   UNL     1       5.862   3.816  13.913  0.00  0.00    +0.000 C 
ATOM     17  C   UNL     1       6.874   4.318  14.949  0.00  0.00    +0.000 C 
ATOM     18  C   UNL     1       7.215   5.785  14.650  0.00  0.00    +0.000 C 
ENDBRANCH  15  17
BRANCH  15  19
ATOM     19  C   UNL     1       7.450   4.350  17.392  0.00  0.00    +0.000 C 
ATOM     20  N   UNL     1       8.309   4.567  18.137  0.00  0.00    +0.000 NA
ENDBRANCH  15  19
ENDBRANCH  11  15
ENDBRANCH   1  12
BRANCH  10  21
ATOM     21  C   UNL     1       2.276   7.467  18.561  0.00  0.00    +0.000 C 
ATOM     22  F   UNL     1       1.250   7.476  17.680  0.00  0.00    +0.000 F 
ATOM     23  F   UNL     1       1.733   7.451  19.801  0.00  0.00    +0.000 F 
ATOM     24  F   UNL     1       2.905   8.661  18.426  0.00  0.00    +0.000 F 
ENDBRANCH  10  21
TORSDOF 5
ENDMDL
MODEL 9
REMARK VINA RESULT:      -6.5      4.094      5.309
REMARK  Name = 
REMARK  7 active torsions:
REMARK  status: ('A' for Active; 'I' for Inactive)
REMARK    1  A    between atoms: C_1  and  C_2
REMARK    2  A    between atoms: C_2  and  C_3
REMARK    3  A    between atoms: C_2  and  C_4
REMARK    4  A    between atoms: C_4  and  C_5
REMARK    5  A    between atoms: C_4  and  N_7
REMARK    6  A    between atoms: C_8  and  C_10
REMARK    7  A    between atoms: C_19  and  C_20
REMARK                            x       y       z     vdW  Elec       q    Type
REMARK                         _______ _______ _______ _____ _____    ______ ____
ROOT
ATOM      1  C   UNL     1       2.316   5.019  18.892  0.00  0.00    +0.000 C 
ATOM      2  C   UNL     1       2.787   4.382  17.585  0.00  0.00    +0.000 C 
ATOM      3  C   UNL     1       4.279   4.465  17.479  0.00  0.00    +0.000 A 
ATOM      4  C   UNL     1       4.899   4.281  16.238  0.00  0.00    +0.000 A 
ATOM      5  C   UNL     1       6.285   4.390  16.126  0.00  0.00    +0.000 A 
ATOM      6  C   UNL     1       7.057   4.685  17.248  0.00  0.00    +0.000 A 
ATOM      7  C   UNL     1       6.447   4.844  18.490  0.00  0.00    +0.000 A 
ATOM      8  C   UNL     1       5.067   4.709  18.609  0.00  0.00    +0.000 A 
ATOM      9  O   UNL     1       4.563   4.854  19.874  0.00  0.00    +0.000 OA
ATOM     10  C   UNL     1       3.180   4.463  20.044  0.00  0.00    +0.000 C 
ENDROOT
BRANCH   1  12
ATOM     11  N   UNL     1       1.820   7.182  20.028  0.00  0.00    +0.000 N 
ATOM     12  C   UNL     1       2.386   6.556  18.942  0.00  0.00    +0.000 C 
ATOM     13  O   UNL     1       2.990   7.199  18.086  0.00  0.00    +0.000 OA
ATOM     14  H   UNL     1       1.359   6.656  20.752  0.00  0.00    +0.000 HD
BRANCH  11  15
ATOM     15  C   UNL     1       1.804   8.641  20.185  0.00  0.00    +0.000 C 
BRANCH  15  17
ATOM     16  C   UNL     1      -0.312  10.037  19.874  0.00  0.00    +0.000 C 
ATOM     17  C   UNL     1       0.838   9.311  19.168  0.00  0.00    +0.000 C 
ATOM     18  C   UNL     1       1.530  10.283  18.201  0.00  0.00    +0.000 C 
ENDBRANCH  15  17
BRANCH  15  19
ATOM     19  C   UNL     1       1.453   9.004  21.582  0.00  0.00    +0.000 C 
ATOM     20  N   UNL     1       1.207   9.265  22.683  0.00  0.00    +0.000 NA
ENDBRANCH  15  19
ENDBRANCH  11  15
ENDBRANCH   1  12
BRANCH  10  21
ATOM     21  C   UNL     1       3.056   2.943  20.277  0.00  0.00    +0.000 C 
ATOM     22  F   UNL     1       1.973   2.409  19.668  0.00  0.00    +0.000 F 
ATOM     23  F   UNL     1       4.136   2.254  19.842  0.00  0.00    +0.000 F 
ATOM     24  F   UNL     1       2.924   2.669  21.599  0.00  0.00    +0.000 F 
ENDBRANCH  10  21
TORSDOF 5
ENDMDL
