MODEL 1
REMARK VINA RESULT:      -8.0      0.000      0.000
REMARK  Name = 
REMARK  6 active torsions:
REMARK  status: ('A' for Active; 'I' for Inactive)
REMARK    1  A    between atoms: C_1  and  O_2
REMARK    2  A    between atoms: O_2  and  C_3
REMARK    3  A    between atoms: C_9  and  N_10
REMARK    4  A    between atoms: N_10  and  S_11
REMARK    5  A    between atoms: S_11  and  C_14
REMARK    6  A    between atoms: C_18  and  C_19
REMARK                            x       y       z     vdW  Elec       q    Type
REMARK                         _______ _______ _______ _____ _____    ______ ____
ROOT
ATOM      1  S   UNL     1       4.718   5.097  18.652  0.00  0.00    +0.000 S 
ATOM      2  O   UNL     1       5.557   5.580  19.730  0.00  0.00    +0.000 OA
ATOM      3  O   UNL     1       4.241   6.002  17.634  0.00  0.00    +0.000 OA
ENDROOT
BRANCH   1   4
ATOM      4  C   UNL     1       3.233   4.530  19.489  0.00  0.00    +0.000 A 
ATOM      5  S   UNL     1       3.190   2.856  19.855  0.00  0.00    +0.000 S 
ATOM      6  C   UNL     1       1.577   2.895  20.364  0.00  0.00    +0.000 A 
ATOM      7  C   UNL     1       1.117   4.185  20.433  0.00  0.00    +0.000 A 
ATOM      8  C   UNL     1       2.080   5.160  19.974  0.00  0.00    +0.000 A 
BRANCH   8   9
ATOM      9  C   UNL     1       1.823   6.607  20.021  0.00  0.00    +0.000 A 
ATOM     10  C   UNL     1       1.280   7.158  21.198  0.00  0.00    +0.000 A 
ATOM     11  C   UNL     1       0.912   8.504  21.271  0.00  0.00    +0.000 A 
ATOM     12  C   UNL     1       1.110   9.334  20.175  0.00  0.00    +0.000 A 
ATOM     13  C   UNL     1       1.667   8.814  19.010  0.00  0.00    +0.000 A 
ATOM     14  C   UNL     1       2.007   7.457  18.927  0.00  0.00    +0.000 A 
ENDBRANCH   8   9
ENDBRANCH   1   4
BRANCH   1  15
ATOM     15  N   UNL     1       5.640   3.911  17.865  0.00  0.00    +0.000 N 
ATOM     16  H   UNL     1       6.407   3.694  18.501  0.00  0.00    +0.000 HD
BRANCH  15  23
ATOM     17  C   UNL     1       7.168   5.203  16.343  0.00  0.00    +0.000 A 
ATOM     18  N   UNL     1       7.608   5.500  15.090  0.00  0.00    +0.000 NA
ATOM     19  C   UNL     1       7.022   4.813  14.086  0.00  0.00    +0.000 A 
ATOM     20 BR   UNL     1       7.608   5.119  12.316  0.00  0.00    +0.000 Br
ATOM     21  C   UNL     1       6.044   3.865  14.325  0.00  0.00    +0.000 A 
ATOM     22  N   UNL     1       5.593   3.578  15.570  0.00  0.00    +0.000 NA
ATOM     23  C   UNL     1       6.146   4.271  16.579  0.00  0.00    +0.000 A 
BRANCH  17  25
ATOM     24  C   UNL     1       7.617   7.174  17.480  0.00  0.00    +0.000 C 
ATOM     25  O   UNL     1       7.830   5.760  17.419  0.00  0.00    +0.000 OA
ENDBRANCH  17  25
ENDBRANCH  15  23
ENDBRANCH   1  15
TORSDOF 5
ENDMDL
MODEL 2
REMARK VINA RESULT:      -7.5      1.067      1.310
REMARK  Name = 
REMARK  6 active torsions:
REMARK  status: ('A' for Active; 'I' for Inactive)
REMARK    1  A    between atoms: C_1  and  O_2
REMARK    2  A    between atoms: O_2  and  C_3
REMARK    3  A    between atoms: C_9  and  N_10
REMARK    4  A    between atoms: N_10  and  S_11
REMARK    5  A    between atoms: S_11  and  C_14
REMARK    6  A    between atoms: C_18  and  C_19
REMARK                            x       y       z     vdW  Elec       q    Type
REMARK                         _______ _______ _______ _____ _____    ______ ____
ROOT
ATOM      1  S   UNL     1       4.683   4.046  18.596  0.00  0.00    +0.000 S 
ATOM      2  O   UNL     1       4.476   2.941  17.681  0.00  0.00    +0.000 OA
ATOM      3  O   UNL     1       5.807   4.046  19.501  0.00  0.00    +0.000 OA
ENDROOT
BRANCH   1   4
ATOM      4  C   UNL     1       3.239   3.993  19.663  0.00  0.00    +0.000 A 
ATOM      5  S   UNL     1       3.051   2.553  20.575  0.00  0.00    +0.000 S 
ATOM      6  C   UNL     1       1.513   2.978  21.136  0.00  0.00    +0.000 A 
ATOM      7  C   UNL     1       1.207   4.270  20.794  0.00  0.00    +0.000 A 
ATOM      8  C   UNL     1       2.218   4.899  19.975  0.00  0.00    +0.000 A 
BRANCH   8   9
ATOM      9  C   UNL     1       2.127   6.303  19.548  0.00  0.00    +0.000 A 
ATOM     10  C   UNL     1       1.746   7.274  20.494  0.00  0.00    +0.000 A 
ATOM     11  C   UNL     1       1.536   8.606  20.129  0.00  0.00    +0.000 A 
ATOM     12  C   UNL     1       1.735   9.000  18.811  0.00  0.00    +0.000 A 
ATOM     13  C   UNL     1       2.134   8.060  17.865  0.00  0.00    +0.000 A 
ATOM     14  C   UNL     1       2.314   6.718  18.226  0.00  0.00    +0.000 A 
ENDBRANCH   8   9
ENDBRANCH   1   4
BRANCH   1  15
ATOM     15  N   UNL     1       4.844   5.417  17.610  0.00  0.00    +0.000 N 
ATOM     16  H   UNL     1       3.893   5.734  17.424  0.00  0.00    +0.000 HD
BRANCH  15  23
ATOM     17  C   UNL     1       6.912   5.500  16.183  0.00  0.00    +0.000 A 
ATOM     18  N   UNL     1       7.529   5.287  14.990  0.00  0.00    +0.000 NA
ATOM     19  C   UNL     1       6.758   4.754  14.018  0.00  0.00    +0.000 A 
ATOM     20 BR   UNL     1       7.545   4.372  12.343  0.00  0.00    +0.000 Br
ATOM     21  C   UNL     1       5.428   4.441  14.233  0.00  0.00    +0.000 A 
ATOM     22  N   UNL     1       4.806   4.666  15.415  0.00  0.00    +0.000 NA
ATOM     23  C   UNL     1       5.552   5.221  16.386  0.00  0.00    +0.000 A 
BRANCH  17  25
ATOM     24  C   UNL     1       7.583   7.314  17.464  0.00  0.00    +0.000 C 
ATOM     25  O   UNL     1       7.682   5.901  17.258  0.00  0.00    +0.000 OA
ENDBRANCH  17  25
ENDBRANCH  15  23
ENDBRANCH   1  15
TORSDOF 5
ENDMDL
MODEL 3
REMARK VINA RESULT:      -7.5      2.128      2.906
REMARK  Name = 
REMARK  6 active torsions:
REMARK  status: ('A' for Active; 'I' for Inactive)
REMARK    1  A    between atoms: C_1  and  O_2
REMARK    2  A    between atoms: O_2  and  C_3
REMARK    3  A    between atoms: C_9  and  N_10
REMARK    4  A    between atoms: N_10  and  S_11
REMARK    5  A    between atoms: S_11  and  C_14
REMARK    6  A    between atoms: C_18  and  C_19
REMARK                            x       y       z     vdW  Elec       q    Type
REMARK                         _______ _______ _______ _____ _____    ______ ____
ROOT
ATOM      1  S   UNL     1       4.843   3.576  19.467  0.00  0.00    +0.000 S 
ATOM      2  O   UNL     1       5.207   2.306  20.061  0.00  0.00    +0.000 OA
ATOM      3  O   UNL     1       4.929   4.795  20.236  0.00  0.00    +0.000 OA
ENDROOT
BRANCH   1   4
ATOM      4  C   UNL     1       3.094   3.391  19.102  0.00  0.00    +0.000 A 
ATOM      5  S   UNL     1       2.516   1.776  19.073  0.00  0.00    +0.000 S 
ATOM      6  C   UNL     1       0.994   2.214  18.479  0.00  0.00    +0.000 A 
ATOM      7  C   UNL     1       0.847   3.577  18.469  0.00  0.00    +0.000 A 
ATOM      8  C   UNL     1       2.041   4.284  18.873  0.00  0.00    +0.000 A 
BRANCH   8   9
ATOM      9  C   UNL     1       2.088   5.748  18.997  0.00  0.00    +0.000 A 
ATOM     10  C   UNL     1       1.767   6.332  20.238  0.00  0.00    +0.000 A 
ATOM     11  C   UNL     1       1.687   7.718  20.394  0.00  0.00    +0.000 A 
ATOM     12  C   UNL     1       1.959   8.550  19.316  0.00  0.00    +0.000 A 
ATOM     13  C   UNL     1       2.302   7.994  18.086  0.00  0.00    +0.000 A 
ATOM     14  C   UNL     1       2.351   6.604  17.923  0.00  0.00    +0.000 A 
ENDBRANCH   8   9
ENDBRANCH   1   4
BRANCH   1  15
ATOM     15  N   UNL     1       5.877   3.759  18.136  0.00  0.00    +0.000 N 
ATOM     16  H   UNL     1       6.603   3.053  18.253  0.00  0.00    +0.000 HD
BRANCH  15  23
ATOM     17  C   UNL     1       6.110   5.985  16.990  0.00  0.00    +0.000 A 
ATOM     18  N   UNL     1       6.705   7.205  16.896  0.00  0.00    +0.000 NA
ATOM     19  C   UNL     1       7.633   7.478  17.837  0.00  0.00    +0.000 A 
ATOM     20 BR   UNL     1       8.473   9.171  17.818  0.00  0.00    +0.000 Br
ATOM     21  C   UNL     1       7.949   6.573  18.835  0.00  0.00    +0.000 A 
ATOM     22  N   UNL     1       7.370   5.352  18.923  0.00  0.00    +0.000 NA
ATOM     23  C   UNL     1       6.462   5.052  17.978  0.00  0.00    +0.000 A 
BRANCH  17  25
ATOM     24  C   UNL     1       5.507   5.215  14.887  0.00  0.00    +0.000 C 
ATOM     25  O   UNL     1       5.049   5.706  16.151  0.00  0.00    +0.000 OA
ENDBRANCH  17  25
ENDBRANCH  15  23
ENDBRANCH   1  15
TORSDOF 5
ENDMDL
MODEL 4
REMARK VINA RESULT:      -7.4      1.312      1.647
REMARK  Name = 
REMARK  6 active torsions:
REMARK  status: ('A' for Active; 'I' for Inactive)
REMARK    1  A    between atoms: C_1  and  O_2
REMARK    2  A    between atoms: O_2  and  C_3
REMARK    3  A    between atoms: C_9  and  N_10
REMARK    4  A    between atoms: N_10  and  S_11
REMARK    5  A    between atoms: S_11  and  C_14
REMARK    6  A    between atoms: C_18  and  C_19
REMARK                            x       y       z     vdW  Elec       q    Type
REMARK                         _______ _______ _______ _____ _____    ______ ____
ROOT
ATOM      1  S   UNL     1       4.092   3.383  17.939  0.00  0.00    +0.000 S 
ATOM      2  O   UNL     1       3.451   4.187  16.917  0.00  0.00    +0.000 OA
ATOM      3  O   UNL     1       4.016   1.943  17.892  0.00  0.00    +0.000 OA
ENDROOT
BRANCH   1   4
ATOM      4  C   UNL     1       3.223   3.837  19.445  0.00  0.00    +0.000 A 
ATOM      5  S   UNL     1       3.130   2.608  20.637  0.00  0.00    +0.000 S 
ATOM      6  C   UNL     1       2.071   3.488  21.620  0.00  0.00    +0.000 A 
ATOM      7  C   UNL     1       1.922   4.769  21.154  0.00  0.00    +0.000 A 
ATOM      8  C   UNL     1       2.622   5.011  19.913  0.00  0.00    +0.000 A 
BRANCH   8   9
ATOM      9  C   UNL     1       2.653   6.332  19.269  0.00  0.00    +0.000 A 
ATOM     10  C   UNL     1       1.826   7.352  19.779  0.00  0.00    +0.000 A 
ATOM     11  C   UNL     1       1.727   8.595  19.149  0.00  0.00    +0.000 A 
ATOM     12  C   UNL     1       2.481   8.853  18.011  0.00  0.00    +0.000 A 
ATOM     13  C   UNL     1       3.322   7.867  17.504  0.00  0.00    +0.000 A 
ATOM     14  C   UNL     1       3.397   6.610  18.119  0.00  0.00    +0.000 A 
ENDBRANCH   8   9
ENDBRANCH   1   4
BRANCH   1  15
ATOM     15  N   UNL     1       5.736   3.793  17.864  0.00  0.00    +0.000 N 
ATOM     16  H   UNL     1       5.867   4.530  18.557  0.00  0.00    +0.000 HD
BRANCH  15  23
ATOM     17  C   UNL     1       7.091   5.291  16.367  0.00  0.00    +0.000 A 
ATOM     18  N   UNL     1       7.509   5.647  15.122  0.00  0.00    +0.000 NA
ATOM     19  C   UNL     1       7.050   4.882  14.109  0.00  0.00    +0.000 A 
ATOM     20 BR   UNL     1       7.621   5.268  12.350  0.00  0.00    +0.000 Br
ATOM     21  C   UNL     1       6.214   3.802  14.333  0.00  0.00    +0.000 A 
ATOM     22  N   UNL     1       5.784   3.454  15.569  0.00  0.00    +0.000 NA
ATOM     23  C   UNL     1       6.210   4.221  16.587  0.00  0.00    +0.000 A 
BRANCH  17  25
ATOM     24  C   UNL     1       7.291   7.327  17.461  0.00  0.00    +0.000 C 
ATOM     25  O   UNL     1       7.643   5.940  17.455  0.00  0.00    +0.000 OA
ENDBRANCH  17  25
ENDBRANCH  15  23
ENDBRANCH   1  15
TORSDOF 5
ENDMDL
MODEL 5
REMARK VINA RESULT:      -7.3      1.025      1.550
REMARK  Name = 
REMARK  6 active torsions:
REMARK  status: ('A' for Active; 'I' for Inactive)
REMARK    1  A    between atoms: C_1  and  O_2
REMARK    2  A    between atoms: O_2  and  C_3
REMARK    3  A    between atoms: C_9  and  N_10
REMARK    4  A    between atoms: N_10  and  S_11
REMARK    5  A    between atoms: S_11  and  C_14
REMARK    6  A    between atoms: C_18  and  C_19
REMARK                            x       y       z     vdW  Elec       q    Type
REMARK                         _______ _______ _______ _____ _____    ______ ____
ROOT
ATOM      1  S   UNL     1       4.959   4.521  18.938  0.00  0.00    +0.000 S 
ATOM      2  O   UNL     1       5.211   3.295  18.207  0.00  0.00    +0.000 OA
ATOM      3  O   UNL     1       5.874   4.963  19.962  0.00  0.00    +0.000 OA
ENDROOT
BRANCH   1   4
ATOM      4  C   UNL     1       3.424   4.190  19.810  0.00  0.00    +0.000 A 
ATOM      5  S   UNL     1       3.345   2.677  20.612  0.00  0.00    +0.000 S 
ATOM      6  C   UNL     1       1.706   2.840  20.996  0.00  0.00    +0.000 A 
ATOM      7  C   UNL     1       1.255   4.098  20.688  0.00  0.00    +0.000 A 
ATOM      8  C   UNL     1       2.251   4.919  20.039  0.00  0.00    +0.000 A 
BRANCH   8   9
ATOM      9  C   UNL     1       2.004   6.323  19.679  0.00  0.00    +0.000 A 
ATOM     10  C   UNL     1       2.198   6.721  18.342  0.00  0.00    +0.000 A 
ATOM     11  C   UNL     1       2.086   8.059  17.955  0.00  0.00    +0.000 A 
ATOM     12  C   UNL     1       1.744   9.023  18.896  0.00  0.00    +0.000 A 
ATOM     13  C   UNL     1       1.524   8.646  20.218  0.00  0.00    +0.000 A 
ATOM     14  C   UNL     1       1.668   7.309  20.611  0.00  0.00    +0.000 A 
ENDBRANCH   8   9
ENDBRANCH   1   4
BRANCH   1  15
ATOM     15  N   UNL     1       4.911   5.740  17.760  0.00  0.00    +0.000 N 
ATOM     16  H   UNL     1       3.921   5.921  17.593  0.00  0.00    +0.000 HD
BRANCH  15  23
ATOM     17  C   UNL     1       6.931   5.691  16.265  0.00  0.00    +0.000 A 
ATOM     18  N   UNL     1       7.508   5.381  15.072  0.00  0.00    +0.000 NA
ATOM     19  C   UNL     1       6.701   4.783  14.170  0.00  0.00    +0.000 A 
ATOM     20 BR   UNL     1       7.428   4.265  12.505  0.00  0.00    +0.000 Br
ATOM     21  C   UNL     1       5.375   4.502  14.451  0.00  0.00    +0.000 A 
ATOM     22  N   UNL     1       4.794   4.823  15.632  0.00  0.00    +0.000 NA
ATOM     23  C   UNL     1       5.577   5.443  16.532  0.00  0.00    +0.000 A 
BRANCH  17  25
ATOM     24  C   UNL     1       7.616   7.585  17.418  0.00  0.00    +0.000 C 
ATOM     25  O   UNL     1       7.740   6.165  17.280  0.00  0.00    +0.000 OA
ENDBRANCH  17  25
ENDBRANCH  15  23
ENDBRANCH   1  15
TORSDOF 5
ENDMDL
MODEL 6
REMARK VINA RESULT:      -7.2      1.057      1.230
REMARK  Name = 
REMARK  6 active torsions:
REMARK  status: ('A' for Active; 'I' for Inactive)
REMARK    1  A    between atoms: C_1  and  O_2
REMARK    2  A    between atoms: O_2  and  C_3
REMARK    3  A    between atoms: C_9  and  N_10
REMARK    4  A    between atoms: N_10  and  S_11
REMARK    5  A    between atoms: S_11  and  C_14
REMARK    6  A    between atoms: C_18  and  C_19
REMARK                            x       y       z     vdW  Elec       q    Type
REMARK                         _______ _______ _______ _____ _____    ______ ____
ROOT
ATOM      1  S   UNL     1       3.534   4.159  17.497  0.00  0.00    +0.000 S 
ATOM      2  O   UNL     1       3.795   5.558  17.229  0.00  0.00    +0.000 OA
ATOM      3  O   UNL     1       2.484   3.462  16.793  0.00  0.00    +0.000 OA
ENDROOT
BRANCH   1   4
ATOM      4  C   UNL     1       3.017   4.143  19.218  0.00  0.00    +0.000 A 
ATOM      5  S   UNL     1       3.355   2.696  20.074  0.00  0.00    +0.000 S 
ATOM      6  C   UNL     1       2.479   3.169  21.441  0.00  0.00    +0.000 A 
ATOM      7  C   UNL     1       2.081   4.477  21.338  0.00  0.00    +0.000 A 
ATOM      8  C   UNL     1       2.424   5.081  20.071  0.00  0.00    +0.000 A 
BRANCH   8   9
ATOM      9  C   UNL     1       2.151   6.494  19.770  0.00  0.00    +0.000 A 
ATOM     10  C   UNL     1       1.635   7.315  20.792  0.00  0.00    +0.000 A 
ATOM     11  C   UNL     1       1.253   8.636  20.544  0.00  0.00    +0.000 A 
ATOM     12  C   UNL     1       1.409   9.172  19.272  0.00  0.00    +0.000 A 
ATOM     13  C   UNL     1       1.940   8.385  18.254  0.00  0.00    +0.000 A 
ATOM     14  C   UNL     1       2.294   7.051  18.496  0.00  0.00    +0.000 A 
ENDBRANCH   8   9
ENDBRANCH   1   4
BRANCH   1  15
ATOM     15  N   UNL     1       4.985   3.357  17.138  0.00  0.00    +0.000 N 
ATOM     16  H   UNL     1       5.503   3.321  18.016  0.00  0.00    +0.000 HD
BRANCH  15  23
ATOM     17  C   UNL     1       6.894   4.776  16.327  0.00  0.00    +0.000 A 
ATOM     18  N   UNL     1       7.616   5.307  15.303  0.00  0.00    +0.000 NA
ATOM     19  C   UNL     1       7.216   4.958  14.062  0.00  0.00    +0.000 A 
ATOM     20 BR   UNL     1       8.193   5.604  12.579  0.00  0.00    +0.000 Br
ATOM     21  C   UNL     1       6.145   4.108  13.854  0.00  0.00    +0.000 A 
ATOM     22  N   UNL     1       5.414   3.590  14.870  0.00  0.00    +0.000 NA
ATOM     23  C   UNL     1       5.782   3.948  16.112  0.00  0.00    +0.000 A 
BRANCH  17  25
ATOM     24  C   UNL     1       7.446   6.369  17.921  0.00  0.00    +0.000 C 
ATOM     25  O   UNL     1       7.344   4.974  17.618  0.00  0.00    +0.000 OA
ENDBRANCH  17  25
ENDBRANCH  15  23
ENDBRANCH   1  15
TORSDOF 5
ENDMDL
MODEL 7
REMARK VINA RESULT:      -7.1      4.133      6.531
REMARK  Name = 
REMARK  6 active torsions:
REMARK  status: ('A' for Active; 'I' for Inactive)
REMARK    1  A    between atoms: C_1  and  O_2
REMARK    2  A    between atoms: O_2  and  C_3
REMARK    3  A    between atoms: C_9  and  N_10
REMARK    4  A    between atoms: N_10  and  S_11
REMARK    5  A    between atoms: S_11  and  C_14
REMARK    6  A    between atoms: C_18  and  C_19
REMARK                            x       y       z     vdW  Elec       q    Type
REMARK                         _______ _______ _______ _____ _____    ______ ____
ROOT
ATOM      1  S   UNL     1       2.064   5.353  20.348  0.00  0.00    +0.000 S 
ATOM      2  O   UNL     1       2.588   4.760  21.561  0.00  0.00    +0.000 OA
ATOM      3  O   UNL     1       0.642   5.530  20.175  0.00  0.00    +0.000 OA
ENDROOT
BRANCH   1   4
ATOM      4  C   UNL     1       2.538   4.190  19.064  0.00  0.00    +0.000 A 
ATOM      5  S   UNL     1       1.372   2.988  18.695  0.00  0.00    +0.000 S 
ATOM      6  C   UNL     1       2.418   2.127  17.681  0.00  0.00    +0.000 A 
ATOM      7  C   UNL     1       3.579   2.825  17.471  0.00  0.00    +0.000 A 
ATOM      8  C   UNL     1       3.653   4.054  18.228  0.00  0.00    +0.000 A 
BRANCH   8   9
ATOM      9  C   UNL     1       4.780   4.990  18.106  0.00  0.00    +0.000 A 
ATOM     10  C   UNL     1       4.711   6.005  17.133  0.00  0.00    +0.000 A 
ATOM     11  C   UNL     1       5.791   6.859  16.892  0.00  0.00    +0.000 A 
ATOM     12  C   UNL     1       6.951   6.734  17.646  0.00  0.00    +0.000 A 
ATOM     13  C   UNL     1       7.030   5.752  18.630  0.00  0.00    +0.000 A 
ATOM     14  C   UNL     1       5.959   4.876  18.848  0.00  0.00    +0.000 A 
ENDBRANCH   8   9
ENDBRANCH   1   4
BRANCH   1  15
ATOM     15  N   UNL     1       2.766   6.895  20.266  0.00  0.00    +0.000 N 
ATOM     16  H   UNL     1       3.152   7.070  21.193  0.00  0.00    +0.000 HD
BRANCH  15  23
ATOM     17  C   UNL     1       1.100   8.711  20.765  0.00  0.00    +0.000 A 
ATOM     18  N   UNL     1       0.286   9.713  20.337  0.00  0.00    +0.000 NA
ATOM     19  C   UNL     1       0.311   9.962  19.011  0.00  0.00    +0.000 A 
ATOM     20 BR   UNL     1      -0.746  11.373  18.332  0.00  0.00    +0.000 Br
ATOM     21  C   UNL     1       1.122   9.243  18.150  0.00  0.00    +0.000 A 
ATOM     22  N   UNL     1       1.922   8.235  18.570  0.00  0.00    +0.000 NA
ATOM     23  C   UNL     1       1.889   7.956  19.885  0.00  0.00    +0.000 A 
BRANCH  17  25
ATOM     24  C   UNL     1       0.355   9.369  22.862  0.00  0.00    +0.000 C 
ATOM     25  O   UNL     1       1.231   8.509  22.126  0.00  0.00    +0.000 OA
ENDBRANCH  17  25
ENDBRANCH  15  23
ENDBRANCH   1  15
TORSDOF 5
ENDMDL
MODEL 8
REMARK VINA RESULT:      -7.0      2.139      3.050
REMARK  Name = 
REMARK  6 active torsions:
REMARK  status: ('A' for Active; 'I' for Inactive)
REMARK    1  A    between atoms: C_1  and  O_2
REMARK    2  A    between atoms: O_2  and  C_3
REMARK    3  A    between atoms: C_9  and  N_10
REMARK    4  A    between atoms: N_10  and  S_11
REMARK    5  A    between atoms: S_11  and  C_14
REMARK    6  A    between atoms: C_18  and  C_19
REMARK                            x       y       z     vdW  Elec       q    Type
REMARK                         _______ _______ _______ _____ _____    ______ ____
ROOT
ATOM      1  S   UNL     1       3.531   3.186  17.678  0.00  0.00    +0.000 S 
ATOM      2  O   UNL     1       3.030   4.250  16.832  0.00  0.00    +0.000 OA
ATOM      3  O   UNL     1       3.021   1.843  17.545  0.00  0.00    +0.000 OA
ENDROOT
BRANCH   1   4
ATOM      4  C   UNL     1       3.050   3.694  19.333  0.00  0.00    +0.000 A 
ATOM      5  S   UNL     1       3.203   2.491  20.545  0.00  0.00    +0.000 S 
ATOM      6  C   UNL     1       2.427   3.423  21.724  0.00  0.00    +0.000 A 
ATOM      7  C   UNL     1       2.210   4.700  21.274  0.00  0.00    +0.000 A 
ATOM      8  C   UNL     1       2.608   4.896  19.899  0.00  0.00    +0.000 A 
BRANCH   8   9
ATOM      9  C   UNL     1       2.526   6.204  19.232  0.00  0.00    +0.000 A 
ATOM     10  C   UNL     1       3.357   6.449  18.122  0.00  0.00    +0.000 A 
ATOM     11  C   UNL     1       3.406   7.705  17.511  0.00  0.00    +0.000 A 
ATOM     12  C   UNL     1       2.597   8.733  17.980  0.00  0.00    +0.000 A 
ATOM     13  C   UNL     1       1.751   8.503  19.061  0.00  0.00    +0.000 A 
ATOM     14  C   UNL     1       1.726   7.253  19.693  0.00  0.00    +0.000 A 
ENDBRANCH   8   9
ENDBRANCH   1   4
BRANCH   1  15
ATOM     15  N   UNL     1       5.196   3.113  17.365  0.00  0.00    +0.000 N 
ATOM     16  H   UNL     1       5.579   2.478  18.065  0.00  0.00    +0.000 HD
BRANCH  15  23
ATOM     17  C   UNL     1       6.110   5.191  16.285  0.00  0.00    +0.000 A 
ATOM     18  N   UNL     1       6.775   6.375  16.381  0.00  0.00    +0.000 NA
ATOM     19  C   UNL     1       7.178   6.721  17.622  0.00  0.00    +0.000 A 
ATOM     20 BR   UNL     1       8.062   8.374  17.860  0.00  0.00    +0.000 Br
ATOM     21  C   UNL     1       6.921   5.921  18.721  0.00  0.00    +0.000 A 
ATOM     22  N   UNL     1       6.273   4.735  18.627  0.00  0.00    +0.000 NA
ATOM     23  C   UNL     1       5.888   4.362  17.395  0.00  0.00    +0.000 A 
BRANCH  17  25
ATOM     24  C   UNL     1       6.544   4.495  14.115  0.00  0.00    +0.000 C 
ATOM     25  O   UNL     1       5.542   4.855  15.072  0.00  0.00    +0.000 OA
ENDBRANCH  17  25
ENDBRANCH  15  23
ENDBRANCH   1  15
TORSDOF 5
ENDMDL
MODEL 9
REMARK VINA RESULT:      -6.9      2.489      4.130
REMARK  Name = 
REMARK  6 active torsions:
REMARK  status: ('A' for Active; 'I' for Inactive)
REMARK    1  A    between atoms: C_1  and  O_2
REMARK    2  A    between atoms: O_2  and  C_3
REMARK    3  A    between atoms: C_9  and  N_10
REMARK    4  A    between atoms: N_10  and  S_11
REMARK    5  A    between atoms: S_11  and  C_14
REMARK    6  A    between atoms: C_18  and  C_19
REMARK                            x       y       z     vdW  Elec       q    Type
REMARK                         _______ _______ _______ _____ _____    ______ ____
ROOT
ATOM      1  S   UNL     1       4.444   3.896  17.129  0.00  0.00    +0.000 S 
ATOM      2  O   UNL     1       4.222   3.992  15.700  0.00  0.00    +0.000 OA
ATOM      3  O   UNL     1       3.900   2.792  17.881  0.00  0.00    +0.000 OA
ENDROOT
BRANCH   1   4
ATOM      4  C   UNL     1       3.619   5.349  17.789  0.00  0.00    +0.000 A 
ATOM      5  S   UNL     1       3.865   6.798  16.906  0.00  0.00    +0.000 S 
ATOM      6  C   UNL     1       3.106   7.765  18.068  0.00  0.00    +0.000 A 
ATOM      7  C   UNL     1       2.508   6.994  19.032  0.00  0.00    +0.000 A 
ATOM      8  C   UNL     1       2.753   5.580  18.864  0.00  0.00    +0.000 A 
BRANCH   8   9
ATOM      9  C   UNL     1       2.155   4.565  19.745  0.00  0.00    +0.000 A 
ATOM     10  C   UNL     1       2.693   4.390  21.035  0.00  0.00    +0.000 A 
ATOM     11  C   UNL     1       2.243   3.372  21.880  0.00  0.00    +0.000 A 
ATOM     12  C   UNL     1       1.221   2.529  21.462  0.00  0.00    +0.000 A 
ATOM     13  C   UNL     1       0.660   2.702  20.200  0.00  0.00    +0.000 A 
ATOM     14  C   UNL     1       1.133   3.702  19.341  0.00  0.00    +0.000 A 
ENDBRANCH   8   9
ENDBRANCH   1   4
BRANCH   1  15
ATOM     15  N   UNL     1       6.129   3.835  17.315  0.00  0.00    +0.000 N 
ATOM     16  H   UNL     1       6.295   3.225  18.115  0.00  0.00    +0.000 HD
BRANCH  15  23
ATOM     17  C   UNL     1       7.029   6.036  16.498  0.00  0.00    +0.000 A 
ATOM     18  N   UNL     1       7.650   7.220  16.747  0.00  0.00    +0.000 NA
ATOM     19  C   UNL     1       7.978   7.450  18.036  0.00  0.00    +0.000 A 
ATOM     20 BR   UNL     1       8.795   9.094  18.485  0.00  0.00    +0.000 Br
ATOM     21  C   UNL     1       7.692   6.536  19.035  0.00  0.00    +0.000 A 
ATOM     22  N   UNL     1       7.088   5.350  18.788  0.00  0.00    +0.000 NA
ATOM     23  C   UNL     1       6.777   5.093  17.506  0.00  0.00    +0.000 A 
BRANCH  17  25
ATOM     24  C   UNL     1       7.432   5.000  14.462  0.00  0.00    +0.000 C 
ATOM     25  O   UNL     1       6.534   5.809  15.228  0.00  0.00    +0.000 OA
ENDBRANCH  17  25
ENDBRANCH  15  23
ENDBRANCH   1  15
TORSDOF 5
ENDMDL
