MODEL 1
REMARK VINA RESULT:      -7.5      0.000      0.000
REMARK  Name = 
REMARK  7 active torsions:
REMARK  status: ('A' for Active; 'I' for Inactive)
REMARK    1  A    between atoms: C_1  and  C_2
REMARK    2  A    between atoms: C_7  and  C_8
REMARK    3  A    between atoms: C_8  and  C_9
REMARK    4  A    between atoms: C_9  and  C_10
REMARK    5  A    between atoms: C_9  and  N_11
REMARK    6  A    between atoms: N_11  and  C_12
REMARK    7  A    between atoms: C_12  and  C_13
REMARK                            x       y       z     vdW  Elec       q    Type
REMARK                         _______ _______ _______ _____ _____    ______ ____
ROOT
ATOM      1  C   UNL     1       3.205   6.172  17.849  0.00  0.00    +0.000 C 
ATOM      2  C   UNL     1       2.840   7.614  18.225  0.00  0.00    +0.000 C 
ENDROOT
BRANCH   1   3
ATOM      3  N   UNL     1       4.310   5.802  18.738  0.00  0.00    +0.000 NA
ATOM      4  H   UNL     1       3.908   5.515  19.635  0.00  0.00    +0.000 HD
BRANCH   3   5
ATOM      5  C   UNL     1       5.209   4.761  18.230  0.00  0.00    +0.000 C 
BRANCH   5   6
ATOM      6  C   UNL     1       5.498   5.102  16.781  0.00  0.00    +0.000 C 
ATOM      7  C   UNL     1       5.023   4.037  15.787  0.00  0.00    +0.000 C 
ATOM      8  C   UNL     1       5.632   4.460  14.456  0.00  0.00    +0.000 C 
ATOM      9  C   UNL     1       7.118   4.704  14.720  0.00  0.00    +0.000 C 
ATOM     10  S   UNL     1       7.223   5.310  16.403  0.00  0.00    +0.000 S 
ATOM     11  O   UNL     1       7.527   6.723  16.383  0.00  0.00    +0.000 OA
ATOM     12  O   UNL     1       8.000   4.366  17.185  0.00  0.00    +0.000 OA
ENDBRANCH   5   6
ENDBRANCH   3   5
ENDBRANCH   1   3
BRANCH   1  13
ATOM     13  C   UNL     1       1.970   5.229  17.886  0.00  0.00    +0.000 C 
BRANCH  13  20
ATOM     14  C   UNL     1       2.484   2.220  17.555  0.00  0.00    +0.000 C 
ATOM     15  C   UNL     1       2.100   2.844  18.869  0.00  0.00    +0.000 A 
ATOM     16  C   UNL     1       1.951   1.994  19.980  0.00  0.00    +0.000 A 
ATOM     17  C   UNL     1       1.645   2.498  21.244  0.00  0.00    +0.000 A 
ATOM     18  C   UNL     1       1.499   3.865  21.419  0.00  0.00    +0.000 A 
ATOM     19  C   UNL     1       1.633   4.720  20.327  0.00  0.00    +0.000 A 
ATOM     20  C   UNL     1       1.899   4.231  19.033  0.00  0.00    +0.000 A 
ENDBRANCH  13  20
ENDBRANCH   1  13
TORSDOF 5
ENDMDL
MODEL 2
REMARK VINA RESULT:      -7.4      0.473      1.655
REMARK  Name = 
REMARK  7 active torsions:
REMARK  status: ('A' for Active; 'I' for Inactive)
REMARK    1  A    between atoms: C_1  and  C_2
REMARK    2  A    between atoms: C_7  and  C_8
REMARK    3  A    between atoms: C_8  and  C_9
REMARK    4  A    between atoms: C_9  and  C_10
REMARK    5  A    between atoms: C_9  and  N_11
REMARK    6  A    between atoms: N_11  and  C_12
REMARK    7  A    between atoms: C_12  and  C_13
REMARK                            x       y       z     vdW  Elec       q    Type
REMARK                         _______ _______ _______ _____ _____    ______ ____
ROOT
ATOM      1  C   UNL     1       3.391   6.222  17.800  0.00  0.00    +0.000 C 
ATOM      2  C   UNL     1       3.339   7.753  17.887  0.00  0.00    +0.000 C 
ENDROOT
BRANCH   1   3
ATOM      3  N   UNL     1       4.362   5.804  18.815  0.00  0.00    +0.000 NA
ATOM      4  H   UNL     1       3.841   5.419  19.609  0.00  0.00    +0.000 HD
BRANCH   3   5
ATOM      5  C   UNL     1       5.376   4.845  18.364  0.00  0.00    +0.000 C 
BRANCH   5   6
ATOM      6  C   UNL     1       5.575   5.085  16.880  0.00  0.00    +0.000 C 
ATOM      7  C   UNL     1       4.984   3.987  15.990  0.00  0.00    +0.000 C 
ATOM      8  C   UNL     1       5.513   4.300  14.596  0.00  0.00    +0.000 C 
ATOM      9  C   UNL     1       7.023   4.488  14.741  0.00  0.00    +0.000 C 
ATOM     10  S   UNL     1       7.275   5.188  16.371  0.00  0.00    +0.000 S 
ATOM     11  O   UNL     1       7.637   6.581  16.241  0.00  0.00    +0.000 OA
ATOM     12  O   UNL     1       8.065   4.257  17.156  0.00  0.00    +0.000 OA
ENDBRANCH   5   6
ENDBRANCH   3   5
ENDBRANCH   1   3
BRANCH   1  13
ATOM     13  C   UNL     1       1.979   5.582  17.919  0.00  0.00    +0.000 C 
BRANCH  13  20
ATOM     14  C   UNL     1       1.391   6.083  20.891  0.00  0.00    +0.000 C 
ATOM     15  C   UNL     1       1.578   4.706  20.316  0.00  0.00    +0.000 A 
ATOM     16  C   UNL     1       1.501   3.611  21.196  0.00  0.00    +0.000 A 
ATOM     17  C   UNL     1       1.613   2.300  20.735  0.00  0.00    +0.000 A 
ATOM     18  C   UNL     1       1.791   2.062  19.382  0.00  0.00    +0.000 A 
ATOM     19  C   UNL     1       1.880   3.136  18.498  0.00  0.00    +0.000 A 
ATOM     20  C   UNL     1       1.811   4.470  18.944  0.00  0.00    +0.000 A 
ENDBRANCH  13  20
ENDBRANCH   1  13
TORSDOF 5
ENDMDL
MODEL 3
REMARK VINA RESULT:      -7.3      1.721      3.542
REMARK  Name = 
REMARK  7 active torsions:
REMARK  status: ('A' for Active; 'I' for Inactive)
REMARK    1  A    between atoms: C_1  and  C_2
REMARK    2  A    between atoms: C_7  and  C_8
REMARK    3  A    between atoms: C_8  and  C_9
REMARK    4  A    between atoms: C_9  and  C_10
REMARK    5  A    between atoms: C_9  and  N_11
REMARK    6  A    between atoms: N_11  and  C_12
REMARK    7  A    between atoms: C_12  and  C_13
REMARK                            x       y       z     vdW  Elec       q    Type
REMARK                         _______ _______ _______ _____ _____    ______ ____
ROOT
ATOM      1  C   UNL     1       3.726   2.791  18.778  0.00  0.00    +0.000 C 
ATOM      2  C   UNL     1       3.701   1.389  18.156  0.00  0.00    +0.000 C 
ENDROOT
BRANCH   1   3
ATOM      3  N   UNL     1       5.099   3.273  18.606  0.00  0.00    +0.000 NA
ATOM      4  H   UNL     1       5.732   2.486  18.775  0.00  0.00    +0.000 HD
BRANCH   3   5
ATOM      5  C   UNL     1       5.395   3.890  17.309  0.00  0.00    +0.000 C 
BRANCH   5   6
ATOM      6  C   UNL     1       6.625   4.756  17.507  0.00  0.00    +0.000 C 
ATOM      7  C   UNL     1       6.687   5.439  18.877  0.00  0.00    +0.000 C 
ATOM      8  C   UNL     1       7.838   6.429  18.757  0.00  0.00    +0.000 C 
ATOM      9  C   UNL     1       7.591   7.224  17.475  0.00  0.00    +0.000 C 
ATOM     10  S   UNL     1       6.778   6.094  16.347  0.00  0.00    +0.000 S 
ATOM     11  O   UNL     1       7.706   5.705  15.309  0.00  0.00    +0.000 OA
ATOM     12  O   UNL     1       5.458   6.616  16.043  0.00  0.00    +0.000 OA
ENDBRANCH   5   6
ENDBRANCH   3   5
ENDBRANCH   1   3
BRANCH   1  13
ATOM     13  C   UNL     1       2.614   3.709  18.196  0.00  0.00    +0.000 C 
BRANCH  13  20
ATOM     14  C   UNL     1       1.560   3.964  21.069  0.00  0.00    +0.000 C 
ATOM     15  C   UNL     1       1.866   5.154  20.202  0.00  0.00    +0.000 A 
ATOM     16  C   UNL     1       1.631   6.434  20.736  0.00  0.00    +0.000 A 
ATOM     17  C   UNL     1       1.934   7.589  20.017  0.00  0.00    +0.000 A 
ATOM     18  C   UNL     1       2.492   7.482  18.753  0.00  0.00    +0.000 A 
ATOM     19  C   UNL     1       2.723   6.222  18.204  0.00  0.00    +0.000 A 
ATOM     20  C   UNL     1       2.386   5.041  18.894  0.00  0.00    +0.000 A 
ENDBRANCH  13  20
ENDBRANCH   1  13
TORSDOF 5
ENDMDL
MODEL 4
REMARK VINA RESULT:      -7.2      2.040      2.809
REMARK  Name = 
REMARK  7 active torsions:
REMARK  status: ('A' for Active; 'I' for Inactive)
REMARK    1  A    between atoms: C_1  and  C_2
REMARK    2  A    between atoms: C_7  and  C_8
REMARK    3  A    between atoms: C_8  and  C_9
REMARK    4  A    between atoms: C_9  and  C_10
REMARK    5  A    between atoms: C_9  and  N_11
REMARK    6  A    between atoms: N_11  and  C_12
REMARK    7  A    between atoms: C_12  and  C_13
REMARK                            x       y       z     vdW  Elec       q    Type
REMARK                         _______ _______ _______ _____ _____    ______ ____
ROOT
ATOM      1  C   UNL     1       3.829   3.642  16.975  0.00  0.00    +0.000 C 
ATOM      2  C   UNL     1       3.328   4.967  17.562  0.00  0.00    +0.000 C 
ENDROOT
BRANCH   1   3
ATOM      3  N   UNL     1       5.290   3.693  17.079  0.00  0.00    +0.000 NA
ATOM      4  H   UNL     1       5.654   2.763  16.853  0.00  0.00    +0.000 HD
BRANCH   3   5
ATOM      5  C   UNL     1       5.949   4.708  16.251  0.00  0.00    +0.000 C 
BRANCH   5   6
ATOM      6  C   UNL     1       6.325   5.850  17.177  0.00  0.00    +0.000 C 
ATOM      7  C   UNL     1       7.198   6.922  16.515  0.00  0.00    +0.000 C 
ATOM      8  C   UNL     1       7.650   7.809  17.667  0.00  0.00    +0.000 C 
ATOM      9  C   UNL     1       8.207   6.872  18.739  0.00  0.00    +0.000 C 
ATOM     10  S   UNL     1       7.252   5.361  18.612  0.00  0.00    +0.000 S 
ATOM     11  O   UNL     1       6.350   5.270  19.738  0.00  0.00    +0.000 OA
ATOM     12  O   UNL     1       8.149   4.277  18.255  0.00  0.00    +0.000 OA
ENDBRANCH   5   6
ENDBRANCH   3   5
ENDBRANCH   1   3
BRANCH   1  13
ATOM     13  C   UNL     1       3.152   2.413  17.644  0.00  0.00    +0.000 C 
BRANCH  13  20
ATOM     14  C   UNL     1       4.754   2.130  20.247  0.00  0.00    +0.000 C 
ATOM     15  C   UNL     1       3.287   2.456  20.222  0.00  0.00    +0.000 A 
ATOM     16  C   UNL     1       2.628   2.611  21.456  0.00  0.00    +0.000 A 
ATOM     17  C   UNL     1       1.280   2.962  21.520  0.00  0.00    +0.000 A 
ATOM     18  C   UNL     1       0.572   3.178  20.349  0.00  0.00    +0.000 A 
ATOM     19  C   UNL     1       1.206   3.019  19.119  0.00  0.00    +0.000 A 
ATOM     20  C   UNL     1       2.555   2.623  19.027  0.00  0.00    +0.000 A 
ENDBRANCH  13  20
ENDBRANCH   1  13
TORSDOF 5
ENDMDL
MODEL 5
REMARK VINA RESULT:      -7.1      2.407      5.352
REMARK  Name = 
REMARK  7 active torsions:
REMARK  status: ('A' for Active; 'I' for Inactive)
REMARK    1  A    between atoms: C_1  and  C_2
REMARK    2  A    between atoms: C_7  and  C_8
REMARK    3  A    between atoms: C_8  and  C_9
REMARK    4  A    between atoms: C_9  and  C_10
REMARK    5  A    between atoms: C_9  and  N_11
REMARK    6  A    between atoms: N_11  and  C_12
REMARK    7  A    between atoms: C_12  and  C_13
REMARK                            x       y       z     vdW  Elec       q    Type
REMARK                         _______ _______ _______ _____ _____    ______ ____
ROOT
ATOM      1  C   UNL     1       3.356   7.143  18.080  0.00  0.00    +0.000 C 
ATOM      2  C   UNL     1       2.490   8.373  17.783  0.00  0.00    +0.000 C 
ENDROOT
BRANCH   1   3
ATOM      3  N   UNL     1       2.454   6.167  18.699  0.00  0.00    +0.000 NA
ATOM      4  H   UNL     1       1.564   6.638  18.887  0.00  0.00    +0.000 HD
BRANCH   3   5
ATOM      5  C   UNL     1       2.225   4.940  17.931  0.00  0.00    +0.000 C 
BRANCH   5   6
ATOM      6  C   UNL     1       1.902   3.849  18.934  0.00  0.00    +0.000 C 
ATOM      7  C   UNL     1       1.305   4.371  20.246  0.00  0.00    +0.000 C 
ATOM      8  C   UNL     1       1.302   3.161  21.171  0.00  0.00    +0.000 C 
ATOM      9  C   UNL     1       2.710   2.569  21.110  0.00  0.00    +0.000 C 
ATOM     10  S   UNL     1       3.302   2.884  19.449  0.00  0.00    +0.000 S 
ATOM     11  O   UNL     1       3.311   1.645  18.703  0.00  0.00    +0.000 OA
ATOM     12  O   UNL     1       4.470   3.742  19.530  0.00  0.00    +0.000 OA
ENDBRANCH   5   6
ENDBRANCH   3   5
ENDBRANCH   1   3
BRANCH   1  13
ATOM     13  C   UNL     1       4.118   6.645  16.820  0.00  0.00    +0.000 C 
BRANCH  13  20
ATOM     14  C   UNL     1       5.311   4.606  14.858  0.00  0.00    +0.000 C 
ATOM     15  C   UNL     1       5.964   4.962  16.165  0.00  0.00    +0.000 A 
ATOM     16  C   UNL     1       7.162   4.304  16.500  0.00  0.00    +0.000 A 
ATOM     17  C   UNL     1       7.856   4.612  17.669  0.00  0.00    +0.000 A 
ATOM     18  C   UNL     1       7.370   5.594  18.517  0.00  0.00    +0.000 A 
ATOM     19  C   UNL     1       6.180   6.248  18.205  0.00  0.00    +0.000 A 
ATOM     20  C   UNL     1       5.438   5.926  17.052  0.00  0.00    +0.000 A 
ENDBRANCH  13  20
ENDBRANCH   1  13
TORSDOF 5
ENDMDL
MODEL 6
REMARK VINA RESULT:      -7.0      1.733      3.575
REMARK  Name = 
REMARK  7 active torsions:
REMARK  status: ('A' for Active; 'I' for Inactive)
REMARK    1  A    between atoms: C_1  and  C_2
REMARK    2  A    between atoms: C_7  and  C_8
REMARK    3  A    between atoms: C_8  and  C_9
REMARK    4  A    between atoms: C_9  and  C_10
REMARK    5  A    between atoms: C_9  and  N_11
REMARK    6  A    between atoms: N_11  and  C_12
REMARK    7  A    between atoms: C_12  and  C_13
REMARK                            x       y       z     vdW  Elec       q    Type
REMARK                         _______ _______ _______ _____ _____    ______ ____
ROOT
ATOM      1  C   UNL     1       3.902   3.600  18.280  0.00  0.00    +0.000 C 
ATOM      2  C   UNL     1       3.971   2.526  19.372  0.00  0.00    +0.000 C 
ENDROOT
BRANCH   1   3
ATOM      3  N   UNL     1       4.401   2.955  17.062  0.00  0.00    +0.000 NA
ATOM      4  H   UNL     1       3.599   2.777  16.450  0.00  0.00    +0.000 HD
BRANCH   3   5
ATOM      5  C   UNL     1       5.438   3.693  16.334  0.00  0.00    +0.000 C 
BRANCH   5   6
ATOM      6  C   UNL     1       5.671   4.984  17.096  0.00  0.00    +0.000 C 
ATOM      7  C   UNL     1       5.705   6.231  16.205  0.00  0.00    +0.000 C 
ATOM      8  C   UNL     1       6.194   7.342  17.125  0.00  0.00    +0.000 C 
ATOM      9  C   UNL     1       7.454   6.812  17.809  0.00  0.00    +0.000 C 
ATOM     10  S   UNL     1       7.208   5.047  17.987  0.00  0.00    +0.000 S 
ATOM     11  O   UNL     1       6.951   4.738  19.376  0.00  0.00    +0.000 OA
ATOM     12  O   UNL     1       8.232   4.359  17.222  0.00  0.00    +0.000 OA
ENDBRANCH   5   6
ENDBRANCH   3   5
ENDBRANCH   1   3
BRANCH   1  13
ATOM     13  C   UNL     1       2.486   4.233  18.171  0.00  0.00    +0.000 C 
BRANCH  13  20
ATOM     14  C   UNL     1       1.969   4.905  21.122  0.00  0.00    +0.000 C 
ATOM     15  C   UNL     1       2.048   5.953  20.047  0.00  0.00    +0.000 A 
ATOM     16  C   UNL     1       1.851   7.295  20.423  0.00  0.00    +0.000 A 
ATOM     17  C   UNL     1       1.958   8.331  19.497  0.00  0.00    +0.000 A 
ATOM     18  C   UNL     1       2.278   8.043  18.180  0.00  0.00    +0.000 A 
ATOM     19  C   UNL     1       2.467   6.719  17.789  0.00  0.00    +0.000 A 
ATOM     20  C   UNL     1       2.323   5.651  18.696  0.00  0.00    +0.000 A 
ENDBRANCH  13  20
ENDBRANCH   1  13
TORSDOF 5
ENDMDL
MODEL 7
REMARK VINA RESULT:      -6.9      1.354      2.138
REMARK  Name = 
REMARK  7 active torsions:
REMARK  status: ('A' for Active; 'I' for Inactive)
REMARK    1  A    between atoms: C_1  and  C_2
REMARK    2  A    between atoms: C_7  and  C_8
REMARK    3  A    between atoms: C_8  and  C_9
REMARK    4  A    between atoms: C_9  and  C_10
REMARK    5  A    between atoms: C_9  and  N_11
REMARK    6  A    between atoms: N_11  and  C_12
REMARK    7  A    between atoms: C_12  and  C_13
REMARK                            x       y       z     vdW  Elec       q    Type
REMARK                         _______ _______ _______ _____ _____    ______ ____
ROOT
ATOM      1  C   UNL     1       2.723   6.028  17.698  0.00  0.00    +0.000 C 
ATOM      2  C   UNL     1       2.468   7.444  18.226  0.00  0.00    +0.000 C 
ENDROOT
BRANCH   1   3
ATOM      3  N   UNL     1       3.999   5.612  18.289  0.00  0.00    +0.000 NA
ATOM      4  H   UNL     1       3.798   5.154  19.182  0.00  0.00    +0.000 HD
BRANCH   3   5
ATOM      5  C   UNL     1       4.831   4.743  17.451  0.00  0.00    +0.000 C 
BRANCH   5   6
ATOM      6  C   UNL     1       6.275   5.051  17.800  0.00  0.00    +0.000 C 
ATOM      7  C   UNL     1       6.507   5.329  19.289  0.00  0.00    +0.000 C 
ATOM      8  C   UNL     1       7.936   5.851  19.361  0.00  0.00    +0.000 C 
ATOM      9  C   UNL     1       8.042   6.959  18.314  0.00  0.00    +0.000 C 
ATOM     10  S   UNL     1       6.941   6.483  16.984  0.00  0.00    +0.000 S 
ATOM     11  O   UNL     1       7.723   6.048  15.848  0.00  0.00    +0.000 OA
ATOM     12  O   UNL     1       5.902   7.490  16.862  0.00  0.00    +0.000 OA
ENDBRANCH   5   6
ENDBRANCH   3   5
ENDBRANCH   1   3
BRANCH   1  13
ATOM     13  C   UNL     1       1.521   5.078  17.966  0.00  0.00    +0.000 C 
BRANCH  13  20
ATOM     14  C   UNL     1       2.405   2.161  17.599  0.00  0.00    +0.000 C 
ATOM     15  C   UNL     1       2.036   2.741  18.936  0.00  0.00    +0.000 A 
ATOM     16  C   UNL     1       2.080   1.889  20.055  0.00  0.00    +0.000 A 
ATOM     17  C   UNL     1       1.801   2.361  21.337  0.00  0.00    +0.000 A 
ATOM     18  C   UNL     1       1.487   3.697  21.523  0.00  0.00    +0.000 A 
ATOM     19  C   UNL     1       1.429   4.552  20.424  0.00  0.00    +0.000 A 
ATOM     20  C   UNL     1       1.666   4.091  19.114  0.00  0.00    +0.000 A 
ENDBRANCH  13  20
ENDBRANCH   1  13
TORSDOF 5
ENDMDL
MODEL 8
REMARK VINA RESULT:      -6.8      1.783      3.219
REMARK  Name = 
REMARK  7 active torsions:
REMARK  status: ('A' for Active; 'I' for Inactive)
REMARK    1  A    between atoms: C_1  and  C_2
REMARK    2  A    between atoms: C_7  and  C_8
REMARK    3  A    between atoms: C_8  and  C_9
REMARK    4  A    between atoms: C_9  and  C_10
REMARK    5  A    between atoms: C_9  and  N_11
REMARK    6  A    between atoms: N_11  and  C_12
REMARK    7  A    between atoms: C_12  and  C_13
REMARK                            x       y       z     vdW  Elec       q    Type
REMARK                         _______ _______ _______ _____ _____    ______ ____
ROOT
ATOM      1  C   UNL     1       3.708   2.155  19.663  0.00  0.00    +0.000 C 
ATOM      2  C   UNL     1       3.678   1.425  18.315  0.00  0.00    +0.000 C 
ENDROOT
BRANCH   1   3
ATOM      3  N   UNL     1       4.858   3.061  19.594  0.00  0.00    +0.000 NA
ATOM      4  H   UNL     1       5.634   2.622  20.098  0.00  0.00    +0.000 HD
BRANCH   3   5
ATOM      5  C   UNL     1       5.283   3.443  18.244  0.00  0.00    +0.000 C 
BRANCH   5   6
ATOM      6  C   UNL     1       5.619   4.922  18.294  0.00  0.00    +0.000 C 
ATOM      7  C   UNL     1       5.293   5.675  16.999  0.00  0.00    +0.000 C 
ATOM      8  C   UNL     1       5.933   7.045  17.185  0.00  0.00    +0.000 C 
ATOM      9  C   UNL     1       7.375   6.791  17.622  0.00  0.00    +0.000 C 
ATOM     10  S   UNL     1       7.336   5.278  18.582  0.00  0.00    +0.000 S 
ATOM     11  O   UNL     1       7.516   5.596  19.981  0.00  0.00    +0.000 OA
ATOM     12  O   UNL     1       8.150   4.283  17.909  0.00  0.00    +0.000 OA
ENDBRANCH   5   6
ENDBRANCH   3   5
ENDBRANCH   1   3
BRANCH   1  13
ATOM     13  C   UNL     1       2.345   2.827  19.995  0.00  0.00    +0.000 C 
BRANCH  13  20
ATOM     14  C   UNL     1       1.786   4.011  17.217  0.00  0.00    +0.000 C 
ATOM     15  C   UNL     1       2.008   4.860  18.439  0.00  0.00    +0.000 A 
ATOM     16  C   UNL     1       1.980   6.258  18.280  0.00  0.00    +0.000 A 
ATOM     17  C   UNL     1       2.127   7.116  19.369  0.00  0.00    +0.000 A 
ATOM     18  C   UNL     1       2.292   6.588  20.640  0.00  0.00    +0.000 A 
ATOM     19  C   UNL     1       2.332   5.206  20.813  0.00  0.00    +0.000 A 
ATOM     20  C   UNL     1       2.228   4.319  19.723  0.00  0.00    +0.000 A 
ENDBRANCH  13  20
ENDBRANCH   1  13
TORSDOF 5
ENDMDL
MODEL 9
REMARK VINA RESULT:      -6.8      3.225      5.580
REMARK  Name = 
REMARK  7 active torsions:
REMARK  status: ('A' for Active; 'I' for Inactive)
REMARK    1  A    between atoms: C_1  and  C_2
REMARK    2  A    between atoms: C_7  and  C_8
REMARK    3  A    between atoms: C_8  and  C_9
REMARK    4  A    between atoms: C_9  and  C_10
REMARK    5  A    between atoms: C_9  and  N_11
REMARK    6  A    between atoms: N_11  and  C_12
REMARK    7  A    between atoms: C_12  and  C_13
REMARK                            x       y       z     vdW  Elec       q    Type
REMARK                         _______ _______ _______ _____ _____    ______ ____
ROOT
ATOM      1  C   UNL     1       3.075   6.366  18.491  0.00  0.00    +0.000 C 
ATOM      2  C   UNL     1       2.355   7.399  19.367  0.00  0.00    +0.000 C 
ENDROOT
BRANCH   1   3
ATOM      3  N   UNL     1       2.023   5.715  17.706  0.00  0.00    +0.000 NA
ATOM      4  H   UNL     1       2.165   5.965  16.723  0.00  0.00    +0.000 HD
BRANCH   3   5
ATOM      5  C   UNL     1       1.935   4.259  17.849  0.00  0.00    +0.000 C 
BRANCH   5   6
ATOM      6  C   UNL     1       2.898   3.870  18.956  0.00  0.00    +0.000 C 
ATOM      7  C   UNL     1       3.777   2.661  18.615  0.00  0.00    +0.000 C 
ATOM      8  C   UNL     1       4.459   2.305  19.930  0.00  0.00    +0.000 C 
ATOM      9  C   UNL     1       3.353   2.221  20.981  0.00  0.00    +0.000 C 
ATOM     10  S   UNL     1       2.117   3.421  20.488  0.00  0.00    +0.000 S 
ATOM     11  O   UNL     1       2.167   4.554  21.384  0.00  0.00    +0.000 OA
ATOM     12  O   UNL     1       0.879   2.718  20.205  0.00  0.00    +0.000 OA
ENDBRANCH   5   6
ENDBRANCH   3   5
ENDBRANCH   1   3
BRANCH   1  13
ATOM     13  C   UNL     1       4.230   7.002  17.667  0.00  0.00    +0.000 C 
BRANCH  13  20
ATOM     14  C   UNL     1       6.378   5.505  19.271  0.00  0.00    +0.000 C 
ATOM     15  C   UNL     1       6.245   5.391  17.778  0.00  0.00    +0.000 A 
ATOM     16  C   UNL     1       7.170   4.577  17.097  0.00  0.00    +0.000 A 
ATOM     17  C   UNL     1       7.086   4.378  15.720  0.00  0.00    +0.000 A 
ATOM     18  C   UNL     1       6.065   4.980  15.001  0.00  0.00    +0.000 A 
ATOM     19  C   UNL     1       5.148   5.797  15.658  0.00  0.00    +0.000 A 
ATOM     20  C   UNL     1       5.237   6.048  17.041  0.00  0.00    +0.000 A 
ENDBRANCH  13  20
ENDBRANCH   1  13
TORSDOF 5
ENDMDL
