MODEL 1
REMARK VINA RESULT:      -7.6      0.000      0.000
REMARK  Name = 
REMARK  7 active torsions:
REMARK  status: ('A' for Active; 'I' for Inactive)
REMARK    1  A    between atoms: C_1  and  C_2
REMARK    2  A    between atoms: C_2  and  O_3
REMARK    3  A    between atoms: O_3  and  C_4
REMARK    4  A    between atoms: C_4  and  C_6
REMARK    5  A    between atoms: C_11  and  N_12
REMARK    6  A    between atoms: N_12  and  S_13
REMARK    7  A    between atoms: S_13  and  C_16
REMARK                            x       y       z     vdW  Elec       q    Type
REMARK                         _______ _______ _______ _____ _____    ______ ____
ROOT
ATOM      1  N   UNL     1       4.295   5.055  17.932  0.00  0.00    +0.000 NA
ATOM      2  H   UNL     1       3.858   5.811  17.395  0.00  0.00    +0.000 HD
ENDROOT
BRANCH   1   8
ATOM      3  C   UNL     1       6.303   6.069  16.918  0.00  0.00    +0.000 C 
ATOM      4  C   UNL     1       7.309   6.920  17.211  0.00  0.00    +0.000 C 
ATOM      5  C   UNL     1       8.045   6.937  18.515  0.00  0.00    +0.000 C 
ATOM      6  C   UNL     1       7.781   5.690  19.347  0.00  0.00    +0.000 C 
ATOM      7  C   UNL     1       6.304   5.328  19.329  0.00  0.00    +0.000 C 
ATOM      8  C   UNL     1       5.776   5.043  17.907  0.00  0.00    +0.000 C 
BRANCH   3   9
ATOM      9  C   UNL     1       5.793   6.157  15.523  0.00  0.00    +0.000 C 
ATOM     10  O   UNL     1       4.887   6.902  15.172  0.00  0.00    +0.000 OA
BRANCH   9  11
ATOM     11  O   UNL     1       6.471   5.314  14.705  0.00  0.00    +0.000 OA
BRANCH  11  13
ATOM     12  C   UNL     1       6.238   3.655  12.960  0.00  0.00    +0.000 C 
ATOM     13  C   UNL     1       5.744   4.140  14.311  0.00  0.00    +0.000 C 
ENDBRANCH  11  13
ENDBRANCH   9  11
ENDBRANCH   3   9
ENDBRANCH   1   8
BRANCH   1  14
ATOM     14  S   UNL     1       3.453   3.623  17.627  0.00  0.00    +0.000 S 
ATOM     15  O   UNL     1       2.424   3.930  16.659  0.00  0.00    +0.000 OA
ATOM     16  O   UNL     1       4.432   2.591  17.359  0.00  0.00    +0.000 OA
BRANCH  14  17
ATOM     17  C   UNL     1       2.653   3.253  19.167  0.00  0.00    +0.000 A 
ATOM     18  C   UNL     1       1.297   3.598  19.316  0.00  0.00    +0.000 A 
ATOM     19  C   UNL     1       0.624   3.311  20.503  0.00  0.00    +0.000 A 
ATOM     20  C   UNL     1       1.310   2.699  21.543  0.00  0.00    +0.000 A 
ATOM     21  F   UNL     1       0.667   2.423  22.685  0.00  0.00    +0.000 F 
ATOM     22  C   UNL     1       2.654   2.365  21.416  0.00  0.00    +0.000 A 
ATOM     23  C   UNL     1       3.335   2.637  20.223  0.00  0.00    +0.000 A 
ATOM     24 CL   UNL     1       4.990   2.154  20.154  0.00  0.00    +0.000 Cl
ENDBRANCH  14  17
ENDBRANCH   1  14
TORSDOF 6
ENDMDL
MODEL 2
REMARK VINA RESULT:      -7.3      2.121      2.413
REMARK  Name = 
REMARK  7 active torsions:
REMARK  status: ('A' for Active; 'I' for Inactive)
REMARK    1  A    between atoms: C_1  and  C_2
REMARK    2  A    between atoms: C_2  and  O_3
REMARK    3  A    between atoms: O_3  and  C_4
REMARK    4  A    between atoms: C_4  and  C_6
REMARK    5  A    between atoms: C_11  and  N_12
REMARK    6  A    between atoms: N_12  and  S_13
REMARK    7  A    between atoms: S_13  and  C_16
REMARK                            x       y       z     vdW  Elec       q    Type
REMARK                         _______ _______ _______ _____ _____    ______ ____
ROOT
ATOM      1  N   UNL     1       4.544   4.359  16.951  0.00  0.00    +0.000 NA
ATOM      2  H   UNL     1       4.507   4.052  15.975  0.00  0.00    +0.000 HD
ENDROOT
BRANCH   1   8
ATOM      3  C   UNL     1       6.835   5.213  16.621  0.00  0.00    +0.000 C 
ATOM      4  C   UNL     1       7.670   6.172  17.073  0.00  0.00    +0.000 C 
ATOM      5  C   UNL     1       7.809   6.559  18.513  0.00  0.00    +0.000 C 
ATOM      6  C   UNL     1       7.173   5.543  19.451  0.00  0.00    +0.000 C 
ATOM      7  C   UNL     1       5.817   5.095  18.926  0.00  0.00    +0.000 C 
ATOM      8  C   UNL     1       5.903   4.434  17.534  0.00  0.00    +0.000 C 
BRANCH   3   9
ATOM      9  C   UNL     1       6.944   4.920  15.167  0.00  0.00    +0.000 C 
ATOM     10  O   UNL     1       7.601   5.593  14.381  0.00  0.00    +0.000 OA
BRANCH   9  11
ATOM     11  O   UNL     1       6.233   3.813  14.840  0.00  0.00    +0.000 OA
BRANCH  11  13
ATOM     12  C   UNL     1       6.157   3.332  12.471  0.00  0.00    +0.000 C 
ATOM     13  C   UNL     1       5.429   3.940  13.656  0.00  0.00    +0.000 C 
ENDBRANCH  11  13
ENDBRANCH   9  11
ENDBRANCH   3   9
ENDBRANCH   1   8
BRANCH   1  14
ATOM     14  S   UNL     1       3.321   3.570  17.810  0.00  0.00    +0.000 S 
ATOM     15  O   UNL     1       2.291   3.217  16.859  0.00  0.00    +0.000 OA
ATOM     16  O   UNL     1       3.949   2.554  18.627  0.00  0.00    +0.000 OA
BRANCH  14  17
ATOM     17  C   UNL     1       2.663   4.824  18.878  0.00  0.00    +0.000 A 
ATOM     18  C   UNL     1       2.847   6.173  18.518  0.00  0.00    +0.000 A 
ATOM     19  C   UNL     1       2.331   7.191  19.320  0.00  0.00    +0.000 A 
ATOM     20  C   UNL     1       1.652   6.862  20.485  0.00  0.00    +0.000 A 
ATOM     21  F   UNL     1       1.158   7.838  21.257  0.00  0.00    +0.000 F 
ATOM     22  C   UNL     1       1.475   5.535  20.860  0.00  0.00    +0.000 A 
ATOM     23  C   UNL     1       1.977   4.506  20.056  0.00  0.00    +0.000 A 
ATOM     24 CL   UNL     1       1.676   2.893  20.592  0.00  0.00    +0.000 Cl
ENDBRANCH  14  17
ENDBRANCH   1  14
TORSDOF 6
ENDMDL
MODEL 3
REMARK VINA RESULT:      -7.2      3.809      6.439
REMARK  Name = 
REMARK  7 active torsions:
REMARK  status: ('A' for Active; 'I' for Inactive)
REMARK    1  A    between atoms: C_1  and  C_2
REMARK    2  A    between atoms: C_2  and  O_3
REMARK    3  A    between atoms: O_3  and  C_4
REMARK    4  A    between atoms: C_4  and  C_6
REMARK    5  A    between atoms: C_11  and  N_12
REMARK    6  A    between atoms: N_12  and  S_13
REMARK    7  A    between atoms: S_13  and  C_16
REMARK                            x       y       z     vdW  Elec       q    Type
REMARK                         _______ _______ _______ _____ _____    ______ ____
ROOT
ATOM      1  N   UNL     1       4.363   5.680  18.705  0.00  0.00    +0.000 NA
ATOM      2  H   UNL     1       4.718   5.745  19.663  0.00  0.00    +0.000 HD
ENDROOT
BRANCH   1   8
ATOM      3  C   UNL     1       2.222   6.294  19.766  0.00  0.00    +0.000 C 
ATOM      4  C   UNL     1       1.544   7.373  20.209  0.00  0.00    +0.000 C 
ATOM      5  C   UNL     1       1.480   8.683  19.486  0.00  0.00    +0.000 C 
ATOM      6  C   UNL     1       1.967   8.577  18.049  0.00  0.00    +0.000 C 
ATOM      7  C   UNL     1       3.235   7.741  17.966  0.00  0.00    +0.000 C 
ATOM      8  C   UNL     1       3.037   6.300  18.484  0.00  0.00    +0.000 C 
BRANCH   3   9
ATOM      9  C   UNL     1       2.055   5.066  20.590  0.00  0.00    +0.000 C 
ATOM     10  O   UNL     1       2.905   4.638  21.361  0.00  0.00    +0.000 OA
BRANCH   9  11
ATOM     11  O   UNL     1       0.840   4.502  20.377  0.00  0.00    +0.000 OA
BRANCH  11  13
ATOM     12  C   UNL     1       0.643   2.542  18.972  0.00  0.00    +0.000 C 
ATOM     13  C   UNL     1       0.833   3.065  20.385  0.00  0.00    +0.000 C 
ENDBRANCH  11  13
ENDBRANCH   9  11
ENDBRANCH   3   9
ENDBRANCH   1   8
BRANCH   1  14
ATOM     14  S   UNL     1       4.649   4.117  18.130  0.00  0.00    +0.000 S 
ATOM     15  O   UNL     1       5.534   3.470  19.073  0.00  0.00    +0.000 OA
ATOM     16  O   UNL     1       3.367   3.532  17.803  0.00  0.00    +0.000 OA
BRANCH  14  17
ATOM     17  C   UNL     1       5.554   4.367  16.624  0.00  0.00    +0.000 A 
ATOM     18  C   UNL     1       4.921   4.055  15.406  0.00  0.00    +0.000 A 
ATOM     19  C   UNL     1       5.589   4.251  14.197  0.00  0.00    +0.000 A 
ATOM     20  C   UNL     1       6.888   4.740  14.208  0.00  0.00    +0.000 A 
ATOM     21  F   UNL     1       7.532   4.928  13.049  0.00  0.00    +0.000 F 
ATOM     22  C   UNL     1       7.530   5.039  15.405  0.00  0.00    +0.000 A 
ATOM     23  C   UNL     1       6.864   4.858  16.622  0.00  0.00    +0.000 A 
ATOM     24 CL   UNL     1       7.735   5.290  18.048  0.00  0.00    +0.000 Cl
ENDBRANCH  14  17
ENDBRANCH   1  14
TORSDOF 6
ENDMDL
MODEL 4
REMARK VINA RESULT:      -7.1      2.621      3.948
REMARK  Name = 
REMARK  7 active torsions:
REMARK  status: ('A' for Active; 'I' for Inactive)
REMARK    1  A    between atoms: C_1  and  C_2
REMARK    2  A    between atoms: C_2  and  O_3
REMARK    3  A    between atoms: O_3  and  C_4
REMARK    4  A    between atoms: C_4  and  C_6
REMARK    5  A    between atoms: C_11  and  N_12
REMARK    6  A    between atoms: N_12  and  S_13
REMARK    7  A    between atoms: S_13  and  C_16
REMARK                            x       y       z     vdW  Elec       q    Type
REMARK                         _______ _______ _______ _____ _____    ______ ____
ROOT
ATOM      1  N   UNL     1       4.544   3.077  17.653  0.00  0.00    +0.000 NA
ATOM      2  H   UNL     1       5.153   2.993  18.473  0.00  0.00    +0.000 HD
ENDROOT
BRANCH   1   8
ATOM      3  C   UNL     1       6.348   4.613  16.965  0.00  0.00    +0.000 C 
ATOM      4  C   UNL     1       7.273   4.775  15.995  0.00  0.00    +0.000 C 
ATOM      5  C   UNL     1       7.018   4.535  14.539  0.00  0.00    +0.000 C 
ATOM      6  C   UNL     1       5.535   4.420  14.221  0.00  0.00    +0.000 C 
ATOM      7  C   UNL     1       4.824   3.560  15.254  0.00  0.00    +0.000 C 
ATOM      8  C   UNL     1       4.936   4.128  16.685  0.00  0.00    +0.000 C 
BRANCH   3   9
ATOM      9  C   UNL     1       6.790   5.016  18.327  0.00  0.00    +0.000 C 
ATOM     10  O   UNL     1       6.129   4.837  19.342  0.00  0.00    +0.000 OA
BRANCH   9  11
ATOM     11  O   UNL     1       8.017   5.594  18.287  0.00  0.00    +0.000 OA
BRANCH  11  13
ATOM     12  C   UNL     1       7.737   7.915  17.662  0.00  0.00    +0.000 C 
ATOM     13  C   UNL     1       8.064   6.943  18.782  0.00  0.00    +0.000 C 
ENDBRANCH  11  13
ENDBRANCH   9  11
ENDBRANCH   3   9
ENDBRANCH   1   8
BRANCH   1  14
ATOM     14  S   UNL     1       2.937   2.986  18.165  0.00  0.00    +0.000 S 
ATOM     15  O   UNL     1       2.119   2.841  16.983  0.00  0.00    +0.000 OA
ATOM     16  O   UNL     1       2.874   2.007  19.229  0.00  0.00    +0.000 OA
BRANCH  14  17
ATOM     17  C   UNL     1       2.610   4.588  18.855  0.00  0.00    +0.000 A 
ATOM     18  C   UNL     1       2.934   5.724  18.089  0.00  0.00    +0.000 A 
ATOM     19  C   UNL     1       2.679   7.002  18.586  0.00  0.00    +0.000 A 
ATOM     20  C   UNL     1       2.120   7.143  19.849  0.00  0.00    +0.000 A 
ATOM     21  F   UNL     1       1.876   8.369  20.328  0.00  0.00    +0.000 F 
ATOM     22  C   UNL     1       1.809   6.030  20.622  0.00  0.00    +0.000 A 
ATOM     23  C   UNL     1       2.048   4.743  20.128  0.00  0.00    +0.000 A 
ATOM     24 CL   UNL     1       1.596   3.429  21.150  0.00  0.00    +0.000 Cl
ENDBRANCH  14  17
ENDBRANCH   1  14
TORSDOF 6
ENDMDL
MODEL 5
REMARK VINA RESULT:      -7.1      1.593      1.809
REMARK  Name = 
REMARK  7 active torsions:
REMARK  status: ('A' for Active; 'I' for Inactive)
REMARK    1  A    between atoms: C_1  and  C_2
REMARK    2  A    between atoms: C_2  and  O_3
REMARK    3  A    between atoms: O_3  and  C_4
REMARK    4  A    between atoms: C_4  and  C_6
REMARK    5  A    between atoms: C_11  and  N_12
REMARK    6  A    between atoms: N_12  and  S_13
REMARK    7  A    between atoms: S_13  and  C_16
REMARK                            x       y       z     vdW  Elec       q    Type
REMARK                         _______ _______ _______ _____ _____    ______ ____
ROOT
ATOM      1  N   UNL     1       5.776   3.839  18.228  0.00  0.00    +0.000 NA
ATOM      2  H   UNL     1       5.707   3.206  19.031  0.00  0.00    +0.000 HD
ENDROOT
BRANCH   1   8
ATOM      3  C   UNL     1       7.126   5.350  16.822  0.00  0.00    +0.000 C 
ATOM      4  C   UNL     1       7.483   6.648  16.722  0.00  0.00    +0.000 C 
ATOM      5  C   UNL     1       7.857   7.512  17.886  0.00  0.00    +0.000 C 
ATOM      6  C   UNL     1       8.125   6.702  19.146  0.00  0.00    +0.000 C 
ATOM      7  C   UNL     1       7.073   5.619  19.329  0.00  0.00    +0.000 C 
ATOM      8  C   UNL     1       7.031   4.622  18.152  0.00  0.00    +0.000 C 
BRANCH   3   9
ATOM      9  C   UNL     1       6.904   4.659  15.524  0.00  0.00    +0.000 C 
ATOM     10  O   UNL     1       6.359   3.567  15.414  0.00  0.00    +0.000 OA
BRANCH   9  11
ATOM     11  O   UNL     1       7.374   5.402  14.491  0.00  0.00    +0.000 OA
BRANCH  11  13
ATOM     12  C   UNL     1       7.954   5.643  12.155  0.00  0.00    +0.000 C 
ATOM     13  C   UNL     1       7.292   4.768  13.204  0.00  0.00    +0.000 C 
ENDBRANCH  11  13
ENDBRANCH   9  11
ENDBRANCH   3   9
ENDBRANCH   1   8
BRANCH   1  14
ATOM     14  S   UNL     1       4.296   4.632  18.042  0.00  0.00    +0.000 S 
ATOM     15  O   UNL     1       4.519   6.029  18.340  0.00  0.00    +0.000 OA
ATOM     16  O   UNL     1       3.744   4.230  16.765  0.00  0.00    +0.000 OA
BRANCH  14  17
ATOM     17  C   UNL     1       3.278   3.961  19.331  0.00  0.00    +0.000 A 
ATOM     18  C   UNL     1       2.829   4.826  20.346  0.00  0.00    +0.000 A 
ATOM     19  C   UNL     1       2.013   4.344  21.370  0.00  0.00    +0.000 A 
ATOM     20  C   UNL     1       1.664   3.001  21.388  0.00  0.00    +0.000 A 
ATOM     21  F   UNL     1       0.882   2.536  22.370  0.00  0.00    +0.000 F 
ATOM     22  C   UNL     1       2.112   2.132  20.399  0.00  0.00    +0.000 A 
ATOM     23  C   UNL     1       2.920   2.608  19.360  0.00  0.00    +0.000 A 
ATOM     24 CL   UNL     1       3.396   1.457  18.165  0.00  0.00    +0.000 Cl
ENDBRANCH  14  17
ENDBRANCH   1  14
TORSDOF 6
ENDMDL
MODEL 6
REMARK VINA RESULT:      -7.0      2.670      4.069
REMARK  Name = 
REMARK  7 active torsions:
REMARK  status: ('A' for Active; 'I' for Inactive)
REMARK    1  A    between atoms: C_1  and  C_2
REMARK    2  A    between atoms: C_2  and  O_3
REMARK    3  A    between atoms: O_3  and  C_4
REMARK    4  A    between atoms: C_4  and  C_6
REMARK    5  A    between atoms: C_11  and  N_12
REMARK    6  A    between atoms: N_12  and  S_13
REMARK    7  A    between atoms: S_13  and  C_16
REMARK                            x       y       z     vdW  Elec       q    Type
REMARK                         _______ _______ _______ _____ _____    ______ ____
ROOT
ATOM      1  N   UNL     1       5.705   3.747  17.981  0.00  0.00    +0.000 NA
ATOM      2  H   UNL     1       6.361   4.142  18.661  0.00  0.00    +0.000 HD
ENDROOT
BRANCH   1   8
ATOM      3  C   UNL     1       6.807   5.364  16.478  0.00  0.00    +0.000 C 
ATOM      4  C   UNL     1       7.429   5.426  15.282  0.00  0.00    +0.000 C 
ATOM      5  C   UNL     1       6.967   4.706  14.053  0.00  0.00    +0.000 C 
ATOM      6  C   UNL     1       5.549   4.172  14.192  0.00  0.00    +0.000 C 
ATOM      7  C   UNL     1       5.343   3.530  15.555  0.00  0.00    +0.000 C 
ATOM      8  C   UNL     1       5.571   4.514  16.721  0.00  0.00    +0.000 C 
BRANCH   3   9
ATOM      9  C   UNL     1       7.378   6.249  17.528  0.00  0.00    +0.000 C 
ATOM     10  O   UNL     1       7.400   5.969  18.721  0.00  0.00    +0.000 OA
BRANCH   9  11
ATOM     11  O   UNL     1       7.872   7.389  16.986  0.00  0.00    +0.000 OA
BRANCH  11  13
ATOM     12  C   UNL     1       8.559   9.334  18.250  0.00  0.00    +0.000 C 
ATOM     13  C   UNL     1       7.401   8.602  17.598  0.00  0.00    +0.000 C 
ENDBRANCH  11  13
ENDBRANCH   9  11
ENDBRANCH   3   9
ENDBRANCH   1   8
BRANCH   1  14
ATOM     14  S   UNL     1       4.311   3.256  18.799  0.00  0.00    +0.000 S 
ATOM     15  O   UNL     1       3.504   2.512  17.860  0.00  0.00    +0.000 OA
ATOM     16  O   UNL     1       4.729   2.657  20.049  0.00  0.00    +0.000 OA
BRANCH  14  17
ATOM     17  C   UNL     1       3.463   4.772  19.159  0.00  0.00    +0.000 A 
ATOM     18  C   UNL     1       3.675   5.874  18.309  0.00  0.00    +0.000 A 
ATOM     19  C   UNL     1       3.015   7.081  18.545  0.00  0.00    +0.000 A 
ATOM     20  C   UNL     1       2.163   7.189  19.635  0.00  0.00    +0.000 A 
ATOM     21  F   UNL     1       1.531   8.347  19.864  0.00  0.00    +0.000 F 
ATOM     22  C   UNL     1       1.956   6.114  20.491  0.00  0.00    +0.000 A 
ATOM     23  C   UNL     1       2.602   4.895  20.256  0.00  0.00    +0.000 A 
ATOM     24 CL   UNL     1       2.252   3.613  21.356  0.00  0.00    +0.000 Cl
ENDBRANCH  14  17
ENDBRANCH   1  14
TORSDOF 6
ENDMDL
MODEL 7
REMARK VINA RESULT:      -6.9      0.922      1.013
REMARK  Name = 
REMARK  7 active torsions:
REMARK  status: ('A' for Active; 'I' for Inactive)
REMARK    1  A    between atoms: C_1  and  C_2
REMARK    2  A    between atoms: C_2  and  O_3
REMARK    3  A    between atoms: O_3  and  C_4
REMARK    4  A    between atoms: C_4  and  C_6
REMARK    5  A    between atoms: C_11  and  N_12
REMARK    6  A    between atoms: N_12  and  S_13
REMARK    7  A    between atoms: S_13  and  C_16
REMARK                            x       y       z     vdW  Elec       q    Type
REMARK                         _______ _______ _______ _____ _____    ______ ____
ROOT
ATOM      1  N   UNL     1       4.192   4.751  17.642  0.00  0.00    +0.000 NA
ATOM      2  H   UNL     1       3.943   5.390  16.881  0.00  0.00    +0.000 HD
ENDROOT
BRANCH   1   8
ATOM      3  C   UNL     1       6.448   5.392  16.874  0.00  0.00    +0.000 C 
ATOM      4  C   UNL     1       7.460   6.229  17.182  0.00  0.00    +0.000 C 
ATOM      5  C   UNL     1       7.934   6.503  18.576  0.00  0.00    +0.000 C 
ATOM      6  C   UNL     1       7.393   5.495  19.580  0.00  0.00    +0.000 C 
ATOM      7  C   UNL     1       5.918   5.222  19.334  0.00  0.00    +0.000 C 
ATOM      8  C   UNL     1       5.642   4.650  17.927  0.00  0.00    +0.000 C 
BRANCH   3   9
ATOM      9  C   UNL     1       6.223   5.187  15.418  0.00  0.00    +0.000 C 
ATOM     10  O   UNL     1       5.226   4.653  14.948  0.00  0.00    +0.000 OA
BRANCH   9  11
ATOM     11  O   UNL     1       7.259   5.678  14.694  0.00  0.00    +0.000 OA
BRANCH  11  13
ATOM     12  C   UNL     1       8.448   5.680  12.587  0.00  0.00    +0.000 C 
ATOM     13  C   UNL     1       7.675   4.850  13.596  0.00  0.00    +0.000 C 
ENDBRANCH  11  13
ENDBRANCH   9  11
ENDBRANCH   3   9
ENDBRANCH   1   8
BRANCH   1  14
ATOM     14  S   UNL     1       3.284   3.336  17.474  0.00  0.00    +0.000 S 
ATOM     15  O   UNL     1       2.217   3.621  16.542  0.00  0.00    +0.000 OA
ATOM     16  O   UNL     1       4.210   2.252  17.224  0.00  0.00    +0.000 OA
BRANCH  14  17
ATOM     17  C   UNL     1       2.556   3.096  19.074  0.00  0.00    +0.000 A 
ATOM     18  C   UNL     1       1.224   3.509  19.270  0.00  0.00    +0.000 A 
ATOM     19  C   UNL     1       0.606   3.324  20.507  0.00  0.00    +0.000 A 
ATOM     20  C   UNL     1       1.322   2.747  21.546  0.00  0.00    +0.000 A 
ATOM     21  F   UNL     1       0.731   2.569  22.734  0.00  0.00    +0.000 F 
ATOM     22  C   UNL     1       2.642   2.347  21.370  0.00  0.00    +0.000 A 
ATOM     23  C   UNL     1       3.267   2.515  20.130  0.00  0.00    +0.000 A 
ATOM     24 CL   UNL     1       4.895   1.957  20.005  0.00  0.00    +0.000 Cl
ENDBRANCH  14  17
ENDBRANCH   1  14
TORSDOF 6
ENDMDL
MODEL 8
REMARK VINA RESULT:      -6.9      1.169      1.359
REMARK  Name = 
REMARK  7 active torsions:
REMARK  status: ('A' for Active; 'I' for Inactive)
REMARK    1  A    between atoms: C_1  and  C_2
REMARK    2  A    between atoms: C_2  and  O_3
REMARK    3  A    between atoms: O_3  and  C_4
REMARK    4  A    between atoms: C_4  and  C_6
REMARK    5  A    between atoms: C_11  and  N_12
REMARK    6  A    between atoms: N_12  and  S_13
REMARK    7  A    between atoms: S_13  and  C_16
REMARK                            x       y       z     vdW  Elec       q    Type
REMARK                         _______ _______ _______ _____ _____    ______ ____
ROOT
ATOM      1  N   UNL     1       4.265   5.094  17.673  0.00  0.00    +0.000 NA
ATOM      2  H   UNL     1       3.908   5.795  17.016  0.00  0.00    +0.000 HD
ENDROOT
BRANCH   1   8
ATOM      3  C   UNL     1       6.391   6.013  16.822  0.00  0.00    +0.000 C 
ATOM      4  C   UNL     1       7.392   6.844  17.183  0.00  0.00    +0.000 C 
ATOM      5  C   UNL     1       8.003   6.883  18.550  0.00  0.00    +0.000 C 
ATOM      6  C   UNL     1       7.623   5.673  19.391  0.00  0.00    +0.000 C 
ATOM      7  C   UNL     1       6.143   5.354  19.245  0.00  0.00    +0.000 C 
ATOM      8  C   UNL     1       5.740   5.037  17.788  0.00  0.00    +0.000 C 
BRANCH   3   9
ATOM      9  C   UNL     1       6.017   6.069  15.384  0.00  0.00    +0.000 C 
ATOM     10  O   UNL     1       5.091   6.739  14.943  0.00  0.00    +0.000 OA
BRANCH   9  11
ATOM     11  O   UNL     1       6.842   5.292  14.638  0.00  0.00    +0.000 OA
BRANCH  11  13
ATOM     12  C   UNL     1       6.167   3.708  12.939  0.00  0.00    +0.000 C 
ATOM     13  C   UNL     1       6.376   3.950  14.423  0.00  0.00    +0.000 C 
ENDBRANCH  11  13
ENDBRANCH   9  11
ENDBRANCH   3   9
ENDBRANCH   1   8
BRANCH   1  14
ATOM     14  S   UNL     1       3.399   3.660  17.453  0.00  0.00    +0.000 S 
ATOM     15  O   UNL     1       2.362   3.932  16.483  0.00  0.00    +0.000 OA
ATOM     16  O   UNL     1       4.360   2.602  17.226  0.00  0.00    +0.000 OA
BRANCH  14  17
ATOM     17  C   UNL     1       2.615   3.382  19.020  0.00  0.00    +0.000 A 
ATOM     18  C   UNL     1       2.494   2.057  19.480  0.00  0.00    +0.000 A 
ATOM     19  C   UNL     1       1.899   1.793  20.714  0.00  0.00    +0.000 A 
ATOM     20  C   UNL     1       1.411   2.847  21.474  0.00  0.00    +0.000 A 
ATOM     21  F   UNL     1       0.839   2.596  22.658  0.00  0.00    +0.000 F 
ATOM     22  C   UNL     1       1.511   4.160  21.025  0.00  0.00    +0.000 A 
ATOM     23  C   UNL     1       2.118   4.436  19.795  0.00  0.00    +0.000 A 
ATOM     24 CL   UNL     1       2.222   6.098  19.344  0.00  0.00    +0.000 Cl
ENDBRANCH  14  17
ENDBRANCH   1  14
TORSDOF 6
ENDMDL
MODEL 9
REMARK VINA RESULT:      -6.8      3.407      6.232
REMARK  Name = 
REMARK  7 active torsions:
REMARK  status: ('A' for Active; 'I' for Inactive)
REMARK    1  A    between atoms: C_1  and  C_2
REMARK    2  A    between atoms: C_2  and  O_3
REMARK    3  A    between atoms: O_3  and  C_4
REMARK    4  A    between atoms: C_4  and  C_6
REMARK    5  A    between atoms: C_11  and  N_12
REMARK    6  A    between atoms: N_12  and  S_13
REMARK    7  A    between atoms: S_13  and  C_16
REMARK                            x       y       z     vdW  Elec       q    Type
REMARK                         _______ _______ _______ _____ _____    ______ ____
ROOT
ATOM      1  N   UNL     1       3.600   4.204  16.810  0.00  0.00    +0.000 NA
ATOM      2  H   UNL     1       3.410   5.210  16.785  0.00  0.00    +0.000 HD
ENDROOT
BRANCH   1   8
ATOM      3  C   UNL     1       2.627   4.518  19.055  0.00  0.00    +0.000 C 
ATOM      4  C   UNL     1       1.497   4.270  19.751  0.00  0.00    +0.000 C 
ATOM      5  C   UNL     1       0.720   2.993  19.670  0.00  0.00    +0.000 C 
ATOM      6  C   UNL     1       1.504   1.879  18.991  0.00  0.00    +0.000 C 
ATOM      7  C   UNL     1       2.221   2.396  17.754  0.00  0.00    +0.000 C 
ATOM      8  C   UNL     1       3.223   3.526  18.071  0.00  0.00    +0.000 C 
BRANCH   3   9
ATOM      9  C   UNL     1       3.292   5.809  19.377  0.00  0.00    +0.000 C 
ATOM     10  O   UNL     1       4.474   5.912  19.684  0.00  0.00    +0.000 OA
BRANCH   9  11
ATOM     11  O   UNL     1       2.420   6.842  19.275  0.00  0.00    +0.000 OA
BRANCH  11  13
ATOM     12  C   UNL     1       1.755   8.912  18.213  0.00  0.00    +0.000 C 
ATOM     13  C   UNL     1       2.550   7.626  18.077  0.00  0.00    +0.000 C 
ENDBRANCH  11  13
ENDBRANCH   9  11
ENDBRANCH   3   9
ENDBRANCH   1   8
BRANCH   1  14
ATOM     14  S   UNL     1       5.133   3.931  16.153  0.00  0.00    +0.000 S 
ATOM     15  O   UNL     1       5.558   2.621  16.589  0.00  0.00    +0.000 OA
ATOM     16  O   UNL     1       5.065   4.252  14.743  0.00  0.00    +0.000 OA
BRANCH  14  17
ATOM     17  C   UNL     1       6.168   5.130  16.953  0.00  0.00    +0.000 A 
ATOM     18  C   UNL     1       7.118   4.674  17.887  0.00  0.00    +0.000 A 
ATOM     19  C   UNL     1       7.964   5.580  18.527  0.00  0.00    +0.000 A 
ATOM     20  C   UNL     1       7.847   6.934  18.249  0.00  0.00    +0.000 A 
ATOM     21  F   UNL     1       8.658   7.805  18.863  0.00  0.00    +0.000 F 
ATOM     22  C   UNL     1       6.904   7.400  17.339  0.00  0.00    +0.000 A 
ATOM     23  C   UNL     1       6.059   6.498  16.681  0.00  0.00    +0.000 A 
ATOM     24 CL   UNL     1       4.947   7.173  15.548  0.00  0.00    +0.000 Cl
ENDBRANCH  14  17
ENDBRANCH   1  14
TORSDOF 6
ENDMDL
