MODEL 1
REMARK VINA RESULT:      -7.9      0.000      0.000
REMARK  Name = 
REMARK  3 active torsions:
REMARK  status: ('A' for Active; 'I' for Inactive)
REMARK    1  A    between atoms: C_1  and  C_2
REMARK    2  A    between atoms: C_7  and  C_8
REMARK    3  A    between atoms: C_15  and  C_17
REMARK                            x       y       z     vdW  Elec       q    Type
REMARK                         _______ _______ _______ _____ _____    ______ ____
ROOT
ATOM      1  C   UNL     1       2.278  16.558  18.365  0.00  0.00    +0.000 C 
ATOM      2  C   UNL     1       1.590  15.232  18.548  0.00  0.00    +0.000 A 
ATOM      3  C   UNL     1       2.343  14.051  18.464  0.00  0.00    +0.000 A 
ATOM      4  C   UNL     1       1.704  12.834  18.640  0.00  0.00    +0.000 A 
ATOM      5  C   UNL     1       0.335  12.768  18.904  0.00  0.00    +0.000 A 
ATOM      6  C   UNL     1      -0.434  13.916  18.993  0.00  0.00    +0.000 A 
ATOM      7  C   UNL     1       0.197  15.156  18.809  0.00  0.00    +0.000 A 
ATOM      8  C   UNL     1      -0.104  11.351  19.150  0.00  0.00    +0.000 C 
ATOM      9  C   UNL     1      -0.320  11.127  20.646  0.00  0.00    +0.000 C 
ATOM     10  C   UNL     1      -0.290   9.650  20.971  0.00  0.00    +0.000 C 
ATOM     11  C   UNL     1       1.026   9.044  20.530  0.00  0.00    +0.000 C 
ATOM     12  N   UNL     1       1.314   9.216  19.106  0.00  0.00    +0.000 N 
ATOM     13  C   UNL     1       2.052   8.310  18.313  0.00  0.00    +0.000 C 
ATOM     14  O   UNL     1       2.256   8.518  17.116  0.00  0.00    +0.000 OA
ATOM     15  C   UNL     1       1.083  10.553  18.539  0.00  0.00    +0.000 C 
ATOM     16  C   UNL     1       2.327  11.470  18.659  0.00  0.00    +0.000 C 
ENDROOT
BRANCH  13  17
ATOM     17  C   UNL     1       2.587   7.034  18.884  0.00  0.00    +0.000 A 
ATOM     18  C   UNL     1       3.637   6.389  18.207  0.00  0.00    +0.000 A 
ATOM     19  C   UNL     1       4.088   5.119  18.606  0.00  0.00    +0.000 A 
ATOM     20  C   UNL     1       3.399   4.462  19.634  0.00  0.00    +0.000 A 
ATOM     21  N   UNL     1       3.508   3.174  20.096  0.00  0.00    +0.000 NA
ATOM     22  C   UNL     1       2.554   3.044  20.989  0.00  0.00    +0.000 A 
ATOM     23  N   UNL     1       1.893   4.222  21.196  0.00  0.00    +0.000 N 
ATOM     24  C   UNL     1       2.409   5.147  20.325  0.00  0.00    +0.000 A 
ATOM     25  C   UNL     1       2.066   6.472  20.060  0.00  0.00    +0.000 A 
ATOM     26  H   UNL     1       1.095   4.355  21.799  0.00  0.00    +0.000 HD
ENDBRANCH  13  17
BRANCH   7  27
ATOM     27  C   UNL     1      -0.602  16.349  18.915  0.00  0.00    +0.000 C 
ATOM     28  N   UNL     1      -1.248  17.305  19.006  0.00  0.00    +0.000 NA
ENDBRANCH   7  27
TORSDOF 2
ENDMDL
MODEL 2
REMARK VINA RESULT:      -7.7      1.219      1.471
REMARK  Name = 
REMARK  3 active torsions:
REMARK  status: ('A' for Active; 'I' for Inactive)
REMARK    1  A    between atoms: C_1  and  C_2
REMARK    2  A    between atoms: C_7  and  C_8
REMARK    3  A    between atoms: C_15  and  C_17
REMARK                            x       y       z     vdW  Elec       q    Type
REMARK                         _______ _______ _______ _____ _____    ______ ____
ROOT
ATOM      1  C   UNL     1       0.291  16.572  19.325  0.00  0.00    +0.000 C 
ATOM      2  C   UNL     1      -0.024  15.116  19.530  0.00  0.00    +0.000 A 
ATOM      3  C   UNL     1       0.895  14.147  19.096  0.00  0.00    +0.000 A 
ATOM      4  C   UNL     1       0.600  12.808  19.294  0.00  0.00    +0.000 A 
ATOM      5  C   UNL     1      -0.583  12.412  19.918  0.00  0.00    +0.000 A 
ATOM      6  C   UNL     1      -1.507  13.344  20.358  0.00  0.00    +0.000 A 
ATOM      7  C   UNL     1      -1.229  14.705  20.158  0.00  0.00    +0.000 A 
ATOM      8  C   UNL     1      -0.629  10.920  20.103  0.00  0.00    +0.000 C 
ATOM      9  C   UNL     1      -0.337  10.567  21.561  0.00  0.00    +0.000 C 
ATOM     10  C   UNL     1       0.091   9.122  21.681  0.00  0.00    +0.000 C 
ATOM     11  C   UNL     1       1.310   8.862  20.820  0.00  0.00    +0.000 C 
ATOM     12  N   UNL     1       1.117   9.177  19.405  0.00  0.00    +0.000 N 
ATOM     13  C   UNL     1       1.753   8.513  18.333  0.00  0.00    +0.000 C 
ATOM     14  O   UNL     1       1.542   8.829  17.161  0.00  0.00    +0.000 OA
ATOM     15  C   UNL     1       0.459  10.454  19.092  0.00  0.00    +0.000 C 
ATOM     16  C   UNL     1       1.466  11.626  18.971  0.00  0.00    +0.000 C 
ENDROOT
BRANCH  13  17
ATOM     17  C   UNL     1       2.683   7.365  18.573  0.00  0.00    +0.000 A 
ATOM     18  C   UNL     1       3.812   7.238  17.744  0.00  0.00    +0.000 A 
ATOM     19  C   UNL     1       4.647   6.109  17.819  0.00  0.00    +0.000 A 
ATOM     20  C   UNL     1       4.271   5.061  18.669  0.00  0.00    +0.000 A 
ATOM     21  N   UNL     1       4.789   3.797  18.807  0.00  0.00    +0.000 NA
ATOM     22  C   UNL     1       3.996   3.187  19.657  0.00  0.00    +0.000 A 
ATOM     23  N   UNL     1       3.042   4.031  20.151  0.00  0.00    +0.000 N 
ATOM     24  C   UNL     1       3.189   5.240  19.520  0.00  0.00    +0.000 A 
ATOM     25  C   UNL     1       2.453   6.422  19.586  0.00  0.00    +0.000 A 
ATOM     26  H   UNL     1       2.294   3.777  20.781  0.00  0.00    +0.000 HD
ENDBRANCH  13  17
BRANCH   7  27
ATOM     27  C   UNL     1      -2.185  15.672  20.627  0.00  0.00    +0.000 C 
ATOM     28  N   UNL     1      -2.959  16.450  20.997  0.00  0.00    +0.000 NA
ENDBRANCH   7  27
TORSDOF 2
ENDMDL
MODEL 3
REMARK VINA RESULT:      -7.6      1.724      2.379
REMARK  Name = 
REMARK  3 active torsions:
REMARK  status: ('A' for Active; 'I' for Inactive)
REMARK    1  A    between atoms: C_1  and  C_2
REMARK    2  A    between atoms: C_7  and  C_8
REMARK    3  A    between atoms: C_15  and  C_17
REMARK                            x       y       z     vdW  Elec       q    Type
REMARK                         _______ _______ _______ _____ _____    ______ ____
ROOT
ATOM      1  C   UNL     1       0.495  16.352  20.066  0.00  0.00    +0.000 C 
ATOM      2  C   UNL     1       0.161  14.884  20.060  0.00  0.00    +0.000 A 
ATOM      3  C   UNL     1       1.110  13.967  19.582  0.00  0.00    +0.000 A 
ATOM      4  C   UNL     1       0.798  12.617  19.586  0.00  0.00    +0.000 A 
ATOM      5  C   UNL     1      -0.433  12.160  20.059  0.00  0.00    +0.000 A 
ATOM      6  C   UNL     1      -1.388  13.042  20.537  0.00  0.00    +0.000 A 
ATOM      7  C   UNL     1      -1.091  14.413  20.533  0.00  0.00    +0.000 A 
ATOM      8  C   UNL     1      -0.497  10.658  20.050  0.00  0.00    +0.000 C 
ATOM      9  C   UNL     1      -0.324  10.122  21.471  0.00  0.00    +0.000 C 
ATOM     10  C   UNL     1       0.089   8.668  21.442  0.00  0.00    +0.000 C 
ATOM     11  C   UNL     1       1.373   8.503  20.655  0.00  0.00    +0.000 C 
ATOM     12  N   UNL     1       1.296   8.994  19.280  0.00  0.00    +0.000 N 
ATOM     13  C   UNL     1       2.014   8.463  18.187  0.00  0.00    +0.000 C 
ATOM     14  O   UNL     1       1.899   8.926  17.051  0.00  0.00    +0.000 OA
ATOM     15  C   UNL     1       0.668  10.309  19.079  0.00  0.00    +0.000 C 
ATOM     16  C   UNL     1       1.684  11.474  19.187  0.00  0.00    +0.000 C 
ENDROOT
BRANCH  13  17
ATOM     17  C   UNL     1       2.920   7.282  18.353  0.00  0.00    +0.000 A 
ATOM     18  C   UNL     1       2.625   6.355  19.369  0.00  0.00    +0.000 A 
ATOM     19  C   UNL     1       3.508   5.305  19.674  0.00  0.00    +0.000 A 
ATOM     20  C   UNL     1       4.742   5.260  19.011  0.00  0.00    +0.000 A 
ATOM     21  N   UNL     1       5.842   4.470  19.230  0.00  0.00    +0.000 NA
ATOM     22  C   UNL     1       6.761   4.917  18.405  0.00  0.00    +0.000 A 
ATOM     23  N   UNL     1       6.272   5.899  17.590  0.00  0.00    +0.000 N 
ATOM     24  C   UNL     1       4.979   6.149  17.970  0.00  0.00    +0.000 A 
ATOM     25  C   UNL     1       4.042   7.086  17.535  0.00  0.00    +0.000 A 
ATOM     26  H   UNL     1       6.803   6.424  16.911  0.00  0.00    +0.000 HD
ENDBRANCH  13  17
BRANCH   7  27
ATOM     27  C   UNL     1      -2.080  15.326  21.042  0.00  0.00    +0.000 C 
ATOM     28  N   UNL     1      -2.879  16.061  21.444  0.00  0.00    +0.000 NA
ENDBRANCH   7  27
TORSDOF 2
ENDMDL
MODEL 4
REMARK VINA RESULT:      -7.6      2.374      2.843
REMARK  Name = 
REMARK  3 active torsions:
REMARK  status: ('A' for Active; 'I' for Inactive)
REMARK    1  A    between atoms: C_1  and  C_2
REMARK    2  A    between atoms: C_7  and  C_8
REMARK    3  A    between atoms: C_15  and  C_17
REMARK                            x       y       z     vdW  Elec       q    Type
REMARK                         _______ _______ _______ _____ _____    ______ ____
ROOT
ATOM      1  C   UNL     1       0.526  15.992  22.179  0.00  0.00    +0.000 C 
ATOM      2  C   UNL     1       0.186  14.553  21.899  0.00  0.00    +0.000 A 
ATOM      3  C   UNL     1       1.046  13.789  21.094  0.00  0.00    +0.000 A 
ATOM      4  C   UNL     1       0.730  12.463  20.847  0.00  0.00    +0.000 A 
ATOM      5  C   UNL     1      -0.417  11.880  21.387  0.00  0.00    +0.000 A 
ATOM      6  C   UNL     1      -1.283  12.608  22.185  0.00  0.00    +0.000 A 
ATOM      7  C   UNL     1      -0.982  13.955  22.439  0.00  0.00    +0.000 A 
ATOM      8  C   UNL     1      -0.491  10.415  21.056  0.00  0.00    +0.000 C 
ATOM      9  C   UNL     1      -0.107   9.586  22.281  0.00  0.00    +0.000 C 
ATOM     10  C   UNL     1       0.288   8.185  21.871  0.00  0.00    +0.000 C 
ATOM     11  C   UNL     1       1.436   8.232  20.884  0.00  0.00    +0.000 C 
ATOM     12  N   UNL     1       1.154   9.011  19.678  0.00  0.00    +0.000 N 
ATOM     13  C   UNL     1       1.694   8.751  18.400  0.00  0.00    +0.000 C 
ATOM     14  O   UNL     1       1.410   9.448  17.425  0.00  0.00    +0.000 OA
ATOM     15  C   UNL     1       0.510  10.319  19.869  0.00  0.00    +0.000 C 
ATOM     16  C   UNL     1       1.538  11.460  20.078  0.00  0.00    +0.000 C 
ENDROOT
BRANCH  13  17
ATOM     17  C   UNL     1       2.608   7.588  18.164  0.00  0.00    +0.000 A 
ATOM     18  C   UNL     1       3.793   7.808  17.441  0.00  0.00    +0.000 A 
ATOM     19  C   UNL     1       4.623   6.739  17.061  0.00  0.00    +0.000 A 
ATOM     20  C   UNL     1       4.189   5.434  17.330  0.00  0.00    +0.000 A 
ATOM     21  N   UNL     1       4.699   4.226  16.925  0.00  0.00    +0.000 NA
ATOM     22  C   UNL     1       3.848   3.326  17.362  0.00  0.00    +0.000 A 
ATOM     23  N   UNL     1       2.859   3.891  18.117  0.00  0.00    +0.000 N 
ATOM     24  C   UNL     1       3.048   5.249  18.100  0.00  0.00    +0.000 A 
ATOM     25  C   UNL     1       2.308   6.301  18.636  0.00  0.00    +0.000 A 
ATOM     26  H   UNL     1       2.069   3.407  18.518  0.00  0.00    +0.000 HD
ENDBRANCH  13  17
BRANCH   7  27
ATOM     27  C   UNL     1      -1.877  14.706  23.279  0.00  0.00    +0.000 C 
ATOM     28  N   UNL     1      -2.595  15.317  23.951  0.00  0.00    +0.000 NA
ENDBRANCH   7  27
TORSDOF 2
ENDMDL
MODEL 5
REMARK VINA RESULT:      -7.4      2.692      3.859
REMARK  Name = 
REMARK  3 active torsions:
REMARK  status: ('A' for Active; 'I' for Inactive)
REMARK    1  A    between atoms: C_1  and  C_2
REMARK    2  A    between atoms: C_7  and  C_8
REMARK    3  A    between atoms: C_15  and  C_17
REMARK                            x       y       z     vdW  Elec       q    Type
REMARK                         _______ _______ _______ _____ _____    ______ ____
ROOT
ATOM      1  C   UNL     1      -3.848  13.510  24.533  0.00  0.00    +0.000 C 
ATOM      2  C   UNL     1      -2.794  13.151  23.521  0.00  0.00    +0.000 A 
ATOM      3  C   UNL     1      -2.331  11.828  23.451  0.00  0.00    +0.000 A 
ATOM      4  C   UNL     1      -1.365  11.504  22.512  0.00  0.00    +0.000 A 
ATOM      5  C   UNL     1      -0.854  12.465  21.639  0.00  0.00    +0.000 A 
ATOM      6  C   UNL     1      -1.292  13.778  21.684  0.00  0.00    +0.000 A 
ATOM      7  C   UNL     1      -2.264  14.125  22.634  0.00  0.00    +0.000 A 
ATOM      8  C   UNL     1       0.106  11.854  20.657  0.00  0.00    +0.000 C 
ATOM      9  C   UNL     1      -0.569  11.707  19.293  0.00  0.00    +0.000 C 
ATOM     10  C   UNL     1       0.165  10.694  18.444  0.00  0.00    +0.000 C 
ATOM     11  C   UNL     1       0.219   9.356  19.154  0.00  0.00    +0.000 C 
ATOM     12  N   UNL     1       0.850   9.407  20.473  0.00  0.00    +0.000 N 
ATOM     13  C   UNL     1       1.578   8.352  21.065  0.00  0.00    +0.000 C 
ATOM     14  O   UNL     1       2.086   8.464  22.181  0.00  0.00    +0.000 OA
ATOM     15  C   UNL     1       0.446  10.508  21.360  0.00  0.00    +0.000 C 
ATOM     16  C   UNL     1      -0.788  10.149  22.226  0.00  0.00    +0.000 C 
ENDROOT
BRANCH  13  17
ATOM     17  C   UNL     1       1.800   7.060  20.341  0.00  0.00    +0.000 A 
ATOM     18  C   UNL     1       2.446   7.098  19.093  0.00  0.00    +0.000 A 
ATOM     19  C   UNL     1       2.559   5.946  18.296  0.00  0.00    +0.000 A 
ATOM     20  C   UNL     1       1.921   4.775  18.728  0.00  0.00    +0.000 A 
ATOM     21  N   UNL     1       1.722   3.581  18.082  0.00  0.00    +0.000 NA
ATOM     22  C   UNL     1       0.972   2.869  18.892  0.00  0.00    +0.000 A 
ATOM     23  N   UNL     1       0.758   3.514  20.078  0.00  0.00    +0.000 N 
ATOM     24  C   UNL     1       1.347   4.749  19.991  0.00  0.00    +0.000 A 
ATOM     25  C   UNL     1       1.379   5.831  20.870  0.00  0.00    +0.000 A 
ATOM     26  H   UNL     1       0.175   3.185  20.833  0.00  0.00    +0.000 HD
ENDBRANCH  13  17
BRANCH   7  27
ATOM     27  C   UNL     1      -2.727  15.487  22.670  0.00  0.00    +0.000 C 
ATOM     28  N   UNL     1      -3.103  16.581  22.705  0.00  0.00    +0.000 NA
ENDBRANCH   7  27
TORSDOF 2
ENDMDL
MODEL 6
REMARK VINA RESULT:      -7.4      2.827      4.169
REMARK  Name = 
REMARK  3 active torsions:
REMARK  status: ('A' for Active; 'I' for Inactive)
REMARK    1  A    between atoms: C_1  and  C_2
REMARK    2  A    between atoms: C_7  and  C_8
REMARK    3  A    between atoms: C_15  and  C_17
REMARK                            x       y       z     vdW  Elec       q    Type
REMARK                         _______ _______ _______ _____ _____    ______ ____
ROOT
ATOM      1  C   UNL     1      -4.105  13.527  24.602  0.00  0.00    +0.000 C 
ATOM      2  C   UNL     1      -2.975  13.250  23.648  0.00  0.00    +0.000 A 
ATOM      3  C   UNL     1      -2.518  11.932  23.489  0.00  0.00    +0.000 A 
ATOM      4  C   UNL     1      -1.482  11.685  22.603  0.00  0.00    +0.000 A 
ATOM      5  C   UNL     1      -0.896  12.716  21.868  0.00  0.00    +0.000 A 
ATOM      6  C   UNL     1      -1.327  14.026  22.003  0.00  0.00    +0.000 A 
ATOM      7  C   UNL     1      -2.370  14.295  22.902  0.00  0.00    +0.000 A 
ATOM      8  C   UNL     1       0.135  12.186  20.911  0.00  0.00    +0.000 C 
ATOM      9  C   UNL     1      -0.430  12.178  19.491  0.00  0.00    +0.000 C 
ATOM     10  C   UNL     1       0.363  11.239  18.610  0.00  0.00    +0.000 C 
ATOM     11  C   UNL     1       0.350   9.840  19.191  0.00  0.00    +0.000 C 
ATOM     12  N   UNL     1       0.874   9.757  20.554  0.00  0.00    +0.000 N 
ATOM     13  C   UNL     1       1.545   8.640  21.099  0.00  0.00    +0.000 C 
ATOM     14  O   UNL     1       1.963   8.640  22.258  0.00  0.00    +0.000 OA
ATOM     15  C   UNL     1       0.409  10.776  21.508  0.00  0.00    +0.000 C 
ATOM     16  C   UNL     1      -0.893  10.355  22.236  0.00  0.00    +0.000 C 
ENDROOT
BRANCH  13  17
ATOM     17  C   UNL     1       1.816   7.419  20.275  0.00  0.00    +0.000 A 
ATOM     18  C   UNL     1       1.418   6.171  20.786  0.00  0.00    +0.000 A 
ATOM     19  C   UNL     1       1.767   4.974  20.135  0.00  0.00    +0.000 A 
ATOM     20  C   UNL     1       2.610   5.047  19.018  0.00  0.00    +0.000 A 
ATOM     21  N   UNL     1       3.239   4.053  18.311  0.00  0.00    +0.000 NA
ATOM     22  C   UNL     1       3.996   4.674  17.436  0.00  0.00    +0.000 A 
ATOM     23  N   UNL     1       3.811   6.028  17.480  0.00  0.00    +0.000 N 
ATOM     24  C   UNL     1       2.934   6.294  18.500  0.00  0.00    +0.000 A 
ATOM     25  C   UNL     1       2.453   7.492  19.028  0.00  0.00    +0.000 A 
ATOM     26  H   UNL     1       4.315   6.712  16.937  0.00  0.00    +0.000 HD
ENDBRANCH  13  17
BRANCH   7  27
ATOM     27  C   UNL     1      -2.824  15.654  23.031  0.00  0.00    +0.000 C 
ATOM     28  N   UNL     1      -3.189  16.747  23.142  0.00  0.00    +0.000 NA
ENDBRANCH   7  27
TORSDOF 2
ENDMDL
MODEL 7
REMARK VINA RESULT:      -7.3      3.634      4.859
REMARK  Name = 
REMARK  3 active torsions:
REMARK  status: ('A' for Active; 'I' for Inactive)
REMARK    1  A    between atoms: C_1  and  C_2
REMARK    2  A    between atoms: C_7  and  C_8
REMARK    3  A    between atoms: C_15  and  C_17
REMARK                            x       y       z     vdW  Elec       q    Type
REMARK                         _______ _______ _______ _____ _____    ______ ____
ROOT
ATOM      1  C   UNL     1      -5.771  13.709  24.133  0.00  0.00    +0.000 C 
ATOM      2  C   UNL     1      -4.984  13.481  22.871  0.00  0.00    +0.000 A 
ATOM      3  C   UNL     1      -3.855  12.648  22.908  0.00  0.00    +0.000 A 
ATOM      4  C   UNL     1      -3.139  12.437  21.740  0.00  0.00    +0.000 A 
ATOM      5  C   UNL     1      -3.526  13.030  20.538  0.00  0.00    +0.000 A 
ATOM      6  C   UNL     1      -4.636  13.855  20.470  0.00  0.00    +0.000 A 
ATOM      7  C   UNL     1      -5.367  14.086  21.646  0.00  0.00    +0.000 A 
ATOM      8  C   UNL     1      -2.654  12.575  19.401  0.00  0.00    +0.000 C 
ATOM      9  C   UNL     1      -3.402  11.550  18.550  0.00  0.00    +0.000 C 
ATOM     10  C   UNL     1      -2.431  10.740  17.720  0.00  0.00    +0.000 C 
ATOM     11  C   UNL     1      -1.424  10.049  18.617  0.00  0.00    +0.000 C 
ATOM     12  N   UNL     1      -0.663  10.960  19.470  0.00  0.00    +0.000 N 
ATOM     13  C   UNL     1       0.664  10.748  19.903  0.00  0.00    +0.000 C 
ATOM     14  O   UNL     1       1.247  11.561  20.622  0.00  0.00    +0.000 OA
ATOM     15  C   UNL     1      -1.424  12.009  20.168  0.00  0.00    +0.000 C 
ATOM     16  C   UNL     1      -1.954  11.538  21.546  0.00  0.00    +0.000 C 
ENDROOT
BRANCH  13  17
ATOM     17  C   UNL     1       1.438   9.541  19.471  0.00  0.00    +0.000 A 
ATOM     18  C   UNL     1       1.885   9.477  18.140  0.00  0.00    +0.000 A 
ATOM     19  C   UNL     1       2.489   8.315  17.630  0.00  0.00    +0.000 A 
ATOM     20  C   UNL     1       2.546   7.181  18.451  0.00  0.00    +0.000 A 
ATOM     21  N   UNL     1       2.912   5.890  18.161  0.00  0.00    +0.000 NA
ATOM     22  C   UNL     1       2.672   5.207  19.258  0.00  0.00    +0.000 A 
ATOM     23  N   UNL     1       2.259   6.019  20.277  0.00  0.00    +0.000 N 
ATOM     24  C   UNL     1       2.156   7.292  19.779  0.00  0.00    +0.000 A 
ATOM     25  C   UNL     1       1.717   8.485  20.352  0.00  0.00    +0.000 A 
ATOM     26  H   UNL     1       1.973   5.715  21.196  0.00  0.00    +0.000 HD
ENDBRANCH  13  17
BRANCH   7  27
ATOM     27  C   UNL     1      -6.528  14.933  21.571  0.00  0.00    +0.000 C 
ATOM     28  N   UNL     1      -7.460  15.617  21.518  0.00  0.00    +0.000 NA
ENDBRANCH   7  27
TORSDOF 2
ENDMDL
MODEL 8
REMARK VINA RESULT:      -7.1      1.938      2.981
REMARK  Name = 
REMARK  3 active torsions:
REMARK  status: ('A' for Active; 'I' for Inactive)
REMARK    1  A    between atoms: C_1  and  C_2
REMARK    2  A    between atoms: C_7  and  C_8
REMARK    3  A    between atoms: C_15  and  C_17
REMARK                            x       y       z     vdW  Elec       q    Type
REMARK                         _______ _______ _______ _____ _____    ______ ____
ROOT
ATOM      1  C   UNL     1      -3.808  14.422  21.228  0.00  0.00    +0.000 C 
ATOM      2  C   UNL     1      -2.480  13.806  20.880  0.00  0.00    +0.000 A 
ATOM      3  C   UNL     1      -2.317  12.417  20.993  0.00  0.00    +0.000 A 
ATOM      4  C   UNL     1      -1.093  11.857  20.665  0.00  0.00    +0.000 A 
ATOM      5  C   UNL     1      -0.032  12.646  20.222  0.00  0.00    +0.000 A 
ATOM      6  C   UNL     1      -0.163  14.019  20.099  0.00  0.00    +0.000 A 
ATOM      7  C   UNL     1      -1.394  14.604  20.435  0.00  0.00    +0.000 A 
ATOM      8  C   UNL     1       1.153  11.802  19.839  0.00  0.00    +0.000 C 
ATOM      9  C   UNL     1       1.252  11.706  18.317  0.00  0.00    +0.000 C 
ATOM     10  C   UNL     1       2.100  10.520  17.915  0.00  0.00    +0.000 C 
ATOM     11  C   UNL     1       1.521   9.244  18.488  0.00  0.00    +0.000 C 
ATOM     12  N   UNL     1       1.388   9.251  19.945  0.00  0.00    +0.000 N 
ATOM     13  C   UNL     1       1.490   8.113  20.775  0.00  0.00    +0.000 C 
ATOM     14  O   UNL     1       1.369   8.193  21.998  0.00  0.00    +0.000 OA
ATOM     15  C   UNL     1       0.815  10.462  20.553  0.00  0.00    +0.000 C 
ATOM     16  C   UNL     1      -0.731  10.401  20.650  0.00  0.00    +0.000 C 
ENDROOT
BRANCH  13  17
ATOM     17  C   UNL     1       1.790   6.761  20.205  0.00  0.00    +0.000 A 
ATOM     18  C   UNL     1       2.647   6.682  19.093  0.00  0.00    +0.000 A 
ATOM     19  C   UNL     1       2.857   5.466  18.421  0.00  0.00    +0.000 A 
ATOM     20  C   UNL     1       2.113   4.348  18.823  0.00  0.00    +0.000 A 
ATOM     21  N   UNL     1       1.988   3.109  18.247  0.00  0.00    +0.000 NA
ATOM     22  C   UNL     1       1.083   2.483  18.964  0.00  0.00    +0.000 A 
ATOM     23  N   UNL     1       0.686   3.228  20.038  0.00  0.00    +0.000 N 
ATOM     24  C   UNL     1       1.324   4.439  19.962  0.00  0.00    +0.000 A 
ATOM     25  C   UNL     1       1.239   5.589  20.745  0.00  0.00    +0.000 A 
ATOM     26  H   UNL     1      -0.032   2.976  20.701  0.00  0.00    +0.000 HD
ENDBRANCH  13  17
BRANCH   7  27
ATOM     27  C   UNL     1      -1.531  16.029  20.295  0.00  0.00    +0.000 C 
ATOM     28  N   UNL     1      -1.637  17.176  20.176  0.00  0.00    +0.000 NA
ENDBRANCH   7  27
TORSDOF 2
ENDMDL
MODEL 9
REMARK VINA RESULT:      -7.0      2.493      3.012
REMARK  Name = 
REMARK  3 active torsions:
REMARK  status: ('A' for Active; 'I' for Inactive)
REMARK    1  A    between atoms: C_1  and  C_2
REMARK    2  A    between atoms: C_7  and  C_8
REMARK    3  A    between atoms: C_15  and  C_17
REMARK                            x       y       z     vdW  Elec       q    Type
REMARK                         _______ _______ _______ _____ _____    ______ ____
ROOT
ATOM      1  C   UNL     1       1.260  16.693  22.472  0.00  0.00    +0.000 C 
ATOM      2  C   UNL     1       0.695  15.324  22.207  0.00  0.00    +0.000 A 
ATOM      3  C   UNL     1       1.470  14.385  21.507  0.00  0.00    +0.000 A 
ATOM      4  C   UNL     1       0.945  13.124  21.273  0.00  0.00    +0.000 A 
ATOM      5  C   UNL     1      -0.328  12.776  21.723  0.00  0.00    +0.000 A 
ATOM      6  C   UNL     1      -1.115  13.680  22.417  0.00  0.00    +0.000 A 
ATOM      7  C   UNL     1      -0.602  14.964  22.655  0.00  0.00    +0.000 A 
ATOM      8  C   UNL     1      -0.633  11.332  21.433  0.00  0.00    +0.000 C 
ATOM      9  C   UNL     1      -0.507  10.506  22.712  0.00  0.00    +0.000 C 
ATOM     10  C   UNL     1      -0.334   9.041  22.383  0.00  0.00    +0.000 C 
ATOM     11  C   UNL     1       0.883   8.842  21.504  0.00  0.00    +0.000 C 
ATOM     12  N   UNL     1       0.847   9.601  20.255  0.00  0.00    +0.000 N 
ATOM     13  C   UNL     1       1.439   9.192  19.040  0.00  0.00    +0.000 C 
ATOM     14  O   UNL     1       1.367   9.882  18.022  0.00  0.00    +0.000 OA
ATOM     15  C   UNL     1       0.432  11.009  20.345  0.00  0.00    +0.000 C 
ATOM     16  C   UNL     1       1.625  11.962  20.612  0.00  0.00    +0.000 C 
ENDROOT
BRANCH  13  17
ATOM     17  C   UNL     1       2.147   7.878  18.924  0.00  0.00    +0.000 A 
ATOM     18  C   UNL     1       1.954   6.926  19.941  0.00  0.00    +0.000 A 
ATOM     19  C   UNL     1       2.697   5.733  19.971  0.00  0.00    +0.000 A 
ATOM     20  C   UNL     1       3.710   5.557  19.019  0.00  0.00    +0.000 A 
ATOM     21  N   UNL     1       4.683   4.594  18.923  0.00  0.00    +0.000 NA
ATOM     22  C   UNL     1       5.438   4.963  17.913  0.00  0.00    +0.000 A 
ATOM     23  N   UNL     1       4.939   6.072  17.289  0.00  0.00    +0.000 N 
ATOM     24  C   UNL     1       3.835   6.482  17.991  0.00  0.00    +0.000 A 
ATOM     25  C   UNL     1       2.992   7.582  17.844  0.00  0.00    +0.000 A 
ATOM     26  H   UNL     1       5.372   6.564  16.521  0.00  0.00    +0.000 HD
ENDBRANCH  13  17
BRANCH   7  27
ATOM     27  C   UNL     1      -1.417  15.898  23.387  0.00  0.00    +0.000 C 
ATOM     28  N   UNL     1      -2.074  16.644  23.981  0.00  0.00    +0.000 NA
ENDBRANCH   7  27
TORSDOF 2
ENDMDL
