MODEL 1
REMARK VINA RESULT:      -7.7      0.000      0.000
REMARK  Name = 
REMARK  11 active torsions:
REMARK  status: ('A' for Active; 'I' for Inactive)
REMARK    1  A    between atoms: C_1  and  N_2
REMARK    2  A    between atoms: C_3  and  C_5
REMARK    3  A    between atoms: C_9  and  O_10
REMARK    4  A    between atoms: O_10  and  C_11
REMARK    5  A    between atoms: N_15  and  C_16
REMARK    6  A    between atoms: C_16  and  C_17
REMARK    7  A    between atoms: C_17  and  N_18
REMARK    8  A    between atoms: N_18  and  C_19
REMARK    9  A    between atoms: N_18  and  C_26
REMARK   10  A    between atoms: C_19  and  C_20
REMARK   11  A    between atoms: C_26  and  C_27
REMARK                            x       y       z     vdW  Elec       q    Type
REMARK                         _______ _______ _______ _____ _____    ______ ____
ROOT
ATOM      1  C   UNL     1       1.061   9.346  19.195  0.00  0.00    +0.000 C 
ENDROOT
BRANCH   1  10
ATOM      2  C   UNL     1       0.344  11.767  19.462  0.00  0.00    +0.000 A 
ATOM      3  C   UNL     1      -0.727  12.518  19.010  0.00  0.00    +0.000 A 
ATOM      4  C   UNL     1      -1.580  11.699  18.243  0.00  0.00    +0.000 A 
ATOM      5  C   UNL     1      -2.796  11.929  17.564  0.00  0.00    +0.000 A 
ATOM      6  C   UNL     1      -3.412  10.887  16.868  0.00  0.00    +0.000 A 
ATOM      7  C   UNL     1      -2.848   9.616  16.878  0.00  0.00    +0.000 A 
ATOM      8  C   UNL     1      -1.643   9.361  17.553  0.00  0.00    +0.000 A 
ATOM      9  C   UNL     1      -1.015  10.422  18.227  0.00  0.00    +0.000 A 
ATOM     10  N   UNL     1       0.166  10.487  18.955  0.00  0.00    +0.000 N 
BRANCH   2  13
ATOM     11  C   UNL     1       3.207  13.903  20.516  0.00  0.00    +0.000 C 
ATOM     12  N   UNL     1       2.144  13.279  19.777  0.00  0.00    +0.000 N 
ATOM     13  C   UNL     1       1.455  12.202  20.293  0.00  0.00    +0.000 C 
ATOM     14  O   UNL     1       1.739  11.702  21.376  0.00  0.00    +0.000 OA
ATOM     15  H   UNL     1       1.735  13.777  18.998  0.00  0.00    +0.000 HD
ENDBRANCH   2  13
BRANCH   6  16
ATOM     16  O   UNL     1      -4.585  11.227  16.245  0.00  0.00    +0.000 OA
ATOM     17  C   UNL     1      -5.467  12.046  17.006  0.00  0.00    +0.000 C 
ENDBRANCH   6  16
ENDBRANCH   1  10
BRANCH   1  18
ATOM     18  C   UNL     1       1.782   8.905  17.906  0.00  0.00    +0.000 C 
BRANCH  18  19
ATOM     19  N   UNL     1       2.576   7.638  17.943  0.00  0.00    +0.000 NA
BRANCH  19  20
ATOM     20  C   UNL     1       4.005   7.894  17.622  0.00  0.00    +0.000 C 
BRANCH  20  21
ATOM     21  C   UNL     1       4.841   6.705  17.158  0.00  0.00    +0.000 A 
ATOM     22  C   UNL     1       5.458   5.805  18.040  0.00  0.00    +0.000 A 
ATOM     23  C   UNL     1       6.273   4.774  17.559  0.00  0.00    +0.000 A 
ATOM     24  C   UNL     1       6.440   4.589  16.187  0.00  0.00    +0.000 A 
ATOM     25  C   UNL     1       5.759   5.412  15.296  0.00  0.00    +0.000 A 
ATOM     26  C   UNL     1       4.964   6.457  15.778  0.00  0.00    +0.000 A 
ENDBRANCH  20  21
ENDBRANCH  19  20
BRANCH  19  27
ATOM     27  C   UNL     1       2.458   7.047  19.308  0.00  0.00    +0.000 C 
BRANCH  27  28
ATOM     28  C   UNL     1       1.987   5.601  19.315  0.00  0.00    +0.000 A 
ATOM     29  C   UNL     1       1.890   4.873  18.120  0.00  0.00    +0.000 A 
ATOM     30  C   UNL     1       1.407   3.562  18.126  0.00  0.00    +0.000 A 
ATOM     31  C   UNL     1       1.020   2.963  19.323  0.00  0.00    +0.000 A 
ATOM     32  C   UNL     1       1.126   3.670  20.519  0.00  0.00    +0.000 A 
ATOM     33  C   UNL     1       1.609   4.980  20.517  0.00  0.00    +0.000 A 
ENDBRANCH  27  28
ENDBRANCH  19  27
ENDBRANCH  18  19
ENDBRANCH   1  18
TORSDOF 9
ENDMDL
MODEL 2
REMARK VINA RESULT:      -7.6      3.112      8.704
REMARK  Name = 
REMARK  11 active torsions:
REMARK  status: ('A' for Active; 'I' for Inactive)
REMARK    1  A    between atoms: C_1  and  N_2
REMARK    2  A    between atoms: C_3  and  C_5
REMARK    3  A    between atoms: C_9  and  O_10
REMARK    4  A    between atoms: O_10  and  C_11
REMARK    5  A    between atoms: N_15  and  C_16
REMARK    6  A    between atoms: C_16  and  C_17
REMARK    7  A    between atoms: C_17  and  N_18
REMARK    8  A    between atoms: N_18  and  C_19
REMARK    9  A    between atoms: N_18  and  C_26
REMARK   10  A    between atoms: C_19  and  C_20
REMARK   11  A    between atoms: C_26  and  C_27
REMARK                            x       y       z     vdW  Elec       q    Type
REMARK                         _______ _______ _______ _____ _____    ______ ____
ROOT
ATOM      1  C   UNL     1       2.806   6.904  19.144  0.00  0.00    +0.000 C 
ENDROOT
BRANCH   1  10
ATOM      2  C   UNL     1       2.846   4.396  18.748  0.00  0.00    +0.000 A 
ATOM      3  C   UNL     1       3.495   3.565  17.850  0.00  0.00    +0.000 A 
ATOM      4  C   UNL     1       4.305   4.342  16.999  0.00  0.00    +0.000 A 
ATOM      5  C   UNL     1       5.174   4.027  15.931  0.00  0.00    +0.000 A 
ATOM      6  C   UNL     1       5.849   5.048  15.260  0.00  0.00    +0.000 A 
ATOM      7  C   UNL     1       5.696   6.368  15.669  0.00  0.00    +0.000 A 
ATOM      8  C   UNL     1       4.844   6.705  16.733  0.00  0.00    +0.000 A 
ATOM      9  C   UNL     1       4.146   5.675  17.384  0.00  0.00    +0.000 A 
ATOM     10  N   UNL     1       3.238   5.691  18.436  0.00  0.00    +0.000 N 
BRANCH   2  13
ATOM     11  C   UNL     1       1.677   2.624  21.809  0.00  0.00    +0.000 C 
ATOM     12  N   UNL     1       2.413   3.042  20.646  0.00  0.00    +0.000 N 
ATOM     13  C   UNL     1       1.925   4.023  19.809  0.00  0.00    +0.000 C 
ATOM     14  O   UNL     1       0.834   4.552  19.988  0.00  0.00    +0.000 OA
ATOM     15  H   UNL     1       3.393   2.801  20.578  0.00  0.00    +0.000 HD
ENDBRANCH   2  13
BRANCH   6  16
ATOM     16  O   UNL     1       6.663   4.626  14.240  0.00  0.00    +0.000 OA
ATOM     17  C   UNL     1       6.048   3.775  13.279  0.00  0.00    +0.000 C 
ENDBRANCH   6  16
ENDBRANCH   1  10
BRANCH   1  18
ATOM     18  C   UNL     1       1.934   7.807  18.250  0.00  0.00    +0.000 C 
BRANCH  18  19
ATOM     19  N   UNL     1       1.034   8.799  18.917  0.00  0.00    +0.000 NA
BRANCH  19  20
ATOM     20  C   UNL     1       1.641   9.309  20.174  0.00  0.00    +0.000 C 
BRANCH  20  21
ATOM     21  C   UNL     1       0.691   9.830  21.249  0.00  0.00    +0.000 A 
ATOM     22  C   UNL     1       0.102   9.008  22.222  0.00  0.00    +0.000 A 
ATOM     23  C   UNL     1      -0.819   9.529  23.138  0.00  0.00    +0.000 A 
ATOM     24  C   UNL     1      -1.124  10.889  23.135  0.00  0.00    +0.000 A 
ATOM     25  C   UNL     1      -0.476  11.736  22.241  0.00  0.00    +0.000 A 
ATOM     26  C   UNL     1       0.426  11.211  21.310  0.00  0.00    +0.000 A 
ENDBRANCH  20  21
ENDBRANCH  19  20
BRANCH  19  27
ATOM     27  C   UNL     1       0.793   9.928  17.972  0.00  0.00    +0.000 C 
BRANCH  27  28
ATOM     28  C   UNL     1      -0.664  10.353  17.879  0.00  0.00    +0.000 A 
ATOM     29  C   UNL     1      -1.097  11.557  18.452  0.00  0.00    +0.000 A 
ATOM     30  C   UNL     1      -2.446  11.918  18.409  0.00  0.00    +0.000 A 
ATOM     31  C   UNL     1      -3.375  11.085  17.790  0.00  0.00    +0.000 A 
ATOM     32  C   UNL     1      -2.956   9.892  17.203  0.00  0.00    +0.000 A 
ATOM     33  C   UNL     1      -1.608   9.530  17.243  0.00  0.00    +0.000 A 
ENDBRANCH  27  28
ENDBRANCH  19  27
ENDBRANCH  18  19
ENDBRANCH   1  18
TORSDOF 9
ENDMDL
MODEL 3
REMARK VINA RESULT:      -7.6      0.768      1.148
REMARK  Name = 
REMARK  11 active torsions:
REMARK  status: ('A' for Active; 'I' for Inactive)
REMARK    1  A    between atoms: C_1  and  N_2
REMARK    2  A    between atoms: C_3  and  C_5
REMARK    3  A    between atoms: C_9  and  O_10
REMARK    4  A    between atoms: O_10  and  C_11
REMARK    5  A    between atoms: N_15  and  C_16
REMARK    6  A    between atoms: C_16  and  C_17
REMARK    7  A    between atoms: C_17  and  N_18
REMARK    8  A    between atoms: N_18  and  C_19
REMARK    9  A    between atoms: N_18  and  C_26
REMARK   10  A    between atoms: C_19  and  C_20
REMARK   11  A    between atoms: C_26  and  C_27
REMARK                            x       y       z     vdW  Elec       q    Type
REMARK                         _______ _______ _______ _____ _____    ______ ____
ROOT
ATOM      1  C   UNL     1       1.169   9.620  18.998  0.00  0.00    +0.000 C 
ENDROOT
BRANCH   1  10
ATOM      2  C   UNL     1       0.569  12.068  18.695  0.00  0.00    +0.000 A 
ATOM      3  C   UNL     1      -0.573  12.747  18.303  0.00  0.00    +0.000 A 
ATOM      4  C   UNL     1      -1.598  11.818  18.035  0.00  0.00    +0.000 A 
ATOM      5  C   UNL     1      -2.942  11.946  17.622  0.00  0.00    +0.000 A 
ATOM      6  C   UNL     1      -3.723  10.805  17.430  0.00  0.00    +0.000 A 
ATOM      7  C   UNL     1      -3.188   9.547  17.685  0.00  0.00    +0.000 A 
ATOM      8  C   UNL     1      -1.857   9.394  18.105  0.00  0.00    +0.000 A 
ATOM      9  C   UNL     1      -1.070  10.546  18.267  0.00  0.00    +0.000 A 
ATOM     10  N   UNL     1       0.256  10.716  18.647  0.00  0.00    +0.000 N 
BRANCH   2  13
ATOM     11  C   UNL     1       3.084  13.681  20.918  0.00  0.00    +0.000 C 
ATOM     12  N   UNL     1       1.868  13.175  20.341  0.00  0.00    +0.000 N 
ATOM     13  C   UNL     1       1.856  12.627  19.076  0.00  0.00    +0.000 C 
ATOM     14  O   UNL     1       2.858  12.582  18.372  0.00  0.00    +0.000 OA
ATOM     15  H   UNL     1       1.081  12.992  20.948  0.00  0.00    +0.000 HD
ENDBRANCH   2  13
BRANCH   6  16
ATOM     16  O   UNL     1      -5.010  11.050  17.026  0.00  0.00    +0.000 OA
ATOM     17  C   UNL     1      -5.773  11.886  17.890  0.00  0.00    +0.000 C 
ENDBRANCH   6  16
ENDBRANCH   1  10
BRANCH   1  18
ATOM     18  C   UNL     1       1.902   9.068  17.760  0.00  0.00    +0.000 C 
BRANCH  18  19
ATOM     19  N   UNL     1       2.615   7.759  17.890  0.00  0.00    +0.000 NA
BRANCH  19  20
ATOM     20  C   UNL     1       4.071   7.917  17.633  0.00  0.00    +0.000 C 
BRANCH  20  21
ATOM     21  C   UNL     1       4.835   6.683  17.161  0.00  0.00    +0.000 A 
ATOM     22  C   UNL     1       5.377   5.730  18.036  0.00  0.00    +0.000 A 
ATOM     23  C   UNL     1       6.131   4.656  17.549  0.00  0.00    +0.000 A 
ATOM     24  C   UNL     1       6.306   4.483  16.177  0.00  0.00    +0.000 A 
ATOM     25  C   UNL     1       5.694   5.363  15.290  0.00  0.00    +0.000 A 
ATOM     26  C   UNL     1       4.962   6.449  15.778  0.00  0.00    +0.000 A 
ENDBRANCH  20  21
ENDBRANCH  19  20
BRANCH  19  27
ATOM     27  C   UNL     1       2.394   7.237  19.271  0.00  0.00    +0.000 C 
BRANCH  27  28
ATOM     28  C   UNL     1       1.929   5.790  19.316  0.00  0.00    +0.000 A 
ATOM     29  C   UNL     1       1.602   5.179  20.535  0.00  0.00    +0.000 A 
ATOM     30  C   UNL     1       1.226   3.835  20.576  0.00  0.00    +0.000 A 
ATOM     31  C   UNL     1       1.167   3.087  19.402  0.00  0.00    +0.000 A 
ATOM     32  C   UNL     1       1.475   3.686  18.182  0.00  0.00    +0.000 A 
ATOM     33  C   UNL     1       1.850   5.030  18.137  0.00  0.00    +0.000 A 
ENDBRANCH  27  28
ENDBRANCH  19  27
ENDBRANCH  18  19
ENDBRANCH   1  18
TORSDOF 9
ENDMDL
MODEL 4
REMARK VINA RESULT:      -7.5      0.778      1.464
REMARK  Name = 
REMARK  11 active torsions:
REMARK  status: ('A' for Active; 'I' for Inactive)
REMARK    1  A    between atoms: C_1  and  N_2
REMARK    2  A    between atoms: C_3  and  C_5
REMARK    3  A    between atoms: C_9  and  O_10
REMARK    4  A    between atoms: O_10  and  C_11
REMARK    5  A    between atoms: N_15  and  C_16
REMARK    6  A    between atoms: C_16  and  C_17
REMARK    7  A    between atoms: C_17  and  N_18
REMARK    8  A    between atoms: N_18  and  C_19
REMARK    9  A    between atoms: N_18  and  C_26
REMARK   10  A    between atoms: C_19  and  C_20
REMARK   11  A    between atoms: C_26  and  C_27
REMARK                            x       y       z     vdW  Elec       q    Type
REMARK                         _______ _______ _______ _____ _____    ______ ____
ROOT
ATOM      1  C   UNL     1       1.240   9.353  19.258  0.00  0.00    +0.000 C 
ENDROOT
BRANCH   1  10
ATOM      2  C   UNL     1       0.314  11.713  19.400  0.00  0.00    +0.000 A 
ATOM      3  C   UNL     1      -0.713  12.393  18.767  0.00  0.00    +0.000 A 
ATOM      4  C   UNL     1      -1.355  11.528  17.860  0.00  0.00    +0.000 A 
ATOM      5  C   UNL     1      -2.446  11.681  16.977  0.00  0.00    +0.000 A 
ATOM      6  C   UNL     1      -2.852  10.609  16.180  0.00  0.00    +0.000 A 
ATOM      7  C   UNL     1      -2.208   9.381  16.287  0.00  0.00    +0.000 A 
ATOM      8  C   UNL     1      -1.126   9.202  17.164  0.00  0.00    +0.000 A 
ATOM      9  C   UNL     1      -0.706  10.294  17.940  0.00  0.00    +0.000 A 
ATOM     10  N   UNL     1       0.321  10.431  18.866  0.00  0.00    +0.000 N 
BRANCH   2  13
ATOM     11  C   UNL     1       3.080  13.770  20.811  0.00  0.00    +0.000 C 
ATOM     12  N   UNL     1       2.164  13.100  19.928  0.00  0.00    +0.000 N 
ATOM     13  C   UNL     1       1.227  12.213  20.415  0.00  0.00    +0.000 C 
ATOM     14  O   UNL     1       1.156  11.923  21.604  0.00  0.00    +0.000 OA
ATOM     15  H   UNL     1       2.038  13.461  18.993  0.00  0.00    +0.000 HD
ENDBRANCH   2  13
BRANCH   6  16
ATOM     16  O   UNL     1      -3.919  10.873  15.360  0.00  0.00    +0.000 OA
ATOM     17  C   UNL     1      -3.950  10.140  14.140  0.00  0.00    +0.000 C 
ENDBRANCH   6  16
ENDBRANCH   1  10
BRANCH   1  18
ATOM     18  C   UNL     1       2.064   8.842  18.060  0.00  0.00    +0.000 C 
BRANCH  18  19
ATOM     19  N   UNL     1       2.651   7.469  18.146  0.00  0.00    +0.000 NA
BRANCH  19  20
ATOM     20  C   UNL     1       4.116   7.499  17.890  0.00  0.00    +0.000 C 
BRANCH  20  21
ATOM     21  C   UNL     1       4.706   6.352  17.073  0.00  0.00    +0.000 A 
ATOM     22  C   UNL     1       5.016   6.457  15.709  0.00  0.00    +0.000 A 
ATOM     23  C   UNL     1       5.488   5.351  14.994  0.00  0.00    +0.000 A 
ATOM     24  C   UNL     1       5.713   4.137  15.642  0.00  0.00    +0.000 A 
ATOM     25  C   UNL     1       5.503   4.041  17.013  0.00  0.00    +0.000 A 
ATOM     26  C   UNL     1       5.009   5.141  17.723  0.00  0.00    +0.000 A 
ENDBRANCH  20  21
ENDBRANCH  19  20
BRANCH  19  27
ATOM     27  C   UNL     1       2.382   6.925  19.509  0.00  0.00    +0.000 C 
BRANCH  27  28
ATOM     28  C   UNL     1       1.951   5.467  19.517  0.00  0.00    +0.000 A 
ATOM     29  C   UNL     1       1.899   4.741  20.716  0.00  0.00    +0.000 A 
ATOM     30  C   UNL     1       1.553   3.388  20.711  0.00  0.00    +0.000 A 
ATOM     31  C   UNL     1       1.250   2.746  19.512  0.00  0.00    +0.000 A 
ATOM     32  C   UNL     1       1.283   3.460  18.315  0.00  0.00    +0.000 A 
ATOM     33  C   UNL     1       1.627   4.813  18.317  0.00  0.00    +0.000 A 
ENDBRANCH  27  28
ENDBRANCH  19  27
ENDBRANCH  18  19
ENDBRANCH   1  18
TORSDOF 9
ENDMDL
MODEL 5
REMARK VINA RESULT:      -7.4      1.014      1.207
REMARK  Name = 
REMARK  11 active torsions:
REMARK  status: ('A' for Active; 'I' for Inactive)
REMARK    1  A    between atoms: C_1  and  N_2
REMARK    2  A    between atoms: C_3  and  C_5
REMARK    3  A    between atoms: C_9  and  O_10
REMARK    4  A    between atoms: O_10  and  C_11
REMARK    5  A    between atoms: N_15  and  C_16
REMARK    6  A    between atoms: C_16  and  C_17
REMARK    7  A    between atoms: C_17  and  N_18
REMARK    8  A    between atoms: N_18  and  C_19
REMARK    9  A    between atoms: N_18  and  C_26
REMARK   10  A    between atoms: C_19  and  C_20
REMARK   11  A    between atoms: C_26  and  C_27
REMARK                            x       y       z     vdW  Elec       q    Type
REMARK                         _______ _______ _______ _____ _____    ______ ____
ROOT
ATOM      1  C   UNL     1       1.235   9.870  18.322  0.00  0.00    +0.000 C 
ENDROOT
BRANCH   1  10
ATOM      2  C   UNL     1       0.142  11.759  19.621  0.00  0.00    +0.000 A 
ATOM      3  C   UNL     1      -1.137  12.286  19.678  0.00  0.00    +0.000 A 
ATOM      4  C   UNL     1      -1.977  11.565  18.805  0.00  0.00    +0.000 A 
ATOM      5  C   UNL     1      -3.347  11.657  18.478  0.00  0.00    +0.000 A 
ATOM      6  C   UNL     1      -3.900  10.779  17.545  0.00  0.00    +0.000 A 
ATOM      7  C   UNL     1      -3.110   9.789  16.969  0.00  0.00    +0.000 A 
ATOM      8  C   UNL     1      -1.748   9.673  17.284  0.00  0.00    +0.000 A 
ATOM      9  C   UNL     1      -1.192  10.579  18.203  0.00  0.00    +0.000 A 
ATOM     10  N   UNL     1       0.099  10.726  18.694  0.00  0.00    +0.000 N 
BRANCH   2  13
ATOM     11  C   UNL     1       3.099  13.871  20.439  0.00  0.00    +0.000 C 
ATOM     12  N   UNL     1       1.974  13.255  19.788  0.00  0.00    +0.000 N 
ATOM     13  C   UNL     1       1.319  12.185  20.360  0.00  0.00    +0.000 C 
ATOM     14  O   UNL     1       1.683  11.685  21.418  0.00  0.00    +0.000 OA
ATOM     15  H   UNL     1       1.510  13.756  19.043  0.00  0.00    +0.000 HD
ENDBRANCH   2  13
BRANCH   6  16
ATOM     16  O   UNL     1      -5.238  10.963  17.304  0.00  0.00    +0.000 OA
ATOM     17  C   UNL     1      -5.640  12.311  17.086  0.00  0.00    +0.000 C 
ENDBRANCH   6  16
ENDBRANCH   1  10
BRANCH   1  18
ATOM     18  C   UNL     1       1.435   8.718  19.326  0.00  0.00    +0.000 C 
BRANCH  18  19
ATOM     19  N   UNL     1       2.104   7.471  18.841  0.00  0.00    +0.000 NA
BRANCH  19  20
ATOM     20  C   UNL     1       3.103   7.779  17.783  0.00  0.00    +0.000 C 
BRANCH  20  21
ATOM     21  C   UNL     1       4.101   6.682  17.425  0.00  0.00    +0.000 A 
ATOM     22  C   UNL     1       3.720   5.393  17.025  0.00  0.00    +0.000 A 
ATOM     23  C   UNL     1       4.680   4.405  16.778  0.00  0.00    +0.000 A 
ATOM     24  C   UNL     1       6.039   4.704  16.870  0.00  0.00    +0.000 A 
ATOM     25  C   UNL     1       6.437   6.003  17.170  0.00  0.00    +0.000 A 
ATOM     26  C   UNL     1       5.477   6.983  17.440  0.00  0.00    +0.000 A 
ENDBRANCH  20  21
ENDBRANCH  19  20
BRANCH  19  27
ATOM     27  C   UNL     1       2.774   6.814  20.000  0.00  0.00    +0.000 C 
BRANCH  27  28
ATOM     28  C   UNL     1       2.395   5.353  20.184  0.00  0.00    +0.000 A 
ATOM     29  C   UNL     1       3.383   4.367  20.321  0.00  0.00    +0.000 A 
ATOM     30  C   UNL     1       3.031   3.021  20.437  0.00  0.00    +0.000 A 
ATOM     31  C   UNL     1       1.690   2.644  20.422  0.00  0.00    +0.000 A 
ATOM     32  C   UNL     1       0.697   3.614  20.301  0.00  0.00    +0.000 A 
ATOM     33  C   UNL     1       1.046   4.961  20.187  0.00  0.00    +0.000 A 
ENDBRANCH  27  28
ENDBRANCH  19  27
ENDBRANCH  18  19
ENDBRANCH   1  18
TORSDOF 9
ENDMDL
MODEL 6
REMARK VINA RESULT:      -7.4      0.985      3.240
REMARK  Name = 
REMARK  11 active torsions:
REMARK  status: ('A' for Active; 'I' for Inactive)
REMARK    1  A    between atoms: C_1  and  N_2
REMARK    2  A    between atoms: C_3  and  C_5
REMARK    3  A    between atoms: C_9  and  O_10
REMARK    4  A    between atoms: O_10  and  C_11
REMARK    5  A    between atoms: N_15  and  C_16
REMARK    6  A    between atoms: C_16  and  C_17
REMARK    7  A    between atoms: C_17  and  N_18
REMARK    8  A    between atoms: N_18  and  C_19
REMARK    9  A    between atoms: N_18  and  C_26
REMARK   10  A    between atoms: C_19  and  C_20
REMARK   11  A    between atoms: C_26  and  C_27
REMARK                            x       y       z     vdW  Elec       q    Type
REMARK                         _______ _______ _______ _____ _____    ______ ____
ROOT
ATOM      1  C   UNL     1       1.405   9.704  18.683  0.00  0.00    +0.000 C 
ENDROOT
BRANCH   1  10
ATOM      2  C   UNL     1       0.332  11.875  19.448  0.00  0.00    +0.000 A 
ATOM      3  C   UNL     1      -0.885  12.492  19.214  0.00  0.00    +0.000 A 
ATOM      4  C   UNL     1      -1.662  11.682  18.361  0.00  0.00    +0.000 A 
ATOM      5  C   UNL     1      -2.957  11.809  17.815  0.00  0.00    +0.000 A 
ATOM      6  C   UNL     1      -3.458  10.813  16.974  0.00  0.00    +0.000 A 
ATOM      7  C   UNL     1      -2.696   9.680  16.709  0.00  0.00    +0.000 A 
ATOM      8  C   UNL     1      -1.409   9.528  17.247  0.00  0.00    +0.000 A 
ATOM      9  C   UNL     1      -0.901  10.548  18.068  0.00  0.00    +0.000 A 
ATOM     10  N   UNL     1       0.317  10.692  18.720  0.00  0.00    +0.000 N 
BRANCH   2  13
ATOM     11  C   UNL     1       3.227  14.011  20.412  0.00  0.00    +0.000 C 
ATOM     12  N   UNL     1       2.167  13.356  19.693  0.00  0.00    +0.000 N 
ATOM     13  C   UNL     1       1.431  12.347  20.275  0.00  0.00    +0.000 C 
ATOM     14  O   UNL     1       1.667  11.932  21.405  0.00  0.00    +0.000 OA
ATOM     15  H   UNL     1       1.797  13.798  18.863  0.00  0.00    +0.000 HD
ENDBRANCH   2  13
BRANCH   6  16
ATOM     16  O   UNL     1      -4.725  11.043  16.501  0.00  0.00    +0.000 OA
ATOM     17  C   UNL     1      -5.478  12.015  17.219  0.00  0.00    +0.000 C 
ENDBRANCH   6  16
ENDBRANCH   1  10
BRANCH   1  18
ATOM     18  C   UNL     1       1.368   8.768  19.907  0.00  0.00    +0.000 C 
BRANCH  18  19
ATOM     19  N   UNL     1       2.072   7.452  19.807  0.00  0.00    +0.000 NA
BRANCH  19  20
ATOM     20  C   UNL     1       1.547   6.489  20.810  0.00  0.00    +0.000 C 
BRANCH  20  21
ATOM     21  C   UNL     1       1.770   5.004  20.537  0.00  0.00    +0.000 A 
ATOM     22  C   UNL     1       2.976   4.342  20.810  0.00  0.00    +0.000 A 
ATOM     23  C   UNL     1       3.147   2.995  20.472  0.00  0.00    +0.000 A 
ATOM     24  C   UNL     1       2.097   2.271  19.908  0.00  0.00    +0.000 A 
ATOM     25  C   UNL     1       0.863   2.885  19.720  0.00  0.00    +0.000 A 
ATOM     26  C   UNL     1       0.700   4.237  20.036  0.00  0.00    +0.000 A 
ENDBRANCH  20  21
ENDBRANCH  19  20
BRANCH  19  27
ATOM     27  C   UNL     1       1.872   6.914  18.430  0.00  0.00    +0.000 C 
BRANCH  27  28
ATOM     28  C   UNL     1       3.153   6.437  17.763  0.00  0.00    +0.000 A 
ATOM     29  C   UNL     1       3.327   5.086  17.428  0.00  0.00    +0.000 A 
ATOM     30  C   UNL     1       4.525   4.644  16.864  0.00  0.00    +0.000 A 
ATOM     31  C   UNL     1       5.561   5.544  16.623  0.00  0.00    +0.000 A 
ATOM     32  C   UNL     1       5.396   6.892  16.937  0.00  0.00    +0.000 A 
ATOM     33  C   UNL     1       4.198   7.337  17.500  0.00  0.00    +0.000 A 
ENDBRANCH  27  28
ENDBRANCH  19  27
ENDBRANCH  18  19
ENDBRANCH   1  18
TORSDOF 9
ENDMDL
MODEL 7
REMARK VINA RESULT:      -7.4      2.564      8.374
REMARK  Name = 
REMARK  11 active torsions:
REMARK  status: ('A' for Active; 'I' for Inactive)
REMARK    1  A    between atoms: C_1  and  N_2
REMARK    2  A    between atoms: C_3  and  C_5
REMARK    3  A    between atoms: C_9  and  O_10
REMARK    4  A    between atoms: O_10  and  C_11
REMARK    5  A    between atoms: N_15  and  C_16
REMARK    6  A    between atoms: C_16  and  C_17
REMARK    7  A    between atoms: C_17  and  N_18
REMARK    8  A    between atoms: N_18  and  C_19
REMARK    9  A    between atoms: N_18  and  C_26
REMARK   10  A    between atoms: C_19  and  C_20
REMARK   11  A    between atoms: C_26  and  C_27
REMARK                            x       y       z     vdW  Elec       q    Type
REMARK                         _______ _______ _______ _____ _____    ______ ____
ROOT
ATOM      1  C   UNL     1       2.281   9.050  18.806  0.00  0.00    +0.000 C 
ENDROOT
BRANCH   1  10
ATOM      2  C   UNL     1       1.653   7.595  20.790  0.00  0.00    +0.000 A 
ATOM      3  C   UNL     1       1.692   6.235  21.048  0.00  0.00    +0.000 A 
ATOM      4  C   UNL     1       2.213   5.563  19.925  0.00  0.00    +0.000 A 
ATOM      5  C   UNL     1       2.480   4.206  19.642  0.00  0.00    +0.000 A 
ATOM      6  C   UNL     1       3.005   3.844  18.400  0.00  0.00    +0.000 A 
ATOM      7  C   UNL     1       3.302   4.824  17.459  0.00  0.00    +0.000 A 
ATOM      8  C   UNL     1       3.053   6.181  17.720  0.00  0.00    +0.000 A 
ATOM      9  C   UNL     1       2.497   6.533  18.962  0.00  0.00    +0.000 A 
ATOM     10  N   UNL     1       2.130   7.762  19.497  0.00  0.00    +0.000 N 
BRANCH   2  13
ATOM     11  C   UNL     1      -0.785   9.642  22.724  0.00  0.00    +0.000 C 
ATOM     12  N   UNL     1      -0.170   8.716  21.812  0.00  0.00    +0.000 N 
ATOM     13  C   UNL     1       1.201   8.660  21.670  0.00  0.00    +0.000 C 
ATOM     14  O   UNL     1       1.952   9.417  22.274  0.00  0.00    +0.000 OA
ATOM     15  H   UNL     1      -0.717   7.940  21.464  0.00  0.00    +0.000 HD
ENDBRANCH   2  13
BRANCH   6  16
ATOM     16  O   UNL     1       3.221   2.499  18.237  0.00  0.00    +0.000 OA
ATOM     17  C   UNL     1       3.866   1.847  19.326  0.00  0.00    +0.000 C 
ENDBRANCH   6  16
ENDBRANCH   1  10
BRANCH   1  18
ATOM     18  C   UNL     1       1.024   9.412  17.991  0.00  0.00    +0.000 C 
BRANCH  18  19
ATOM     19  N   UNL     1       0.287  10.662  18.354  0.00  0.00    +0.000 NA
BRANCH  19  20
ATOM     20  C   UNL     1      -1.063  10.348  18.893  0.00  0.00    +0.000 C 
BRANCH  20  21
ATOM     21  C   UNL     1      -2.264  10.698  18.019  0.00  0.00    +0.000 A 
ATOM     22  C   UNL     1      -3.309  11.533  18.443  0.00  0.00    +0.000 A 
ATOM     23  C   UNL     1      -4.421  11.761  17.625  0.00  0.00    +0.000 A 
ATOM     24  C   UNL     1      -4.482  11.206  16.347  0.00  0.00    +0.000 A 
ATOM     25  C   UNL     1      -3.411  10.456  15.873  0.00  0.00    +0.000 A 
ATOM     26  C   UNL     1      -2.311  10.208  16.700  0.00  0.00    +0.000 A 
ENDBRANCH  20  21
ENDBRANCH  19  20
BRANCH  19  27
ATOM     27  C   UNL     1       1.085  11.401  19.374  0.00  0.00    +0.000 C 
BRANCH  27  28
ATOM     28  C   UNL     1       1.400  12.838  18.988  0.00  0.00    +0.000 A 
ATOM     29  C   UNL     1       2.646  13.176  18.439  0.00  0.00    +0.000 A 
ATOM     30  C   UNL     1       2.949  14.505  18.135  0.00  0.00    +0.000 A 
ATOM     31  C   UNL     1       2.012  15.510  18.370  0.00  0.00    +0.000 A 
ATOM     32  C   UNL     1       0.765  15.185  18.901  0.00  0.00    +0.000 A 
ATOM     33  C   UNL     1       0.459  13.857  19.205  0.00  0.00    +0.000 A 
ENDBRANCH  27  28
ENDBRANCH  19  27
ENDBRANCH  18  19
ENDBRANCH   1  18
TORSDOF 9
ENDMDL
MODEL 8
REMARK VINA RESULT:      -7.3      0.967      1.307
REMARK  Name = 
REMARK  11 active torsions:
REMARK  status: ('A' for Active; 'I' for Inactive)
REMARK    1  A    between atoms: C_1  and  N_2
REMARK    2  A    between atoms: C_3  and  C_5
REMARK    3  A    between atoms: C_9  and  O_10
REMARK    4  A    between atoms: O_10  and  C_11
REMARK    5  A    between atoms: N_15  and  C_16
REMARK    6  A    between atoms: C_16  and  C_17
REMARK    7  A    between atoms: C_17  and  N_18
REMARK    8  A    between atoms: N_18  and  C_19
REMARK    9  A    between atoms: N_18  and  C_26
REMARK   10  A    between atoms: C_19  and  C_20
REMARK   11  A    between atoms: C_26  and  C_27
REMARK                            x       y       z     vdW  Elec       q    Type
REMARK                         _______ _______ _______ _____ _____    ______ ____
ROOT
ATOM      1  C   UNL     1       1.402   9.865  17.794  0.00  0.00    +0.000 C 
ENDROOT
BRANCH   1  10
ATOM      2  C   UNL     1       0.605  12.064  18.781  0.00  0.00    +0.000 A 
ATOM      3  C   UNL     1      -0.636  12.644  18.986  0.00  0.00    +0.000 A 
ATOM      4  C   UNL     1      -1.641  11.766  18.535  0.00  0.00    +0.000 A 
ATOM      5  C   UNL     1      -3.050  11.833  18.509  0.00  0.00    +0.000 A 
ATOM      6  C   UNL     1      -3.788  10.775  17.976  0.00  0.00    +0.000 A 
ATOM      7  C   UNL     1      -3.135   9.639  17.509  0.00  0.00    +0.000 A 
ATOM      8  C   UNL     1      -1.735   9.545  17.532  0.00  0.00    +0.000 A 
ATOM      9  C   UNL     1      -0.999  10.627  18.043  0.00  0.00    +0.000 A 
ATOM     10  N   UNL     1       0.368  10.835  18.181  0.00  0.00    +0.000 N 
BRANCH   2  13
ATOM     11  C   UNL     1       3.231  13.647  20.896  0.00  0.00    +0.000 C 
ATOM     12  N   UNL     1       1.986  13.155  20.371  0.00  0.00    +0.000 N 
ATOM     13  C   UNL     1       1.913  12.610  19.107  0.00  0.00    +0.000 C 
ATOM     14  O   UNL     1       2.883  12.558  18.360  0.00  0.00    +0.000 OA
ATOM     15  H   UNL     1       1.224  12.977  21.012  0.00  0.00    +0.000 HD
ENDBRANCH   2  13
BRANCH   6  16
ATOM     16  O   UNL     1      -5.148  10.951  18.001  0.00  0.00    +0.000 OA
ATOM     17  C   UNL     1      -5.633  11.822  19.018  0.00  0.00    +0.000 C 
ENDBRANCH   6  16
ENDBRANCH   1  10
BRANCH   1  18
ATOM     18  C   UNL     1       1.639   8.814  18.896  0.00  0.00    +0.000 C 
BRANCH  18  19
ATOM     19  N   UNL     1       2.401   7.578  18.536  0.00  0.00    +0.000 NA
BRANCH  19  20
ATOM     20  C   UNL     1       3.767   7.914  18.057  0.00  0.00    +0.000 C 
BRANCH  20  21
ATOM     21  C   UNL     1       4.583   6.790  17.424  0.00  0.00    +0.000 A 
ATOM     22  C   UNL     1       4.720   6.621  16.039  0.00  0.00    +0.000 A 
ATOM     23  C   UNL     1       5.420   5.529  15.514  0.00  0.00    +0.000 A 
ATOM     24  C   UNL     1       6.045   4.618  16.366  0.00  0.00    +0.000 A 
ATOM     25  C   UNL     1       6.002   4.823  17.741  0.00  0.00    +0.000 A 
ATOM     26  C   UNL     1       5.281   5.902  18.264  0.00  0.00    +0.000 A 
ENDBRANCH  20  21
ENDBRANCH  19  20
BRANCH  19  27
ATOM     27  C   UNL     1       2.484   6.707  19.745  0.00  0.00    +0.000 C 
BRANCH  27  28
ATOM     28  C   UNL     1       1.975   5.292  19.522  0.00  0.00    +0.000 A 
ATOM     29  C   UNL     1       1.858   4.768  18.226  0.00  0.00    +0.000 A 
ATOM     30  C   UNL     1       1.340   3.487  18.024  0.00  0.00    +0.000 A 
ATOM     31  C   UNL     1       0.938   2.713  19.111  0.00  0.00    +0.000 A 
ATOM     32  C   UNL     1       1.063   3.216  20.404  0.00  0.00    +0.000 A 
ATOM     33  C   UNL     1       1.582   4.496  20.610  0.00  0.00    +0.000 A 
ENDBRANCH  27  28
ENDBRANCH  19  27
ENDBRANCH  18  19
ENDBRANCH   1  18
TORSDOF 9
ENDMDL
MODEL 9
REMARK VINA RESULT:      -7.3      2.644      8.383
REMARK  Name = 
REMARK  11 active torsions:
REMARK  status: ('A' for Active; 'I' for Inactive)
REMARK    1  A    between atoms: C_1  and  N_2
REMARK    2  A    between atoms: C_3  and  C_5
REMARK    3  A    between atoms: C_9  and  O_10
REMARK    4  A    between atoms: O_10  and  C_11
REMARK    5  A    between atoms: N_15  and  C_16
REMARK    6  A    between atoms: C_16  and  C_17
REMARK    7  A    between atoms: C_17  and  N_18
REMARK    8  A    between atoms: N_18  and  C_19
REMARK    9  A    between atoms: N_18  and  C_26
REMARK   10  A    between atoms: C_19  and  C_20
REMARK   11  A    between atoms: C_26  and  C_27
REMARK                            x       y       z     vdW  Elec       q    Type
REMARK                         _______ _______ _______ _____ _____    ______ ____
ROOT
ATOM      1  C   UNL     1       2.351   8.918  18.865  0.00  0.00    +0.000 C 
ENDROOT
BRANCH   1  10
ATOM      2  C   UNL     1       1.495   7.098  20.415  0.00  0.00    +0.000 A 
ATOM      3  C   UNL     1       1.641   5.722  20.472  0.00  0.00    +0.000 A 
ATOM      4  C   UNL     1       2.468   5.298  19.413  0.00  0.00    +0.000 A 
ATOM      5  C   UNL     1       2.951   4.036  19.002  0.00  0.00    +0.000 A 
ATOM      6  C   UNL     1       3.768   3.937  17.875  0.00  0.00    +0.000 A 
ATOM      7  C   UNL     1       4.138   5.085  17.182  0.00  0.00    +0.000 A 
ATOM      8  C   UNL     1       3.677   6.351  17.576  0.00  0.00    +0.000 A 
ATOM      9  C   UNL     1       2.831   6.438  18.694  0.00  0.00    +0.000 A 
ATOM     10  N   UNL     1       2.213   7.522  19.305  0.00  0.00    +0.000 N 
BRANCH   2  13
ATOM     11  C   UNL     1       0.947   9.764  22.958  0.00  0.00    +0.000 C 
ATOM     12  N   UNL     1       1.530   8.779  22.088  0.00  0.00    +0.000 N 
ATOM     13  C   UNL     1       0.740   7.956  21.314  0.00  0.00    +0.000 C 
ATOM     14  O   UNL     1      -0.484   7.992  21.360  0.00  0.00    +0.000 OA
ATOM     15  H   UNL     1       2.511   8.856  21.853  0.00  0.00    +0.000 HD
ENDBRANCH   2  13
BRANCH   6  16
ATOM     16  O   UNL     1       4.175   2.663  17.570  0.00  0.00    +0.000 OA
ATOM     17  C   UNL     1       3.422   1.619  18.178  0.00  0.00    +0.000 C 
ENDBRANCH   6  16
ENDBRANCH   1  10
BRANCH   1  18
ATOM     18  C   UNL     1       1.179   9.351  17.964  0.00  0.00    +0.000 C 
BRANCH  18  19
ATOM     19  N   UNL     1       0.430  10.593  18.333  0.00  0.00    +0.000 NA
BRANCH  19  20
ATOM     20  C   UNL     1      -0.941  10.268  18.805  0.00  0.00    +0.000 C 
BRANCH  20  21
ATOM     21  C   UNL     1      -2.089  10.486  17.823  0.00  0.00    +0.000 A 
ATOM     22  C   UNL     1      -2.184   9.826  16.589  0.00  0.00    +0.000 A 
ATOM     23  C   UNL     1      -3.221  10.120  15.696  0.00  0.00    +0.000 A 
ATOM     24  C   UNL     1      -4.213  11.035  16.045  0.00  0.00    +0.000 A 
ATOM     25  C   UNL     1      -4.189  11.626  17.304  0.00  0.00    +0.000 A 
ATOM     26  C   UNL     1      -3.139  11.351  18.186  0.00  0.00    +0.000 A 
ENDBRANCH  20  21
ENDBRANCH  19  20
BRANCH  19  27
ATOM     27  C   UNL     1       1.187  11.298  19.408  0.00  0.00    +0.000 C 
BRANCH  27  28
ATOM     28  C   UNL     1       1.510  12.748  19.085  0.00  0.00    +0.000 A 
ATOM     29  C   UNL     1       2.657  13.081  18.350  0.00  0.00    +0.000 A 
ATOM     30  C   UNL     1       2.977  14.418  18.102  0.00  0.00    +0.000 A 
ATOM     31  C   UNL     1       2.154  15.436  18.579  0.00  0.00    +0.000 A 
ATOM     32  C   UNL     1       1.003  15.118  19.298  0.00  0.00    +0.000 A 
ATOM     33  C   UNL     1       0.680  13.783  19.547  0.00  0.00    +0.000 A 
ENDBRANCH  27  28
ENDBRANCH  19  27
ENDBRANCH  18  19
ENDBRANCH   1  18
TORSDOF 9
ENDMDL
