MODEL 1
REMARK VINA RESULT:      -8.3      0.000      0.000
REMARK  Name = 
REMARK  8 active torsions:
REMARK  status: ('A' for Active; 'I' for Inactive)
REMARK    1  A    between atoms: C_1  and  C_2
REMARK    2  A    between atoms: C_2  and  C_3
REMARK    3  A    between atoms: C_2  and  C_4
REMARK    4  A    between atoms: C_2  and  O_5
REMARK    5  A    between atoms: O_5  and  C_6
REMARK    6  A    between atoms: C_13  and  C_15
REMARK    7  A    between atoms: C_17  and  C_18
REMARK    8  A    between atoms: C_18  and  C_19
REMARK                            x       y       z     vdW  Elec       q    Type
REMARK                         _______ _______ _______ _____ _____    ______ ____
ROOT
ATOM      1  C   UNL     1      -0.390  10.590  19.924  0.00  0.00    +0.000 A 
ATOM      2  C   UNL     1      -0.043  11.804  20.525  0.00  0.00    +0.000 A 
ATOM      3  C   UNL     1      -0.547  13.025  20.056  0.00  0.00    +0.000 A 
ATOM      4  C   UNL     1      -1.512  13.003  19.042  0.00  0.00    +0.000 A 
ATOM      5  C   UNL     1      -1.944  11.788  18.505  0.00  0.00    +0.000 A 
ATOM      6  C   UNL     1      -1.375  10.590  18.936  0.00  0.00    +0.000 A 
ATOM      7  F   UNL     1      -1.804   9.452  18.370  0.00  0.00    +0.000 F 
ENDROOT
BRANCH   1  15
ATOM      8  C   UNL     1       1.851   5.348  19.564  0.00  0.00    +0.000 C 
ATOM      9  O   UNL     1       1.273   5.005  20.588  0.00  0.00    +0.000 OA
ATOM     10  N   UNL     1       2.314   6.628  19.366  0.00  0.00    +0.000 N 
ATOM     11  C   UNL     1       3.081   7.072  18.214  0.00  0.00    +0.000 C 
ATOM     12  C   UNL     1       2.347   8.205  17.521  0.00  0.00    +0.000 C 
ATOM     13  C   UNL     1       1.985   9.295  18.518  0.00  0.00    +0.000 C 
ATOM     14  N   UNL     1       1.314   8.766  19.709  0.00  0.00    +0.000 N 
ATOM     15  C   UNL     1       0.213   9.316  20.380  0.00  0.00    +0.000 C 
ATOM     16  O   UNL     1      -0.281   8.796  21.381  0.00  0.00    +0.000 OA
ATOM     17  C   UNL     1       1.975   7.635  20.342  0.00  0.00    +0.000 C 
BRANCH   8  18
ATOM     18  O   UNL     1       2.080   4.520  18.507  0.00  0.00    +0.000 OA
BRANCH  18  20
ATOM     19  C   UNL     1       2.290   2.116  19.003  0.00  0.00    +0.000 C 
ATOM     20  C   UNL     1       3.024   3.426  18.676  0.00  0.00    +0.000 C 
ATOM     21  C   UNL     1       4.098   3.785  19.711  0.00  0.00    +0.000 C 
ATOM     22  C   UNL     1       3.721   3.239  17.318  0.00  0.00    +0.000 C 
ENDBRANCH  18  20
ENDBRANCH   8  18
ENDBRANCH   1  15
BRANCH   3  23
ATOM     23  C   UNL     1      -0.030  14.307  20.664  0.00  0.00    +0.000 C 
BRANCH  23  24
ATOM     24  C   UNL     1       0.972  15.055  19.785  0.00  0.00    +0.000 A 
ATOM     25  N   UNL     1       2.216  14.671  19.838  0.00  0.00    +0.000 NA
ATOM     26  N   UNL     1       3.122  15.399  19.115  0.00  0.00    +0.000 N 
ATOM     27  C   UNL     1       2.855  16.519  18.379  0.00  0.00    +0.000 A 
ATOM     28  O   UNL     1       3.734  17.175  17.823  0.00  0.00    +0.000 OA
ATOM     29  C   UNL     1       1.427  16.910  18.294  0.00  0.00    +0.000 A 
ATOM     30  C   UNL     1       0.489  16.211  18.955  0.00  0.00    +0.000 A 
ATOM     31  N   UNL     1      -0.850  16.557  18.875  0.00  0.00    +0.000 N 
ATOM     32  C   UNL     1      -1.275  17.830  18.321  0.00  0.00    +0.000 C 
ATOM     33  C   UNL     1      -0.433  18.126  17.085  0.00  0.00    +0.000 C 
ATOM     34  C   UNL     1       1.066  18.087  17.422  0.00  0.00    +0.000 C 
ATOM     35  H   UNL     1       4.098  15.130  19.197  0.00  0.00    +0.000 HD
ATOM     36  H   UNL     1      -1.500  16.103  19.504  0.00  0.00    +0.000 HD
ENDBRANCH  23  24
ENDBRANCH   3  23
TORSDOF 5
ENDMDL
MODEL 2
REMARK VINA RESULT:      -7.9      3.374      9.957
REMARK  Name = 
REMARK  8 active torsions:
REMARK  status: ('A' for Active; 'I' for Inactive)
REMARK    1  A    between atoms: C_1  and  C_2
REMARK    2  A    between atoms: C_2  and  C_3
REMARK    3  A    between atoms: C_2  and  C_4
REMARK    4  A    between atoms: C_2  and  O_5
REMARK    5  A    between atoms: O_5  and  C_6
REMARK    6  A    between atoms: C_13  and  C_15
REMARK    7  A    between atoms: C_17  and  C_18
REMARK    8  A    between atoms: C_18  and  C_19
REMARK                            x       y       z     vdW  Elec       q    Type
REMARK                         _______ _______ _______ _____ _____    ______ ____
ROOT
ATOM      1  C   UNL     1       0.062   9.832  19.851  0.00  0.00    +0.000 A 
ATOM      2  C   UNL     1       0.890   9.400  18.810  0.00  0.00    +0.000 A 
ATOM      3  C   UNL     1       1.885   8.434  19.015  0.00  0.00    +0.000 A 
ATOM      4  C   UNL     1       1.959   7.808  20.266  0.00  0.00    +0.000 A 
ATOM      5  C   UNL     1       1.067   8.157  21.283  0.00  0.00    +0.000 A 
ATOM      6  C   UNL     1       0.133   9.173  21.078  0.00  0.00    +0.000 A 
ATOM      7  F   UNL     1      -0.682   9.490  22.095  0.00  0.00    +0.000 F 
ENDROOT
BRANCH   1  15
ATOM      8  C   UNL     1      -3.359  14.227  21.115  0.00  0.00    +0.000 C 
ATOM      9  O   UNL     1      -4.232  13.791  20.375  0.00  0.00    +0.000 OA
ATOM     10  N   UNL     1      -2.018  14.073  20.854  0.00  0.00    +0.000 N 
ATOM     11  C   UNL     1      -0.939  14.640  21.646  0.00  0.00    +0.000 C 
ATOM     12  C   UNL     1      -0.039  13.527  22.149  0.00  0.00    +0.000 C 
ATOM     13  C   UNL     1       0.402  12.635  20.999  0.00  0.00    +0.000 C 
ATOM     14  N   UNL     1      -0.724  12.189  20.172  0.00  0.00    +0.000 N 
ATOM     15  C   UNL     1      -0.930  10.910  19.635  0.00  0.00    +0.000 C 
ATOM     16  O   UNL     1      -1.912  10.632  18.946  0.00  0.00    +0.000 OA
ATOM     17  C   UNL     1      -1.631  13.240  19.740  0.00  0.00    +0.000 C 
BRANCH   8  18
ATOM     18  O   UNL     1      -3.611  14.887  22.280  0.00  0.00    +0.000 OA
BRANCH  18  20
ATOM     19  C   UNL     1      -3.611  12.658  23.327  0.00  0.00    +0.000 C 
ATOM     20  C   UNL     1      -4.074  14.119  23.425  0.00  0.00    +0.000 C 
ATOM     21  C   UNL     1      -5.592  14.257  23.598  0.00  0.00    +0.000 C 
ATOM     22  C   UNL     1      -3.401  14.736  24.664  0.00  0.00    +0.000 C 
ENDBRANCH  18  20
ENDBRANCH   8  18
ENDBRANCH   1  15
BRANCH   3  23
ATOM     23  C   UNL     1       2.831   8.110  17.883  0.00  0.00    +0.000 C 
BRANCH  23  24
ATOM     24  C   UNL     1       3.138   6.622  17.732  0.00  0.00    +0.000 A 
ATOM     25  N   UNL     1       2.148   5.788  17.889  0.00  0.00    +0.000 NA
ATOM     26  N   UNL     1       2.445   4.454  17.837  0.00  0.00    +0.000 N 
ATOM     27  C   UNL     1       3.688   3.909  17.682  0.00  0.00    +0.000 A 
ATOM     28  O   UNL     1       3.895   2.697  17.731  0.00  0.00    +0.000 OA
ATOM     29  C   UNL     1       4.792   4.873  17.458  0.00  0.00    +0.000 A 
ATOM     30  C   UNL     1       4.554   6.195  17.463  0.00  0.00    +0.000 A 
ATOM     31  N   UNL     1       5.572   7.107  17.243  0.00  0.00    +0.000 N 
ATOM     32  C   UNL     1       6.969   6.711  17.278  0.00  0.00    +0.000 C 
ATOM     33  C   UNL     1       7.109   5.367  16.570  0.00  0.00    +0.000 C 
ATOM     34  C   UNL     1       6.171   4.321  17.193  0.00  0.00    +0.000 C 
ATOM     35  H   UNL     1       1.682   3.806  18.010  0.00  0.00    +0.000 HD
ATOM     36  H   UNL     1       5.381   8.087  17.405  0.00  0.00    +0.000 HD
ENDBRANCH  23  24
ENDBRANCH   3  23
TORSDOF 5
ENDMDL
MODEL 3
REMARK VINA RESULT:      -7.9      0.936      2.018
REMARK  Name = 
REMARK  8 active torsions:
REMARK  status: ('A' for Active; 'I' for Inactive)
REMARK    1  A    between atoms: C_1  and  C_2
REMARK    2  A    between atoms: C_2  and  C_3
REMARK    3  A    between atoms: C_2  and  C_4
REMARK    4  A    between atoms: C_2  and  O_5
REMARK    5  A    between atoms: O_5  and  C_6
REMARK    6  A    between atoms: C_13  and  C_15
REMARK    7  A    between atoms: C_17  and  C_18
REMARK    8  A    between atoms: C_18  and  C_19
REMARK                            x       y       z     vdW  Elec       q    Type
REMARK                         _______ _______ _______ _____ _____    ______ ____
ROOT
ATOM      1  C   UNL     1      -0.146  10.687  20.032  0.00  0.00    +0.000 A 
ATOM      2  C   UNL     1       0.190  11.855  20.725  0.00  0.00    +0.000 A 
ATOM      3  C   UNL     1      -0.215  13.118  20.272  0.00  0.00    +0.000 A 
ATOM      4  C   UNL     1      -1.076  13.188  19.171  0.00  0.00    +0.000 A 
ATOM      5  C   UNL     1      -1.504  12.020  18.535  0.00  0.00    +0.000 A 
ATOM      6  C   UNL     1      -1.029  10.778  18.957  0.00  0.00    +0.000 A 
ATOM      7  F   UNL     1      -1.448   9.689  18.296  0.00  0.00    +0.000 F 
ENDROOT
BRANCH   1  15
ATOM      8  C   UNL     1       1.669   5.286  19.636  0.00  0.00    +0.000 C 
ATOM      9  O   UNL     1       1.071   4.985  20.662  0.00  0.00    +0.000 OA
ATOM     10  N   UNL     1       2.231   6.526  19.440  0.00  0.00    +0.000 N 
ATOM     11  C   UNL     1       3.024   6.913  18.286  0.00  0.00    +0.000 C 
ATOM     12  C   UNL     1       2.378   8.104  17.602  0.00  0.00    +0.000 C 
ATOM     13  C   UNL     1       2.110   9.215  18.606  0.00  0.00    +0.000 C 
ATOM     14  N   UNL     1       1.406   8.735  19.799  0.00  0.00    +0.000 N 
ATOM     15  C   UNL     1       0.356   9.367  20.480  0.00  0.00    +0.000 C 
ATOM     16  O   UNL     1      -0.171   8.883  21.481  0.00  0.00    +0.000 OA
ATOM     17  C   UNL     1       1.979   7.552  20.423  0.00  0.00    +0.000 C 
BRANCH   8  18
ATOM     18  O   UNL     1       1.825   4.447  18.574  0.00  0.00    +0.000 OA
BRANCH  18  20
ATOM     19  C   UNL     1       1.742   2.054  19.150  0.00  0.00    +0.000 C 
ATOM     20  C   UNL     1       2.626   3.246  18.752  0.00  0.00    +0.000 C 
ATOM     21  C   UNL     1       3.775   3.495  19.737  0.00  0.00    +0.000 C 
ATOM     22  C   UNL     1       3.243   2.927  17.380  0.00  0.00    +0.000 C 
ENDBRANCH  18  20
ENDBRANCH   8  18
ENDBRANCH   1  15
BRANCH   3  23
ATOM     23  C   UNL     1       0.293  14.346  20.990  0.00  0.00    +0.000 C 
BRANCH  23  24
ATOM     24  C   UNL     1       0.684  15.495  20.063  0.00  0.00    +0.000 A 
ATOM     25  N   UNL     1      -0.104  16.532  20.031  0.00  0.00    +0.000 NA
ATOM     26  N   UNL     1       0.204  17.521  19.136  0.00  0.00    +0.000 N 
ATOM     27  C   UNL     1       1.234  17.504  18.240  0.00  0.00    +0.000 A 
ATOM     28  O   UNL     1       1.403  18.391  17.404  0.00  0.00    +0.000 OA
ATOM     29  C   UNL     1       2.146  16.338  18.325  0.00  0.00    +0.000 A 
ATOM     30  C   UNL     1       1.913  15.354  19.209  0.00  0.00    +0.000 A 
ATOM     31  N   UNL     1       2.762  14.265  19.309  0.00  0.00    +0.000 N 
ATOM     32  C   UNL     1       3.767  13.988  18.296  0.00  0.00    +0.000 C 
ATOM     33  C   UNL     1       4.413  15.306  17.883  0.00  0.00    +0.000 C 
ATOM     34  C   UNL     1       3.351  16.314  17.417  0.00  0.00    +0.000 C 
ATOM     35  H   UNL     1      -0.439  18.304  19.078  0.00  0.00    +0.000 HD
ATOM     36  H   UNL     1       2.470  13.479  19.874  0.00  0.00    +0.000 HD
ENDBRANCH  23  24
ENDBRANCH   3  23
TORSDOF 5
ENDMDL
MODEL 4
REMARK VINA RESULT:      -7.8      3.793      5.084
REMARK  Name = 
REMARK  8 active torsions:
REMARK  status: ('A' for Active; 'I' for Inactive)
REMARK    1  A    between atoms: C_1  and  C_2
REMARK    2  A    between atoms: C_2  and  C_3
REMARK    3  A    between atoms: C_2  and  C_4
REMARK    4  A    between atoms: C_2  and  O_5
REMARK    5  A    between atoms: O_5  and  C_6
REMARK    6  A    between atoms: C_13  and  C_15
REMARK    7  A    between atoms: C_17  and  C_18
REMARK    8  A    between atoms: C_18  and  C_19
REMARK                            x       y       z     vdW  Elec       q    Type
REMARK                         _______ _______ _______ _____ _____    ______ ____
ROOT
ATOM      1  C   UNL     1      -0.784  10.298  20.532  0.00  0.00    +0.000 A 
ATOM      2  C   UNL     1      -1.119  11.111  21.619  0.00  0.00    +0.000 A 
ATOM      3  C   UNL     1      -1.811  12.318  21.447  0.00  0.00    +0.000 A 
ATOM      4  C   UNL     1      -2.277  12.643  20.168  0.00  0.00    +0.000 A 
ATOM      5  C   UNL     1      -2.039  11.785  19.091  0.00  0.00    +0.000 A 
ATOM      6  C   UNL     1      -1.284  10.626  19.272  0.00  0.00    +0.000 A 
ATOM      7  F   UNL     1      -1.060   9.850  18.201  0.00  0.00    +0.000 F 
ENDROOT
BRANCH   1  15
ATOM      8  C   UNL     1       2.178   5.621  19.124  0.00  0.00    +0.000 C 
ATOM      9  O   UNL     1       1.700   5.005  20.068  0.00  0.00    +0.000 OA
ATOM     10  N   UNL     1       2.442   6.970  19.174  0.00  0.00    +0.000 N 
ATOM     11  C   UNL     1       3.087   7.737  18.122  0.00  0.00    +0.000 C 
ATOM     12  C   UNL     1       2.168   8.858  17.674  0.00  0.00    +0.000 C 
ATOM     13  C   UNL     1       1.694   9.670  18.869  0.00  0.00    +0.000 C 
ATOM     14  N   UNL     1       1.157   8.827  19.942  0.00  0.00    +0.000 N 
ATOM     15  C   UNL     1       0.017   9.066  20.723  0.00  0.00    +0.000 C 
ATOM     16  O   UNL     1      -0.353   8.295  21.608  0.00  0.00    +0.000 OA
ATOM     17  C   UNL     1       2.001   7.709  20.333  0.00  0.00    +0.000 C 
BRANCH   8  18
ATOM     18  O   UNL     1       2.481   5.055  17.922  0.00  0.00    +0.000 OA
BRANCH  18  20
ATOM     19  C   UNL     1       2.898   2.635  17.730  0.00  0.00    +0.000 C 
ATOM     20  C   UNL     1       3.516   4.034  17.879  0.00  0.00    +0.000 C 
ATOM     21  C   UNL     1       4.450   4.150  19.090  0.00  0.00    +0.000 C 
ATOM     22  C   UNL     1       4.347   4.310  16.614  0.00  0.00    +0.000 C 
ENDBRANCH  18  20
ENDBRANCH   8  18
ENDBRANCH   1  15
BRANCH   3  23
ATOM     23  C   UNL     1      -2.023  13.212  22.645  0.00  0.00    +0.000 C 
BRANCH  23  24
ATOM     24  C   UNL     1      -3.439  13.164  23.217  0.00  0.00    +0.000 A 
ATOM     25  N   UNL     1      -3.762  12.120  23.927  0.00  0.00    +0.000 NA
ATOM     26  N   UNL     1      -5.056  12.041  24.364  0.00  0.00    +0.000 N 
ATOM     27  C   UNL     1      -6.056  12.930  24.090  0.00  0.00    +0.000 A 
ATOM     28  O   UNL     1      -7.220  12.753  24.445  0.00  0.00    +0.000 OA
ATOM     29  C   UNL     1      -5.657  14.134  23.322  0.00  0.00    +0.000 A 
ATOM     30  C   UNL     1      -4.391  14.282  22.897  0.00  0.00    +0.000 A 
ATOM     31  N   UNL     1      -4.000  15.406  22.189  0.00  0.00    +0.000 N 
ATOM     32  C   UNL     1      -4.973  16.331  21.632  0.00  0.00    +0.000 C 
ATOM     33  C   UNL     1      -6.086  16.536  22.654  0.00  0.00    +0.000 C 
ATOM     34  C   UNL     1      -6.703  15.191  23.069  0.00  0.00    +0.000 C 
ATOM     35  H   UNL     1      -5.318  11.202  24.874  0.00  0.00    +0.000 HD
ATOM     36  H   UNL     1      -3.085  15.408  21.759  0.00  0.00    +0.000 HD
ENDBRANCH  23  24
ENDBRANCH   3  23
TORSDOF 5
ENDMDL
MODEL 5
REMARK VINA RESULT:      -7.8      1.868      2.763
REMARK  Name = 
REMARK  8 active torsions:
REMARK  status: ('A' for Active; 'I' for Inactive)
REMARK    1  A    between atoms: C_1  and  C_2
REMARK    2  A    between atoms: C_2  and  C_3
REMARK    3  A    between atoms: C_2  and  C_4
REMARK    4  A    between atoms: C_2  and  O_5
REMARK    5  A    between atoms: O_5  and  C_6
REMARK    6  A    between atoms: C_13  and  C_15
REMARK    7  A    between atoms: C_17  and  C_18
REMARK    8  A    between atoms: C_18  and  C_19
REMARK                            x       y       z     vdW  Elec       q    Type
REMARK                         _______ _______ _______ _____ _____    ______ ____
ROOT
ATOM      1  C   UNL     1       0.014  10.687  19.712  0.00  0.00    +0.000 A 
ATOM      2  C   UNL     1       0.556  11.888  20.181  0.00  0.00    +0.000 A 
ATOM      3  C   UNL     1       0.174  13.125  19.644  0.00  0.00    +0.000 A 
ATOM      4  C   UNL     1      -0.864  13.152  18.704  0.00  0.00    +0.000 A 
ATOM      5  C   UNL     1      -1.486  11.966  18.305  0.00  0.00    +0.000 A 
ATOM      6  C   UNL     1      -1.038  10.740  18.798  0.00  0.00    +0.000 A 
ATOM      7  F   UNL     1      -1.649   9.628  18.363  0.00  0.00    +0.000 F 
ENDROOT
BRANCH   1  15
ATOM      8  C   UNL     1       1.754   5.247  19.622  0.00  0.00    +0.000 C 
ATOM      9  O   UNL     1       1.132   5.007  20.649  0.00  0.00    +0.000 OA
ATOM     10  N   UNL     1       2.339   6.467  19.376  0.00  0.00    +0.000 N 
ATOM     11  C   UNL     1       3.160   6.785  18.220  0.00  0.00    +0.000 C 
ATOM     12  C   UNL     1       2.546   7.949  17.465  0.00  0.00    +0.000 C 
ATOM     13  C   UNL     1       2.275   9.113  18.407  0.00  0.00    +0.000 C 
ATOM     14  N   UNL     1       1.541   8.703  19.608  0.00  0.00    +0.000 N 
ATOM     15  C   UNL     1       0.488   9.384  20.235  0.00  0.00    +0.000 C 
ATOM     16  O   UNL     1      -0.067   8.958  21.248  0.00  0.00    +0.000 OA
ATOM     17  C   UNL     1       2.083   7.545  20.302  0.00  0.00    +0.000 C 
BRANCH   8  18
ATOM     18  O   UNL     1       1.918   4.354  18.606  0.00  0.00    +0.000 OA
BRANCH  18  20
ATOM     19  C   UNL     1       1.644   2.154  19.679  0.00  0.00    +0.000 C 
ATOM     20  C   UNL     1       2.577   3.090  18.895  0.00  0.00    +0.000 C 
ATOM     21  C   UNL     1       3.921   3.321  19.598  0.00  0.00    +0.000 C 
ATOM     22  C   UNL     1       2.863   2.428  17.537  0.00  0.00    +0.000 C 
ENDBRANCH  18  20
ENDBRANCH   8  18
ENDBRANCH   1  15
BRANCH   3  23
ATOM     23  C   UNL     1       0.893  14.371  20.101  0.00  0.00    +0.000 C 
BRANCH  23  24
ATOM     24  C   UNL     1       2.261  14.577  19.452  0.00  0.00    +0.000 A 
ATOM     25  N   UNL     1       2.322  14.504  18.152  0.00  0.00    +0.000 NA
ATOM     26  N   UNL     1       3.562  14.603  17.582  0.00  0.00    +0.000 N 
ATOM     27  C   UNL     1       4.748  14.727  18.247  0.00  0.00    +0.000 A 
ATOM     28  O   UNL     1       5.836  14.725  17.673  0.00  0.00    +0.000 OA
ATOM     29  C   UNL     1       4.652  14.856  19.721  0.00  0.00    +0.000 A 
ATOM     30  C   UNL     1       3.458  14.801  20.333  0.00  0.00    +0.000 A 
ATOM     31  N   UNL     1       3.350  14.932  21.707  0.00  0.00    +0.000 N 
ATOM     32  C   UNL     1       4.515  14.852  22.572  0.00  0.00    +0.000 C 
ATOM     33  C   UNL     1       5.660  15.614  21.914  0.00  0.00    +0.000 C 
ATOM     34  C   UNL     1       5.926  15.084  20.496  0.00  0.00    +0.000 C 
ATOM     35  H   UNL     1       3.613  14.495  16.573  0.00  0.00    +0.000 HD
ATOM     36  H   UNL     1       2.458  14.733  22.140  0.00  0.00    +0.000 HD
ENDBRANCH  23  24
ENDBRANCH   3  23
TORSDOF 5
ENDMDL
MODEL 6
REMARK VINA RESULT:      -7.7      3.338      5.276
REMARK  Name = 
REMARK  8 active torsions:
REMARK  status: ('A' for Active; 'I' for Inactive)
REMARK    1  A    between atoms: C_1  and  C_2
REMARK    2  A    between atoms: C_2  and  C_3
REMARK    3  A    between atoms: C_2  and  C_4
REMARK    4  A    between atoms: C_2  and  O_5
REMARK    5  A    between atoms: O_5  and  C_6
REMARK    6  A    between atoms: C_13  and  C_15
REMARK    7  A    between atoms: C_17  and  C_18
REMARK    8  A    between atoms: C_18  and  C_19
REMARK                            x       y       z     vdW  Elec       q    Type
REMARK                         _______ _______ _______ _____ _____    ______ ____
ROOT
ATOM      1  C   UNL     1      -0.179  10.572  19.876  0.00  0.00    +0.000 A 
ATOM      2  C   UNL     1      -1.277  10.624  19.010  0.00  0.00    +0.000 A 
ATOM      3  C   UNL     1      -1.831  11.844  18.599  0.00  0.00    +0.000 A 
ATOM      4  C   UNL     1      -1.185  13.029  18.973  0.00  0.00    +0.000 A 
ATOM      5  C   UNL     1      -0.025  12.986  19.751  0.00  0.00    +0.000 A 
ATOM      6  C   UNL     1       0.465  11.763  20.210  0.00  0.00    +0.000 A 
ATOM      7  F   UNL     1       1.565  11.777  20.977  0.00  0.00    +0.000 F 
ENDROOT
BRANCH   1  15
ATOM      8  C   UNL     1       1.735   5.196  19.643  0.00  0.00    +0.000 C 
ATOM      9  O   UNL     1       1.135   4.913  20.672  0.00  0.00    +0.000 OA
ATOM     10  N   UNL     1       2.277   6.440  19.417  0.00  0.00    +0.000 N 
ATOM     11  C   UNL     1       3.072   6.810  18.259  0.00  0.00    +0.000 C 
ATOM     12  C   UNL     1       2.411   7.970  17.538  0.00  0.00    +0.000 C 
ATOM     13  C   UNL     1       2.115   9.103  18.509  0.00  0.00    +0.000 C 
ATOM     14  N   UNL     1       1.410   8.643  19.709  0.00  0.00    +0.000 N 
ATOM     15  C   UNL     1       0.343   9.275  20.364  0.00  0.00    +0.000 C 
ATOM     16  O   UNL     1      -0.184   8.808  21.374  0.00  0.00    +0.000 OA
ATOM     17  C   UNL     1       1.998   7.488  20.370  0.00  0.00    +0.000 C 
BRANCH   8  18
ATOM     18  O   UNL     1       1.916   4.331  18.605  0.00  0.00    +0.000 OA
BRANCH  18  20
ATOM     19  C   UNL     1       1.718   1.998  19.368  0.00  0.00    +0.000 C 
ATOM     20  C   UNL     1       2.652   3.101  18.849  0.00  0.00    +0.000 C 
ATOM     21  C   UNL     1       3.850   3.355  19.774  0.00  0.00    +0.000 C 
ATOM     22  C   UNL     1       3.198   2.643  17.486  0.00  0.00    +0.000 C 
ENDBRANCH  18  20
ENDBRANCH   8  18
ENDBRANCH   1  15
BRANCH   3  23
ATOM     23  C   UNL     1      -3.095  11.828  17.773  0.00  0.00    +0.000 C 
BRANCH  23  24
ATOM     24  C   UNL     1      -4.356  11.496  18.568  0.00  0.00    +0.000 A 
ATOM     25  N   UNL     1      -4.993  10.405  18.250  0.00  0.00    +0.000 NA
ATOM     26  N   UNL     1      -6.168  10.157  18.906  0.00  0.00    +0.000 N 
ATOM     27  C   UNL     1      -6.762  10.967  19.831  0.00  0.00    +0.000 A 
ATOM     28  O   UNL     1      -7.864  10.723  20.320  0.00  0.00    +0.000 OA
ATOM     29  C   UNL     1      -5.998  12.179  20.214  0.00  0.00    +0.000 A 
ATOM     30  C   UNL     1      -4.822  12.455  19.628  0.00  0.00    +0.000 A 
ATOM     31  N   UNL     1      -4.091  13.577  19.982  0.00  0.00    +0.000 N 
ATOM     32  C   UNL     1      -4.672  14.643  20.780  0.00  0.00    +0.000 C 
ATOM     33  C   UNL     1      -5.516  14.016  21.885  0.00  0.00    +0.000 C 
ATOM     34  C   UNL     1      -6.567  13.062  21.296  0.00  0.00    +0.000 C 
ATOM     35  H   UNL     1      -6.688   9.332  18.621  0.00  0.00    +0.000 HD
ATOM     36  H   UNL     1      -3.292  13.829  19.414  0.00  0.00    +0.000 HD
ENDBRANCH  23  24
ENDBRANCH   3  23
TORSDOF 5
ENDMDL
MODEL 7
REMARK VINA RESULT:      -7.7      1.319      1.750
REMARK  Name = 
REMARK  8 active torsions:
REMARK  status: ('A' for Active; 'I' for Inactive)
REMARK    1  A    between atoms: C_1  and  C_2
REMARK    2  A    between atoms: C_2  and  C_3
REMARK    3  A    between atoms: C_2  and  C_4
REMARK    4  A    between atoms: C_2  and  O_5
REMARK    5  A    between atoms: O_5  and  C_6
REMARK    6  A    between atoms: C_13  and  C_15
REMARK    7  A    between atoms: C_17  and  C_18
REMARK    8  A    between atoms: C_18  and  C_19
REMARK                            x       y       z     vdW  Elec       q    Type
REMARK                         _______ _______ _______ _____ _____    ______ ____
ROOT
ATOM      1  C   UNL     1      -0.168  10.617  20.290  0.00  0.00    +0.000 A 
ATOM      2  C   UNL     1       0.274  11.762  20.962  0.00  0.00    +0.000 A 
ATOM      3  C   UNL     1      -0.134  13.045  20.572  0.00  0.00    +0.000 A 
ATOM      4  C   UNL     1      -1.101  13.160  19.566  0.00  0.00    +0.000 A 
ATOM      5  C   UNL     1      -1.629  12.018  18.960  0.00  0.00    +0.000 A 
ATOM      6  C   UNL     1      -1.153  10.755  19.313  0.00  0.00    +0.000 A 
ATOM      7  F   UNL     1      -1.672   9.691  18.682  0.00  0.00    +0.000 F 
ENDROOT
BRANCH   1  15
ATOM      8  C   UNL     1       1.652   5.248  19.595  0.00  0.00    +0.000 C 
ATOM      9  O   UNL     1       1.054   4.890  20.602  0.00  0.00    +0.000 OA
ATOM     10  N   UNL     1       2.213   6.497  19.469  0.00  0.00    +0.000 N 
ATOM     11  C   UNL     1       3.007   6.949  18.339  0.00  0.00    +0.000 C 
ATOM     12  C   UNL     1       2.361   8.176  17.722  0.00  0.00    +0.000 C 
ATOM     13  C   UNL     1       2.091   9.229  18.786  0.00  0.00    +0.000 C 
ATOM     14  N   UNL     1       1.387   8.682  19.950  0.00  0.00    +0.000 N 
ATOM     15  C   UNL     1       0.335   9.275  20.664  0.00  0.00    +0.000 C 
ATOM     16  O   UNL     1      -0.193   8.735  21.636  0.00  0.00    +0.000 OA
ATOM     17  C   UNL     1       1.960   7.467  20.508  0.00  0.00    +0.000 C 
BRANCH   8  18
ATOM     18  O   UNL     1       1.810   4.470  18.488  0.00  0.00    +0.000 OA
BRANCH  18  20
ATOM     19  C   UNL     1       0.811   2.258  18.907  0.00  0.00    +0.000 C 
ATOM     20  C   UNL     1       2.102   3.057  18.670  0.00  0.00    +0.000 C 
ATOM     21  C   UNL     1       3.145   2.851  19.777  0.00  0.00    +0.000 C 
ATOM     22  C   UNL     1       2.715   2.565  17.348  0.00  0.00    +0.000 C 
ENDBRANCH  18  20
ENDBRANCH   8  18
ENDBRANCH   1  15
BRANCH   3  23
ATOM     23  C   UNL     1       0.484  14.243  21.252  0.00  0.00    +0.000 C 
BRANCH  23  24
ATOM     24  C   UNL     1       1.959  14.460  20.917  0.00  0.00    +0.000 A 
ATOM     25  N   UNL     1       2.838  13.877  21.682  0.00  0.00    +0.000 NA
ATOM     26  N   UNL     1       4.156  14.143  21.430  0.00  0.00    +0.000 N 
ATOM     27  C   UNL     1       4.639  14.999  20.481  0.00  0.00    +0.000 A 
ATOM     28  O   UNL     1       5.836  15.257  20.365  0.00  0.00    +0.000 OA
ATOM     29  C   UNL     1       3.626  15.615  19.591  0.00  0.00    +0.000 A 
ATOM     30  C   UNL     1       2.319  15.362  19.769  0.00  0.00    +0.000 A 
ATOM     31  N   UNL     1       1.361  15.920  18.939  0.00  0.00    +0.000 N 
ATOM     32  C   UNL     1       1.682  17.008  18.032  0.00  0.00    +0.000 C 
ATOM     33  C   UNL     1       3.038  16.722  17.394  0.00  0.00    +0.000 C 
ATOM     34  C   UNL     1       4.112  16.499  18.469  0.00  0.00    +0.000 C 
ATOM     35  H   UNL     1       4.837  13.728  22.058  0.00  0.00    +0.000 HD
ATOM     36  H   UNL     1       0.388  15.828  19.199  0.00  0.00    +0.000 HD
ENDBRANCH  23  24
ENDBRANCH   3  23
TORSDOF 5
ENDMDL
MODEL 8
REMARK VINA RESULT:      -7.7      3.457      9.866
REMARK  Name = 
REMARK  8 active torsions:
REMARK  status: ('A' for Active; 'I' for Inactive)
REMARK    1  A    between atoms: C_1  and  C_2
REMARK    2  A    between atoms: C_2  and  C_3
REMARK    3  A    between atoms: C_2  and  C_4
REMARK    4  A    between atoms: C_2  and  O_5
REMARK    5  A    between atoms: O_5  and  C_6
REMARK    6  A    between atoms: C_13  and  C_15
REMARK    7  A    between atoms: C_17  and  C_18
REMARK    8  A    between atoms: C_18  and  C_19
REMARK                            x       y       z     vdW  Elec       q    Type
REMARK                         _______ _______ _______ _____ _____    ______ ____
ROOT
ATOM      1  C   UNL     1       0.181   9.747  19.611  0.00  0.00    +0.000 A 
ATOM      2  C   UNL     1       0.897   9.274  18.506  0.00  0.00    +0.000 A 
ATOM      3  C   UNL     1       1.920   8.325  18.646  0.00  0.00    +0.000 A 
ATOM      4  C   UNL     1       2.135   7.758  19.908  0.00  0.00    +0.000 A 
ATOM      5  C   UNL     1       1.354   8.146  20.999  0.00  0.00    +0.000 A 
ATOM      6  C   UNL     1       0.393   9.146  20.852  0.00  0.00    +0.000 A 
ATOM      7  F   UNL     1      -0.312   9.503  21.936  0.00  0.00    +0.000 F 
ENDROOT
BRANCH   1  15
ATOM      8  C   UNL     1      -3.248  14.070  21.085  0.00  0.00    +0.000 C 
ATOM      9  O   UNL     1      -4.151  13.622  20.390  0.00  0.00    +0.000 OA
ATOM     10  N   UNL     1      -1.920  13.943  20.751  0.00  0.00    +0.000 N 
ATOM     11  C   UNL     1      -0.811  14.526  21.486  0.00  0.00    +0.000 C 
ATOM     12  C   UNL     1       0.136  13.428  21.934  0.00  0.00    +0.000 C 
ATOM     13  C   UNL     1       0.531  12.551  20.756  0.00  0.00    +0.000 C 
ATOM     14  N   UNL     1      -0.630  12.087  19.988  0.00  0.00    +0.000 N 
ATOM     15  C   UNL     1      -0.841  10.807  19.456  0.00  0.00    +0.000 C 
ATOM     16  O   UNL     1      -1.853  10.514  18.819  0.00  0.00    +0.000 OA
ATOM     17  C   UNL     1      -1.579  13.123  19.612  0.00  0.00    +0.000 C 
BRANCH   8  18
ATOM     18  O   UNL     1      -3.448  14.720  22.266  0.00  0.00    +0.000 OA
BRANCH  18  20
ATOM     19  C   UNL     1      -3.363  12.513  23.358  0.00  0.00    +0.000 C 
ATOM     20  C   UNL     1      -3.907  13.949  23.411  0.00  0.00    +0.000 C 
ATOM     21  C   UNL     1      -5.435  14.006  23.532  0.00  0.00    +0.000 C 
ATOM     22  C   UNL     1      -3.310  14.624  24.657  0.00  0.00    +0.000 C 
ENDBRANCH  18  20
ENDBRANCH   8  18
ENDBRANCH   1  15
BRANCH   3  23
ATOM     23  C   UNL     1       2.742   7.956  17.434  0.00  0.00    +0.000 C 
BRANCH  23  24
ATOM     24  C   UNL     1       3.811   6.899  17.703  0.00  0.00    +0.000 A 
ATOM     25  N   UNL     1       5.050   7.299  17.744  0.00  0.00    +0.000 NA
ATOM     26  N   UNL     1       6.010   6.336  17.899  0.00  0.00    +0.000 N 
ATOM     27  C   UNL     1       5.797   4.989  17.969  0.00  0.00    +0.000 A 
ATOM     28  O   UNL     1       6.715   4.171  18.023  0.00  0.00    +0.000 OA
ATOM     29  C   UNL     1       4.378   4.558  17.968  0.00  0.00    +0.000 A 
ATOM     30  C   UNL     1       3.392   5.463  17.854  0.00  0.00    +0.000 A 
ATOM     31  N   UNL     1       2.061   5.078  17.863  0.00  0.00    +0.000 N 
ATOM     32  C   UNL     1       1.671   3.687  17.713  0.00  0.00    +0.000 C 
ATOM     33  C   UNL     1       2.624   2.825  18.535  0.00  0.00    +0.000 C 
ATOM     34  C   UNL     1       4.084   3.088  18.132  0.00  0.00    +0.000 C 
ATOM     35  H   UNL     1       6.977   6.644  17.880  0.00  0.00    +0.000 HD
ATOM     36  H   UNL     1       1.361   5.767  17.623  0.00  0.00    +0.000 HD
ENDBRANCH  23  24
ENDBRANCH   3  23
TORSDOF 5
ENDMDL
MODEL 9
REMARK VINA RESULT:      -7.6      2.668      9.999
REMARK  Name = 
REMARK  8 active torsions:
REMARK  status: ('A' for Active; 'I' for Inactive)
REMARK    1  A    between atoms: C_1  and  C_2
REMARK    2  A    between atoms: C_2  and  C_3
REMARK    3  A    between atoms: C_2  and  C_4
REMARK    4  A    between atoms: C_2  and  O_5
REMARK    5  A    between atoms: O_5  and  C_6
REMARK    6  A    between atoms: C_13  and  C_15
REMARK    7  A    between atoms: C_17  and  C_18
REMARK    8  A    between atoms: C_18  and  C_19
REMARK                            x       y       z     vdW  Elec       q    Type
REMARK                         _______ _______ _______ _____ _____    ______ ____
ROOT
ATOM      1  C   UNL     1       0.645  10.238  19.734  0.00  0.00    +0.000 A 
ATOM      2  C   UNL     1       1.123   9.424  18.703  0.00  0.00    +0.000 A 
ATOM      3  C   UNL     1       1.805   8.228  18.967  0.00  0.00    +0.000 A 
ATOM      4  C   UNL     1       1.893   7.791  20.295  0.00  0.00    +0.000 A 
ATOM      5  C   UNL     1       1.326   8.544  21.325  0.00  0.00    +0.000 A 
ATOM      6  C   UNL     1       0.718   9.768  21.045  0.00  0.00    +0.000 A 
ATOM      7  F   UNL     1       0.213  10.467  22.073  0.00  0.00    +0.000 F 
ENDROOT
BRANCH   1  15
ATOM      8  C   UNL     1      -0.122  15.898  19.693  0.00  0.00    +0.000 C 
ATOM      9  O   UNL     1      -1.329  15.759  19.845  0.00  0.00    +0.000 OA
ATOM     10  N   UNL     1       0.643  15.007  18.977  0.00  0.00    +0.000 N 
ATOM     11  C   UNL     1       2.059  15.163  18.688  0.00  0.00    +0.000 C 
ATOM     12  C   UNL     1       2.824  13.974  19.241  0.00  0.00    +0.000 C 
ATOM     13  C   UNL     1       2.204  12.671  18.762  0.00  0.00    +0.000 C 
ATOM     14  N   UNL     1       0.755  12.625  18.980  0.00  0.00    +0.000 N 
ATOM     15  C   UNL     1      -0.002  11.537  19.439  0.00  0.00    +0.000 C 
ATOM     16  O   UNL     1      -1.223  11.596  19.588  0.00  0.00    +0.000 OA
ATOM     17  C   UNL     1       0.020  13.790  18.514  0.00  0.00    +0.000 C 
BRANCH   8  18
ATOM     18  O   UNL     1       0.599  16.925  20.225  0.00  0.00    +0.000 OA
BRANCH  18  20
ATOM     19  C   UNL     1       0.918  15.552  22.245  0.00  0.00    +0.000 C 
ATOM     20  C   UNL     1       0.780  16.969  21.667  0.00  0.00    +0.000 C 
ATOM     21  C   UNL     1      -0.339  17.781  22.335  0.00  0.00    +0.000 C 
ATOM     22  C   UNL     1       2.108  17.703  21.917  0.00  0.00    +0.000 C 
ENDBRANCH  18  20
ENDBRANCH   8  18
ENDBRANCH   1  15
BRANCH   3  23
ATOM     23  C   UNL     1       2.411   7.465  17.814  0.00  0.00    +0.000 C 
BRANCH  23  24
ATOM     24  C   UNL     1       3.123   6.177  18.223  0.00  0.00    +0.000 A 
ATOM     25  N   UNL     1       2.407   5.255  18.802  0.00  0.00    +0.000 NA
ATOM     26  N   UNL     1       3.067   4.140  19.243  0.00  0.00    +0.000 N 
ATOM     27  C   UNL     1       4.413   3.920  19.175  0.00  0.00    +0.000 A 
ATOM     28  O   UNL     1       4.951   2.931  19.670  0.00  0.00    +0.000 OA
ATOM     29  C   UNL     1       5.203   4.958  18.471  0.00  0.00    +0.000 A 
ATOM     30  C   UNL     1       4.603   6.058  17.986  0.00  0.00    +0.000 A 
ATOM     31  N   UNL     1       5.325   7.031  17.315  0.00  0.00    +0.000 N 
ATOM     32  C   UNL     1       6.777   7.058  17.347  0.00  0.00    +0.000 C 
ATOM     33  C   UNL     1       7.291   5.628  17.209  0.00  0.00    +0.000 C 
ATOM     34  C   UNL     1       6.682   4.722  18.291  0.00  0.00    +0.000 C 
ATOM     35  H   UNL     1       2.515   3.446  19.738  0.00  0.00    +0.000 HD
ATOM     36  H   UNL     1       4.867   7.907  17.102  0.00  0.00    +0.000 HD
ENDBRANCH  23  24
ENDBRANCH   3  23
TORSDOF 5
ENDMDL
