MODEL 1
REMARK VINA RESULT:      -8.2      0.000      0.000
REMARK  Name = 
REMARK  7 active torsions:
REMARK  status: ('A' for Active; 'I' for Inactive)
REMARK    1  A    between atoms: C_1  and  O_2
REMARK    2  A    between atoms: O_2  and  C_3
REMARK    3  A    between atoms: C_3  and  C_5
REMARK    4  A    between atoms: C_8  and  C_9
REMARK    5  A    between atoms: C_9  and  C_10
REMARK    6  A    between atoms: C_14  and  O_15
REMARK    7  A    between atoms: O_15  and  C_16
REMARK                            x       y       z     vdW  Elec       q    Type
REMARK                         _______ _______ _______ _____ _____    ______ ____
ROOT
ATOM      1  C   UNL     1       2.265   6.414  19.671  0.00  0.00    +0.000 A 
ATOM      2  N   UNL     1       3.246   6.705  18.747  0.00  0.00    +0.000 NA
ATOM      3  C   UNL     1       3.790   5.788  17.930  0.00  0.00    +0.000 A 
ATOM      4  C   UNL     1       4.754   6.173  17.009  0.00  0.00    +0.000 A 
ATOM      5  C   UNL     1       5.290   5.280  16.073  0.00  0.00    +0.000 A 
ATOM      6  C   UNL     1       4.914   3.941  16.097  0.00  0.00    +0.000 A 
ATOM      7  C   UNL     1       3.983   3.512  17.043  0.00  0.00    +0.000 A 
ATOM      8  C   UNL     1       3.415   4.441  17.952  0.00  0.00    +0.000 A 
ATOM      9  C   UNL     1       2.460   4.071  18.932  0.00  0.00    +0.000 A 
ATOM     10  C   UNL     1       1.874   2.822  19.296  0.00  0.00    +0.000 A 
ATOM     11  C   UNL     1       1.029   3.056  20.355  0.00  0.00    +0.000 A 
ATOM     12  N   UNL     1       1.079   4.391  20.648  0.00  0.00    +0.000 N 
ATOM     13  C   UNL     1       1.917   5.055  19.779  0.00  0.00    +0.000 A 
ATOM     14  H   UNL     1       0.566   4.835  21.397  0.00  0.00    +0.000 HD
ENDROOT
BRANCH   5  15
ATOM     15  O   UNL     1       6.193   5.819  15.194  0.00  0.00    +0.000 OA
ATOM     16  C   UNL     1       6.857   4.867  14.365  0.00  0.00    +0.000 C 
ENDBRANCH   5  15
BRANCH   1  17
ATOM     17  C   UNL     1       1.899   7.609  20.534  0.00  0.00    +0.000 C 
BRANCH  17  21
ATOM     18  C   UNL     1      -0.449  10.962  18.974  0.00  0.00    +0.000 A 
ATOM     19  C   UNL     1       0.510  10.289  18.215  0.00  0.00    +0.000 A 
ATOM     20  C   UNL     1       1.264   9.250  18.775  0.00  0.00    +0.000 A 
ATOM     21  C   UNL     1       1.105   8.839  20.118  0.00  0.00    +0.000 A 
ATOM     22  C   UNL     1       0.109   9.483  20.862  0.00  0.00    +0.000 A 
ATOM     23  C   UNL     1      -0.650  10.546  20.300  0.00  0.00    +0.000 A 
BRANCH  18  24
ATOM     24  C   UNL     1      -1.197  12.063  18.292  0.00  0.00    +0.000 C 
ATOM     25  O   UNL     1      -0.676  13.126  17.970  0.00  0.00    +0.000 OA
BRANCH  24  27
ATOM     26  C   UNL     1      -2.764  11.186  16.784  0.00  0.00    +0.000 C 
ATOM     27  O   UNL     1      -2.505  11.748  18.081  0.00  0.00    +0.000 OA
ENDBRANCH  24  27
ENDBRANCH  18  24
ENDBRANCH  17  21
ENDBRANCH   1  17
TORSDOF 5
ENDMDL
MODEL 2
REMARK VINA RESULT:      -8.2      1.757      2.490
REMARK  Name = 
REMARK  7 active torsions:
REMARK  status: ('A' for Active; 'I' for Inactive)
REMARK    1  A    between atoms: C_1  and  O_2
REMARK    2  A    between atoms: O_2  and  C_3
REMARK    3  A    between atoms: C_3  and  C_5
REMARK    4  A    between atoms: C_8  and  C_9
REMARK    5  A    between atoms: C_9  and  C_10
REMARK    6  A    between atoms: C_14  and  O_15
REMARK    7  A    between atoms: O_15  and  C_16
REMARK                            x       y       z     vdW  Elec       q    Type
REMARK                         _______ _______ _______ _____ _____    ______ ____
ROOT
ATOM      1  C   UNL     1       2.364   5.746  19.578  0.00  0.00    +0.000 A 
ATOM      2  N   UNL     1       3.561   6.260  19.127  0.00  0.00    +0.000 NA
ATOM      3  C   UNL     1       4.342   5.640  18.227  0.00  0.00    +0.000 A 
ATOM      4  C   UNL     1       5.520   6.241  17.808  0.00  0.00    +0.000 A 
ATOM      5  C   UNL     1       6.326   5.685  16.806  0.00  0.00    +0.000 A 
ATOM      6  C   UNL     1       5.994   4.452  16.253  0.00  0.00    +0.000 A 
ATOM      7  C   UNL     1       4.841   3.799  16.689  0.00  0.00    +0.000 A 
ATOM      8  C   UNL     1       4.011   4.401  17.669  0.00  0.00    +0.000 A 
ATOM      9  C   UNL     1       2.824   3.792  18.150  0.00  0.00    +0.000 A 
ATOM     10  C   UNL     1       2.191   2.543  17.874  0.00  0.00    +0.000 A 
ATOM     11  C   UNL     1       1.071   2.465  18.667  0.00  0.00    +0.000 A 
ATOM     12  N   UNL     1       0.999   3.610  19.411  0.00  0.00    +0.000 N 
ATOM     13  C   UNL     1       2.035   4.465  19.101  0.00  0.00    +0.000 A 
ATOM     14  H   UNL     1       0.281   3.809  20.094  0.00  0.00    +0.000 HD
ENDROOT
BRANCH   5  15
ATOM     15  O   UNL     1       7.429   6.420  16.461  0.00  0.00    +0.000 OA
ATOM     16  C   UNL     1       7.695   7.533  17.312  0.00  0.00    +0.000 C 
ENDBRANCH   5  15
BRANCH   1  17
ATOM     17  C   UNL     1       1.734   6.598  20.667  0.00  0.00    +0.000 C 
BRANCH  17  21
ATOM     18  C   UNL     1       0.650  10.842  20.703  0.00  0.00    +0.000 A 
ATOM     19  C   UNL     1       0.658  10.051  21.853  0.00  0.00    +0.000 A 
ATOM     20  C   UNL     1       0.972   8.688  21.781  0.00  0.00    +0.000 A 
ATOM     21  C   UNL     1       1.282   8.047  20.560  0.00  0.00    +0.000 A 
ATOM     22  C   UNL     1       1.322   8.853  19.416  0.00  0.00    +0.000 A 
ATOM     23  C   UNL     1       0.992  10.235  19.484  0.00  0.00    +0.000 A 
BRANCH  18  24
ATOM     24  C   UNL     1       0.294  12.284  20.879  0.00  0.00    +0.000 C 
ATOM     25  O   UNL     1      -0.768  12.763  20.493  0.00  0.00    +0.000 OA
BRANCH  24  27
ATOM     26  C   UNL     1       2.290  13.485  20.614  0.00  0.00    +0.000 C 
ATOM     27  O   UNL     1       1.278  12.988  21.505  0.00  0.00    +0.000 OA
ENDBRANCH  24  27
ENDBRANCH  18  24
ENDBRANCH  17  21
ENDBRANCH   1  17
TORSDOF 5
ENDMDL
MODEL 3
REMARK VINA RESULT:      -8.1      1.268      1.485
REMARK  Name = 
REMARK  7 active torsions:
REMARK  status: ('A' for Active; 'I' for Inactive)
REMARK    1  A    between atoms: C_1  and  O_2
REMARK    2  A    between atoms: O_2  and  C_3
REMARK    3  A    between atoms: C_3  and  C_5
REMARK    4  A    between atoms: C_8  and  C_9
REMARK    5  A    between atoms: C_9  and  C_10
REMARK    6  A    between atoms: C_14  and  O_15
REMARK    7  A    between atoms: O_15  and  C_16
REMARK                            x       y       z     vdW  Elec       q    Type
REMARK                         _______ _______ _______ _____ _____    ______ ____
ROOT
ATOM      1  C   UNL     1       2.382   5.690  19.600  0.00  0.00    +0.000 A 
ATOM      2  N   UNL     1       3.576   6.210  19.149  0.00  0.00    +0.000 NA
ATOM      3  C   UNL     1       4.349   5.606  18.232  0.00  0.00    +0.000 A 
ATOM      4  C   UNL     1       5.524   6.214  17.815  0.00  0.00    +0.000 A 
ATOM      5  C   UNL     1       6.322   5.676  16.798  0.00  0.00    +0.000 A 
ATOM      6  C   UNL     1       5.985   4.453  16.225  0.00  0.00    +0.000 A 
ATOM      7  C   UNL     1       4.834   3.793  16.657  0.00  0.00    +0.000 A 
ATOM      8  C   UNL     1       4.013   4.377  17.654  0.00  0.00    +0.000 A 
ATOM      9  C   UNL     1       2.829   3.761  18.133  0.00  0.00    +0.000 A 
ATOM     10  C   UNL     1       2.193   2.518  17.838  0.00  0.00    +0.000 A 
ATOM     11  C   UNL     1       1.078   2.426  18.639  0.00  0.00    +0.000 A 
ATOM     12  N   UNL     1       1.013   3.558  19.404  0.00  0.00    +0.000 N 
ATOM     13  C   UNL     1       2.047   4.417  19.101  0.00  0.00    +0.000 A 
ATOM     14  H   UNL     1       0.301   3.745  20.095  0.00  0.00    +0.000 HD
ENDROOT
BRANCH   5  15
ATOM     15  O   UNL     1       7.424   6.416  16.458  0.00  0.00    +0.000 OA
ATOM     16  C   UNL     1       7.690   7.519  17.321  0.00  0.00    +0.000 C 
ENDBRANCH   5  15
BRANCH   1  17
ATOM     17  C   UNL     1       1.760   6.521  20.709  0.00  0.00    +0.000 C 
BRANCH  17  21
ATOM     18  C   UNL     1       0.159  10.541  20.027  0.00  0.00    +0.000 A 
ATOM     19  C   UNL     1       0.997   9.894  19.117  0.00  0.00    +0.000 A 
ATOM     20  C   UNL     1       1.517   8.624  19.403  0.00  0.00    +0.000 A 
ATOM     21  C   UNL     1       1.234   7.946  20.610  0.00  0.00    +0.000 A 
ATOM     22  C   UNL     1       0.354   8.576  21.498  0.00  0.00    +0.000 A 
ATOM     23  C   UNL     1      -0.165   9.870  21.217  0.00  0.00    +0.000 A 
BRANCH  18  24
ATOM     24  C   UNL     1      -0.338  11.897  19.638  0.00  0.00    +0.000 C 
ATOM     25  O   UNL     1       0.410  12.840  19.396  0.00  0.00    +0.000 OA
BRANCH  24  27
ATOM     26  C   UNL     1      -2.247  11.661  18.298  0.00  0.00    +0.000 C 
ATOM     27  O   UNL     1      -1.698  11.958  19.592  0.00  0.00    +0.000 OA
ENDBRANCH  24  27
ENDBRANCH  18  24
ENDBRANCH  17  21
ENDBRANCH   1  17
TORSDOF 5
ENDMDL
MODEL 4
REMARK VINA RESULT:      -8.1      1.602      2.173
REMARK  Name = 
REMARK  7 active torsions:
REMARK  status: ('A' for Active; 'I' for Inactive)
REMARK    1  A    between atoms: C_1  and  O_2
REMARK    2  A    between atoms: O_2  and  C_3
REMARK    3  A    between atoms: C_3  and  C_5
REMARK    4  A    between atoms: C_8  and  C_9
REMARK    5  A    between atoms: C_9  and  C_10
REMARK    6  A    between atoms: C_14  and  O_15
REMARK    7  A    between atoms: O_15  and  C_16
REMARK                            x       y       z     vdW  Elec       q    Type
REMARK                         _______ _______ _______ _____ _____    ______ ____
ROOT
ATOM      1  C   UNL     1       2.407   5.660  19.598  0.00  0.00    +0.000 A 
ATOM      2  N   UNL     1       3.603   6.188  19.162  0.00  0.00    +0.000 NA
ATOM      3  C   UNL     1       4.380   5.599  18.238  0.00  0.00    +0.000 A 
ATOM      4  C   UNL     1       5.557   6.213  17.836  0.00  0.00    +0.000 A 
ATOM      5  C   UNL     1       6.360   5.692  16.814  0.00  0.00    +0.000 A 
ATOM      6  C   UNL     1       6.026   4.479  16.219  0.00  0.00    +0.000 A 
ATOM      7  C   UNL     1       4.873   3.812  16.636  0.00  0.00    +0.000 A 
ATOM      8  C   UNL     1       4.047   4.380  17.638  0.00  0.00    +0.000 A 
ATOM      9  C   UNL     1       2.861   3.756  18.101  0.00  0.00    +0.000 A 
ATOM     10  C   UNL     1       2.226   2.518  17.784  0.00  0.00    +0.000 A 
ATOM     11  C   UNL     1       1.108   2.413  18.577  0.00  0.00    +0.000 A 
ATOM     12  N   UNL     1       1.040   3.531  19.361  0.00  0.00    +0.000 N 
ATOM     13  C   UNL     1       2.075   4.396  19.077  0.00  0.00    +0.000 A 
ATOM     14  H   UNL     1       0.324   3.707  20.052  0.00  0.00    +0.000 HD
ENDROOT
BRANCH   5  15
ATOM     15  O   UNL     1       7.464   6.438  16.491  0.00  0.00    +0.000 OA
ATOM     16  C   UNL     1       7.659   7.595  17.301  0.00  0.00    +0.000 C 
ENDBRANCH   5  15
BRANCH   1  17
ATOM     17  C   UNL     1       1.781   6.473  20.718  0.00  0.00    +0.000 C 
BRANCH  17  21
ATOM     18  C   UNL     1       0.626  10.682  20.344  0.00  0.00    +0.000 A 
ATOM     19  C   UNL     1       1.034   9.908  19.256  0.00  0.00    +0.000 A 
ATOM     20  C   UNL     1       1.433   8.577  19.436  0.00  0.00    +0.000 A 
ATOM     21  C   UNL     1       1.455   7.960  20.707  0.00  0.00    +0.000 A 
ATOM     22  C   UNL     1       0.998   8.724  21.789  0.00  0.00    +0.000 A 
ATOM     23  C   UNL     1       0.604  10.079  21.611  0.00  0.00    +0.000 A 
BRANCH  18  24
ATOM     24  C   UNL     1       0.226  12.094  20.053  0.00  0.00    +0.000 C 
ATOM     25  O   UNL     1      -0.569  12.395  19.168  0.00  0.00    +0.000 OA
BRANCH  24  27
ATOM     26  C   UNL     1       2.186  13.314  20.465  0.00  0.00    +0.000 C 
ATOM     27  O   UNL     1       0.847  12.988  20.872  0.00  0.00    +0.000 OA
ENDBRANCH  24  27
ENDBRANCH  18  24
ENDBRANCH  17  21
ENDBRANCH   1  17
TORSDOF 5
ENDMDL
MODEL 5
REMARK VINA RESULT:      -8.1      0.540      1.014
REMARK  Name = 
REMARK  7 active torsions:
REMARK  status: ('A' for Active; 'I' for Inactive)
REMARK    1  A    between atoms: C_1  and  O_2
REMARK    2  A    between atoms: O_2  and  C_3
REMARK    3  A    between atoms: C_3  and  C_5
REMARK    4  A    between atoms: C_8  and  C_9
REMARK    5  A    between atoms: C_9  and  C_10
REMARK    6  A    between atoms: C_14  and  O_15
REMARK    7  A    between atoms: O_15  and  C_16
REMARK                            x       y       z     vdW  Elec       q    Type
REMARK                         _______ _______ _______ _____ _____    ______ ____
ROOT
ATOM      1  C   UNL     1       2.320   6.419  19.650  0.00  0.00    +0.000 A 
ATOM      2  N   UNL     1       3.327   6.707  18.754  0.00  0.00    +0.000 NA
ATOM      3  C   UNL     1       3.877   5.793  17.939  0.00  0.00    +0.000 A 
ATOM      4  C   UNL     1       4.869   6.174  17.047  0.00  0.00    +0.000 A 
ATOM      5  C   UNL     1       5.414   5.285  16.112  0.00  0.00    +0.000 A 
ATOM      6  C   UNL     1       5.017   3.951  16.109  0.00  0.00    +0.000 A 
ATOM      7  C   UNL     1       4.056   3.526  17.026  0.00  0.00    +0.000 A 
ATOM      8  C   UNL     1       3.481   4.451  17.933  0.00  0.00    +0.000 A 
ATOM      9  C   UNL     1       2.496   4.083  18.885  0.00  0.00    +0.000 A 
ATOM     10  C   UNL     1       1.883   2.839  19.218  0.00  0.00    +0.000 A 
ATOM     11  C   UNL     1       1.016   3.072  20.260  0.00  0.00    +0.000 A 
ATOM     12  N   UNL     1       1.079   4.402  20.572  0.00  0.00    +0.000 N 
ATOM     13  C   UNL     1       1.948   5.064  19.731  0.00  0.00    +0.000 A 
ATOM     14  H   UNL     1       0.554   4.845  21.313  0.00  0.00    +0.000 HD
ENDROOT
BRANCH   5  15
ATOM     15  O   UNL     1       6.346   5.821  15.262  0.00  0.00    +0.000 OA
ATOM     16  C   UNL     1       6.905   4.896  14.333  0.00  0.00    +0.000 C 
ENDBRANCH   5  15
BRANCH   1  17
ATOM     17  C   UNL     1       1.951   7.608  20.520  0.00  0.00    +0.000 C 
BRANCH  17  21
ATOM     18  C   UNL     1      -0.563  10.876  19.040  0.00  0.00    +0.000 A 
ATOM     19  C   UNL     1       0.323  10.171  18.223  0.00  0.00    +0.000 A 
ATOM     20  C   UNL     1       1.136   9.162  18.756  0.00  0.00    +0.000 A 
ATOM     21  C   UNL     1       1.111   8.815  20.126  0.00  0.00    +0.000 A 
ATOM     22  C   UNL     1       0.187   9.491  20.932  0.00  0.00    +0.000 A 
ATOM     23  C   UNL     1      -0.631  10.524  20.397  0.00  0.00    +0.000 A 
BRANCH  18  24
ATOM     24  C   UNL     1      -1.382  11.941  18.383  0.00  0.00    +0.000 C 
ATOM     25  O   UNL     1      -2.047  11.744  17.370  0.00  0.00    +0.000 OA
BRANCH  24  27
ATOM     26  C   UNL     1      -0.115  13.888  18.704  0.00  0.00    +0.000 C 
ATOM     27  O   UNL     1      -1.295  13.137  19.030  0.00  0.00    +0.000 OA
ENDBRANCH  24  27
ENDBRANCH  18  24
ENDBRANCH  17  21
ENDBRANCH   1  17
TORSDOF 5
ENDMDL
MODEL 6
REMARK VINA RESULT:      -8.1      2.975      8.225
REMARK  Name = 
REMARK  7 active torsions:
REMARK  status: ('A' for Active; 'I' for Inactive)
REMARK    1  A    between atoms: C_1  and  O_2
REMARK    2  A    between atoms: O_2  and  C_3
REMARK    3  A    between atoms: C_3  and  C_5
REMARK    4  A    between atoms: C_8  and  C_9
REMARK    5  A    between atoms: C_9  and  C_10
REMARK    6  A    between atoms: C_14  and  O_15
REMARK    7  A    between atoms: O_15  and  C_16
REMARK                            x       y       z     vdW  Elec       q    Type
REMARK                         _______ _______ _______ _____ _____    ______ ____
ROOT
ATOM      1  C   UNL     1       0.753   9.749  18.743  0.00  0.00    +0.000 A 
ATOM      2  N   UNL     1      -0.135   9.603  17.699  0.00  0.00    +0.000 NA
ATOM      3  C   UNL     1      -1.345  10.185  17.668  0.00  0.00    +0.000 A 
ATOM      4  C   UNL     1      -2.167  10.006  16.565  0.00  0.00    +0.000 A 
ATOM      5  C   UNL     1      -3.399  10.660  16.438  0.00  0.00    +0.000 A 
ATOM      6  C   UNL     1      -3.870  11.461  17.474  0.00  0.00    +0.000 A 
ATOM      7  C   UNL     1      -3.088  11.621  18.619  0.00  0.00    +0.000 A 
ATOM      8  C   UNL     1      -1.822  10.990  18.708  0.00  0.00    +0.000 A 
ATOM      9  C   UNL     1      -0.978  11.118  19.840  0.00  0.00    +0.000 A 
ATOM     10  C   UNL     1      -1.122  11.792  21.089  0.00  0.00    +0.000 A 
ATOM     11  C   UNL     1       0.010  11.539  21.828  0.00  0.00    +0.000 A 
ATOM     12  N   UNL     1       0.832  10.740  21.081  0.00  0.00    +0.000 N 
ATOM     13  C   UNL     1       0.280  10.487  19.843  0.00  0.00    +0.000 A 
ATOM     14  H   UNL     1       1.727  10.387  21.389  0.00  0.00    +0.000 HD
ENDROOT
BRANCH   5  15
ATOM     15  O   UNL     1      -4.074  10.427  15.268  0.00  0.00    +0.000 OA
ATOM     16  C   UNL     1      -3.244  10.097  14.157  0.00  0.00    +0.000 C 
ENDBRANCH   5  15
BRANCH   1  17
ATOM     17  C   UNL     1       2.004   8.904  18.571  0.00  0.00    +0.000 C 
BRANCH  17  21
ATOM     18  C   UNL     1       2.123   4.660  19.647  0.00  0.00    +0.000 A 
ATOM     19  C   UNL     1       1.875   5.671  20.577  0.00  0.00    +0.000 A 
ATOM     20  C   UNL     1       1.890   7.018  20.188  0.00  0.00    +0.000 A 
ATOM     21  C   UNL     1       2.160   7.418  18.861  0.00  0.00    +0.000 A 
ATOM     22  C   UNL     1       2.359   6.399  17.921  0.00  0.00    +0.000 A 
ATOM     23  C   UNL     1       2.357   5.032  18.314  0.00  0.00    +0.000 A 
BRANCH  18  24
ATOM     24  C   UNL     1       2.094   3.254  20.158  0.00  0.00    +0.000 C 
ATOM     25  O   UNL     1       1.364   2.890  21.075  0.00  0.00    +0.000 OA
BRANCH  24  27
ATOM     26  C   UNL     1       4.265   2.369  20.109  0.00  0.00    +0.000 C 
ATOM     27  O   UNL     1       2.967   2.444  19.497  0.00  0.00    +0.000 OA
ENDBRANCH  24  27
ENDBRANCH  18  24
ENDBRANCH  17  21
ENDBRANCH   1  17
TORSDOF 5
ENDMDL
MODEL 7
REMARK VINA RESULT:      -8.0      0.629      1.124
REMARK  Name = 
REMARK  7 active torsions:
REMARK  status: ('A' for Active; 'I' for Inactive)
REMARK    1  A    between atoms: C_1  and  O_2
REMARK    2  A    between atoms: O_2  and  C_3
REMARK    3  A    between atoms: C_3  and  C_5
REMARK    4  A    between atoms: C_8  and  C_9
REMARK    5  A    between atoms: C_9  and  C_10
REMARK    6  A    between atoms: C_14  and  O_15
REMARK    7  A    between atoms: O_15  and  C_16
REMARK                            x       y       z     vdW  Elec       q    Type
REMARK                         _______ _______ _______ _____ _____    ______ ____
ROOT
ATOM      1  C   UNL     1       2.315   6.485  19.635  0.00  0.00    +0.000 A 
ATOM      2  N   UNL     1       3.309   6.765  18.723  0.00  0.00    +0.000 NA
ATOM      3  C   UNL     1       3.878   5.836  17.938  0.00  0.00    +0.000 A 
ATOM      4  C   UNL     1       4.855   6.209  17.026  0.00  0.00    +0.000 A 
ATOM      5  C   UNL     1       5.418   5.300  16.121  0.00  0.00    +0.000 A 
ATOM      6  C   UNL     1       5.056   3.958  16.170  0.00  0.00    +0.000 A 
ATOM      7  C   UNL     1       4.111   3.542  17.109  0.00  0.00    +0.000 A 
ATOM      8  C   UNL     1       3.517   4.485  17.985  0.00  0.00    +0.000 A 
ATOM      9  C   UNL     1       2.548   4.128  18.956  0.00  0.00    +0.000 A 
ATOM     10  C   UNL     1       1.969   2.881  19.339  0.00  0.00    +0.000 A 
ATOM     11  C   UNL     1       1.101   3.131  20.377  0.00  0.00    +0.000 A 
ATOM     12  N   UNL     1       1.132   4.473  20.639  0.00  0.00    +0.000 N 
ATOM     13  C   UNL     1       1.979   5.125  19.769  0.00  0.00    +0.000 A 
ATOM     14  H   UNL     1       0.600   4.929  21.367  0.00  0.00    +0.000 HD
ENDROOT
BRANCH   5  15
ATOM     15  O   UNL     1       6.331   5.827  15.247  0.00  0.00    +0.000 OA
ATOM     16  C   UNL     1       6.861   4.896  14.306  0.00  0.00    +0.000 C 
ENDBRANCH   5  15
BRANCH   1  17
ATOM     17  C   UNL     1       1.921   7.696  20.463  0.00  0.00    +0.000 C 
BRANCH  17  21
ATOM     18  C   UNL     1      -0.513  11.231  19.583  0.00  0.00    +0.000 A 
ATOM     19  C   UNL     1      -0.540  10.579  20.817  0.00  0.00    +0.000 A 
ATOM     20  C   UNL     1       0.227   9.427  21.034  0.00  0.00    +0.000 A 
ATOM     21  C   UNL     1       1.047   8.865  20.030  0.00  0.00    +0.000 A 
ATOM     22  C   UNL     1       1.110   9.549  18.809  0.00  0.00    +0.000 A 
ATOM     23  C   UNL     1       0.324  10.712  18.582  0.00  0.00    +0.000 A 
BRANCH  18  24
ATOM     24  C   UNL     1      -1.372  12.447  19.444  0.00  0.00    +0.000 C 
ATOM     25  O   UNL     1      -0.916  13.569  19.245  0.00  0.00    +0.000 OA
BRANCH  24  27
ATOM     26  C   UNL     1      -3.276  11.564  18.400  0.00  0.00    +0.000 C 
ATOM     27  O   UNL     1      -2.698  12.163  19.571  0.00  0.00    +0.000 OA
ENDBRANCH  24  27
ENDBRANCH  18  24
ENDBRANCH  17  21
ENDBRANCH   1  17
TORSDOF 5
ENDMDL
MODEL 8
REMARK VINA RESULT:      -8.0      0.830      1.578
REMARK  Name = 
REMARK  7 active torsions:
REMARK  status: ('A' for Active; 'I' for Inactive)
REMARK    1  A    between atoms: C_1  and  O_2
REMARK    2  A    between atoms: O_2  and  C_3
REMARK    3  A    between atoms: C_3  and  C_5
REMARK    4  A    between atoms: C_8  and  C_9
REMARK    5  A    between atoms: C_9  and  C_10
REMARK    6  A    between atoms: C_14  and  O_15
REMARK    7  A    between atoms: O_15  and  C_16
REMARK                            x       y       z     vdW  Elec       q    Type
REMARK                         _______ _______ _______ _____ _____    ______ ____
ROOT
ATOM      1  C   UNL     1       2.276   6.489  19.630  0.00  0.00    +0.000 A 
ATOM      2  N   UNL     1       3.229   6.782  18.678  0.00  0.00    +0.000 NA
ATOM      3  C   UNL     1       3.793   5.856  17.885  0.00  0.00    +0.000 A 
ATOM      4  C   UNL     1       4.725   6.241  16.933  0.00  0.00    +0.000 A 
ATOM      5  C   UNL     1       5.278   5.334  16.020  0.00  0.00    +0.000 A 
ATOM      6  C   UNL     1       4.954   3.983  16.101  0.00  0.00    +0.000 A 
ATOM      7  C   UNL     1       4.056   3.557  17.080  0.00  0.00    +0.000 A 
ATOM      8  C   UNL     1       3.469   4.497  17.964  0.00  0.00    +0.000 A 
ATOM      9  C   UNL     1       2.546   4.129  18.975  0.00  0.00    +0.000 A 
ATOM     10  C   UNL     1       2.015   2.874  19.396  0.00  0.00    +0.000 A 
ATOM     11  C   UNL     1       1.180   3.116  20.462  0.00  0.00    +0.000 A 
ATOM     12  N   UNL     1       1.184   4.462  20.704  0.00  0.00    +0.000 N 
ATOM     13  C   UNL     1       1.981   5.124  19.795  0.00  0.00    +0.000 A 
ATOM     14  H   UNL     1       0.668   4.915  21.445  0.00  0.00    +0.000 HD
ENDROOT
BRANCH   5  15
ATOM     15  O   UNL     1       6.145   5.872  15.105  0.00  0.00    +0.000 OA
ATOM     16  C   UNL     1       6.969   4.921  14.435  0.00  0.00    +0.000 C 
ENDBRANCH   5  15
BRANCH   1  17
ATOM     17  C   UNL     1       1.881   7.702  20.455  0.00  0.00    +0.000 C 
BRANCH  17  21
ATOM     18  C   UNL     1      -0.504  11.261  19.542  0.00  0.00    +0.000 A 
ATOM     19  C   UNL     1      -0.467  10.678  20.810  0.00  0.00    +0.000 A 
ATOM     20  C   UNL     1       0.280   9.515  21.039  0.00  0.00    +0.000 A 
ATOM     21  C   UNL     1       1.014   8.874  20.016  0.00  0.00    +0.000 A 
ATOM     22  C   UNL     1       1.014   9.489  18.758  0.00  0.00    +0.000 A 
ATOM     23  C   UNL     1       0.248  10.663  18.519  0.00  0.00    +0.000 A 
BRANCH  18  24
ATOM     24  C   UNL     1      -1.335  12.496  19.394  0.00  0.00    +0.000 C 
ATOM     25  O   UNL     1      -2.473  12.595  19.844  0.00  0.00    +0.000 OA
BRANCH  24  27
ATOM     26  C   UNL     1       0.233  14.235  19.507  0.00  0.00    +0.000 C 
ATOM     27  O   UNL     1      -0.688  13.477  18.706  0.00  0.00    +0.000 OA
ENDBRANCH  24  27
ENDBRANCH  18  24
ENDBRANCH  17  21
ENDBRANCH   1  17
TORSDOF 5
ENDMDL
MODEL 9
REMARK VINA RESULT:      -7.9      1.106      1.688
REMARK  Name = 
REMARK  7 active torsions:
REMARK  status: ('A' for Active; 'I' for Inactive)
REMARK    1  A    between atoms: C_1  and  O_2
REMARK    2  A    between atoms: O_2  and  C_3
REMARK    3  A    between atoms: C_3  and  C_5
REMARK    4  A    between atoms: C_8  and  C_9
REMARK    5  A    between atoms: C_9  and  C_10
REMARK    6  A    between atoms: C_14  and  O_15
REMARK    7  A    between atoms: O_15  and  C_16
REMARK                            x       y       z     vdW  Elec       q    Type
REMARK                         _______ _______ _______ _____ _____    ______ ____
ROOT
ATOM      1  C   UNL     1       3.101   5.952  18.541  0.00  0.00    +0.000 A 
ATOM      2  N   UNL     1       4.238   6.281  17.835  0.00  0.00    +0.000 NA
ATOM      3  C   UNL     1       4.844   5.445  16.976  0.00  0.00    +0.000 A 
ATOM      4  C   UNL     1       5.971   5.866  16.286  0.00  0.00    +0.000 A 
ATOM      5  C   UNL     1       6.591   5.072  15.312  0.00  0.00    +0.000 A 
ATOM      6  C   UNL     1       6.123   3.785  15.066  0.00  0.00    +0.000 A 
ATOM      7  C   UNL     1       5.020   3.314  15.780  0.00  0.00    +0.000 A 
ATOM      8  C   UNL     1       4.377   4.150  16.726  0.00  0.00    +0.000 A 
ATOM      9  C   UNL     1       3.249   3.734  17.479  0.00  0.00    +0.000 A 
ATOM     10  C   UNL     1       2.525   2.506  17.547  0.00  0.00    +0.000 A 
ATOM     11  C   UNL     1       1.535   2.663  18.488  0.00  0.00    +0.000 A 
ATOM     12  N   UNL     1       1.629   3.931  18.993  0.00  0.00    +0.000 N 
ATOM     13  C   UNL     1       2.644   4.632  18.378  0.00  0.00    +0.000 A 
ATOM     14  H   UNL     1       1.033   4.308  19.715  0.00  0.00    +0.000 HD
ENDROOT
BRANCH   5  15
ATOM     15  O   UNL     1       7.662   5.644  14.678  0.00  0.00    +0.000 OA
ATOM     16  C   UNL     1       7.842   5.233  13.324  0.00  0.00    +0.000 C 
ENDBRANCH   5  15
BRANCH   1  17
ATOM     17  C   UNL     1       2.682   7.039  19.517  0.00  0.00    +0.000 C 
BRANCH  17  21
ATOM     18  C   UNL     1       0.156  10.591  19.087  0.00  0.00    +0.000 A 
ATOM     19  C   UNL     1       0.327   9.925  20.301  0.00  0.00    +0.000 A 
ATOM     20  C   UNL     1       1.113   8.768  20.376  0.00  0.00    +0.000 A 
ATOM     21  C   UNL     1       1.756   8.216  19.245  0.00  0.00    +0.000 A 
ATOM     22  C   UNL     1       1.622   8.914  18.039  0.00  0.00    +0.000 A 
ATOM     23  C   UNL     1       0.815  10.082  17.957  0.00  0.00    +0.000 A 
BRANCH  18  24
ATOM     24  C   UNL     1      -0.708  11.812  19.105  0.00  0.00    +0.000 C 
ATOM     25  O   UNL     1      -0.255  12.952  19.156  0.00  0.00    +0.000 OA
BRANCH  24  27
ATOM     26  C   UNL     1      -2.584  11.491  17.736  0.00  0.00    +0.000 C 
ATOM     27  O   UNL     1      -2.036  11.510  19.063  0.00  0.00    +0.000 OA
ENDBRANCH  24  27
ENDBRANCH  18  24
ENDBRANCH  17  21
ENDBRANCH   1  17
TORSDOF 5
ENDMDL
