MODEL 1
REMARK VINA RESULT:      -6.7      0.000      0.000
REMARK  Name = 
REMARK  5 active torsions:
REMARK  status: ('A' for Active; 'I' for Inactive)
REMARK    1  A    between atoms: C_1  and  C_2
REMARK    2  A    between atoms: C_2  and  O_3
REMARK    3  A    between atoms: O_3  and  C_4
REMARK    4  A    between atoms: N_6  and  N_7
REMARK    5  A    between atoms: C_8  and  C_9
REMARK                            x       y       z     vdW  Elec       q    Type
REMARK                         _______ _______ _______ _____ _____    ______ ____
ROOT
ATOM      1  N   UNL     1       5.137   3.540  17.341  0.00  0.00    +0.000 NA
ATOM      2  C   UNL     1       3.974   4.071  17.521  0.00  0.00    +0.000 C 
ENDROOT
BRANCH   2   3
ATOM      3  C   UNL     1       3.166   3.690  18.690  0.00  0.00    +0.000 A 
ATOM      4  C   UNL     1       3.767   3.090  19.805  0.00  0.00    +0.000 A 
ATOM      5  C   UNL     1       2.979   2.707  20.891  0.00  0.00    +0.000 A 
ATOM      6  C   UNL     1       1.606   2.929  20.854  0.00  0.00    +0.000 A 
ATOM      7  F   UNL     1       0.852   2.549  21.892  0.00  0.00    +0.000 F 
ATOM      8  C   UNL     1       1.002   3.532  19.756  0.00  0.00    +0.000 A 
ATOM      9  C   UNL     1       1.791   3.913  18.675  0.00  0.00    +0.000 A 
ATOM     10  F   UNL     1       1.206   4.492  17.618  0.00  0.00    +0.000 F 
ENDBRANCH   2   3
BRANCH   1  13
ATOM     11  C   UNL     1       7.091   4.448  16.374  0.00  0.00    +0.000 C 
ATOM     12  O   UNL     1       7.722   4.548  17.420  0.00  0.00    +0.000 OA
ATOM     13  N   UNL     1       5.824   3.931  16.239  0.00  0.00    +0.000 N 
ATOM     14  H   UNL     1       5.378   3.997  15.334  0.00  0.00    +0.000 HD
BRANCH  11  15
ATOM     15  O   UNL     1       7.515   4.909  15.169  0.00  0.00    +0.000 OA
BRANCH  15  17
ATOM     16  C   UNL     1       7.424   4.846  12.779  0.00  0.00    +0.000 C 
ATOM     17  C   UNL     1       6.666   4.566  14.063  0.00  0.00    +0.000 C 
ENDBRANCH  15  17
ENDBRANCH  11  15
ENDBRANCH   1  13
TORSDOF 4
ENDMDL
MODEL 2
REMARK VINA RESULT:      -6.6      1.212      1.467
REMARK  Name = 
REMARK  5 active torsions:
REMARK  status: ('A' for Active; 'I' for Inactive)
REMARK    1  A    between atoms: C_1  and  C_2
REMARK    2  A    between atoms: C_2  and  O_3
REMARK    3  A    between atoms: O_3  and  C_4
REMARK    4  A    between atoms: N_6  and  N_7
REMARK    5  A    between atoms: C_8  and  C_9
REMARK                            x       y       z     vdW  Elec       q    Type
REMARK                         _______ _______ _______ _____ _____    ______ ____
ROOT
ATOM      1  N   UNL     1       5.085   3.879  17.074  0.00  0.00    +0.000 NA
ATOM      2  C   UNL     1       3.926   4.412  17.275  0.00  0.00    +0.000 C 
ENDROOT
BRANCH   2   3
ATOM      3  C   UNL     1       3.089   3.947  18.392  0.00  0.00    +0.000 A 
ATOM      4  C   UNL     1       2.116   2.958  18.189  0.00  0.00    +0.000 A 
ATOM      5  C   UNL     1       1.312   2.553  19.255  0.00  0.00    +0.000 A 
ATOM      6  C   UNL     1       1.488   3.134  20.507  0.00  0.00    +0.000 A 
ATOM      7  F   UNL     1       0.706   2.751  21.523  0.00  0.00    +0.000 F 
ATOM      8  C   UNL     1       2.457   4.109  20.720  0.00  0.00    +0.000 A 
ATOM      9  C   UNL     1       3.258   4.510  19.656  0.00  0.00    +0.000 A 
ATOM     10  F   UNL     1       4.189   5.450  19.863  0.00  0.00    +0.000 F 
ENDBRANCH   2   3
BRANCH   1  13
ATOM     11  C   UNL     1       7.130   4.657  16.184  0.00  0.00    +0.000 C 
ATOM     12  O   UNL     1       7.789   4.493  17.205  0.00  0.00    +0.000 OA
ATOM     13  N   UNL     1       5.800   4.349  16.022  0.00  0.00    +0.000 N 
ATOM     14  H   UNL     1       5.350   4.626  15.159  0.00  0.00    +0.000 HD
BRANCH  11  15
ATOM     15  O   UNL     1       7.592   5.250  15.053  0.00  0.00    +0.000 OA
BRANCH  15  17
ATOM     16  C   UNL     1       7.819   5.208  12.672  0.00  0.00    +0.000 C 
ATOM     17  C   UNL     1       6.934   4.835  13.847  0.00  0.00    +0.000 C 
ENDBRANCH  15  17
ENDBRANCH  11  15
ENDBRANCH   1  13
TORSDOF 4
ENDMDL
MODEL 3
REMARK VINA RESULT:      -6.5      1.287      1.764
REMARK  Name = 
REMARK  5 active torsions:
REMARK  status: ('A' for Active; 'I' for Inactive)
REMARK    1  A    between atoms: C_1  and  C_2
REMARK    2  A    between atoms: C_2  and  O_3
REMARK    3  A    between atoms: O_3  and  C_4
REMARK    4  A    between atoms: N_6  and  N_7
REMARK    5  A    between atoms: C_8  and  C_9
REMARK                            x       y       z     vdW  Elec       q    Type
REMARK                         _______ _______ _______ _____ _____    ______ ____
ROOT
ATOM      1  N   UNL     1       4.888   4.642  17.185  0.00  0.00    +0.000 NA
ATOM      2  C   UNL     1       4.098   3.621  17.168  0.00  0.00    +0.000 C 
ENDROOT
BRANCH   2   3
ATOM      3  C   UNL     1       3.216   3.357  18.315  0.00  0.00    +0.000 A 
ATOM      4  C   UNL     1       1.829   3.531  18.201  0.00  0.00    +0.000 A 
ATOM      5  C   UNL     1       1.012   3.306  19.310  0.00  0.00    +0.000 A 
ATOM      6  C   UNL     1       1.585   2.909  20.515  0.00  0.00    +0.000 A 
ATOM      7  F   UNL     1       0.799   2.706  21.579  0.00  0.00    +0.000 F 
ATOM      8  C   UNL     1       2.958   2.725  20.634  0.00  0.00    +0.000 A 
ATOM      9  C   UNL     1       3.770   2.949  19.527  0.00  0.00    +0.000 A 
ATOM     10  F   UNL     1       5.092   2.773  19.646  0.00  0.00    +0.000 F 
ENDBRANCH   2   3
BRANCH   1  13
ATOM     11  C   UNL     1       7.047   4.818  16.242  0.00  0.00    +0.000 C 
ATOM     12  O   UNL     1       7.662   4.605  17.280  0.00  0.00    +0.000 OA
ATOM     13  N   UNL     1       5.680   4.821  16.098  0.00  0.00    +0.000 N 
ATOM     14  H   UNL     1       5.296   5.109  15.207  0.00  0.00    +0.000 HD
BRANCH  11  15
ATOM     15  O   UNL     1       7.621   5.166  15.061  0.00  0.00    +0.000 OA
BRANCH  15  17
ATOM     16  C   UNL     1       7.707   5.124  12.671  0.00  0.00    +0.000 C 
ATOM     17  C   UNL     1       6.887   4.762  13.896  0.00  0.00    +0.000 C 
ENDBRANCH  15  17
ENDBRANCH  11  15
ENDBRANCH   1  13
TORSDOF 4
ENDMDL
MODEL 4
REMARK VINA RESULT:      -6.5      1.042      1.042
REMARK  Name = 
REMARK  5 active torsions:
REMARK  status: ('A' for Active; 'I' for Inactive)
REMARK    1  A    between atoms: C_1  and  C_2
REMARK    2  A    between atoms: C_2  and  O_3
REMARK    3  A    between atoms: O_3  and  C_4
REMARK    4  A    between atoms: N_6  and  N_7
REMARK    5  A    between atoms: C_8  and  C_9
REMARK                            x       y       z     vdW  Elec       q    Type
REMARK                         _______ _______ _______ _____ _____    ______ ____
ROOT
ATOM      1  N   UNL     1       4.846   4.085  17.254  0.00  0.00    +0.000 NA
ATOM      2  C   UNL     1       3.694   3.504  17.278  0.00  0.00    +0.000 C 
ENDROOT
BRANCH   2   3
ATOM      3  C   UNL     1       2.976   3.353  18.553  0.00  0.00    +0.000 A 
ATOM      4  C   UNL     1       3.623   2.816  19.675  0.00  0.00    +0.000 A 
ATOM      5  C   UNL     1       2.916   2.652  20.867  0.00  0.00    +0.000 A 
ATOM      6  C   UNL     1       1.577   3.026  20.927  0.00  0.00    +0.000 A 
ATOM      7  F   UNL     1       0.899   2.855  22.068  0.00  0.00    +0.000 F 
ATOM      8  C   UNL     1       0.930   3.568  19.822  0.00  0.00    +0.000 A 
ATOM      9  C   UNL     1       1.637   3.731  18.636  0.00  0.00    +0.000 A 
ATOM     10  F   UNL     1       1.010   4.252  17.573  0.00  0.00    +0.000 F 
ENDBRANCH   2   3
BRANCH   1  13
ATOM     11  C   UNL     1       5.919   5.404  15.614  0.00  0.00    +0.000 C 
ATOM     12  O   UNL     1       5.893   6.452  16.249  0.00  0.00    +0.000 OA
ATOM     13  N   UNL     1       5.456   4.184  16.046  0.00  0.00    +0.000 N 
ATOM     14  H   UNL     1       5.446   3.418  15.385  0.00  0.00    +0.000 HD
BRANCH  11  15
ATOM     15  O   UNL     1       6.344   5.290  14.329  0.00  0.00    +0.000 OA
BRANCH  15  17
ATOM     16  C   UNL     1       6.512   3.955  12.351  0.00  0.00    +0.000 C 
ATOM     17  C   UNL     1       6.506   3.940  13.869  0.00  0.00    +0.000 C 
ENDBRANCH  15  17
ENDBRANCH  11  15
ENDBRANCH   1  13
TORSDOF 4
ENDMDL
MODEL 5
REMARK VINA RESULT:      -6.4      1.737      2.230
REMARK  Name = 
REMARK  5 active torsions:
REMARK  status: ('A' for Active; 'I' for Inactive)
REMARK    1  A    between atoms: C_1  and  C_2
REMARK    2  A    between atoms: C_2  and  O_3
REMARK    3  A    between atoms: O_3  and  C_4
REMARK    4  A    between atoms: N_6  and  N_7
REMARK    5  A    between atoms: C_8  and  C_9
REMARK                            x       y       z     vdW  Elec       q    Type
REMARK                         _______ _______ _______ _____ _____    ______ ____
ROOT
ATOM      1  N   UNL     1       4.857   4.485  18.082  0.00  0.00    +0.000 NA
ATOM      2  C   UNL     1       3.858   3.676  17.968  0.00  0.00    +0.000 C 
ENDROOT
BRANCH   2   3
ATOM      3  C   UNL     1       3.017   3.379  19.139  0.00  0.00    +0.000 A 
ATOM      4  C   UNL     1       1.705   3.867  19.215  0.00  0.00    +0.000 A 
ATOM      5  C   UNL     1       0.934   3.601  20.348  0.00  0.00    +0.000 A 
ATOM      6  C   UNL     1       1.478   2.852  21.387  0.00  0.00    +0.000 A 
ATOM      7  F   UNL     1       0.740   2.609  22.476  0.00  0.00    +0.000 F 
ATOM      8  C   UNL     1       2.776   2.356  21.315  0.00  0.00    +0.000 A 
ATOM      9  C   UNL     1       3.541   2.622  20.185  0.00  0.00    +0.000 A 
ATOM     10  F   UNL     1       4.791   2.145  20.120  0.00  0.00    +0.000 F 
ENDBRANCH   2   3
BRANCH   1  13
ATOM     11  C   UNL     1       5.408   5.864  16.245  0.00  0.00    +0.000 C 
ATOM     12  O   UNL     1       4.658   6.786  16.542  0.00  0.00    +0.000 OA
ATOM     13  N   UNL     1       5.594   4.707  16.965  0.00  0.00    +0.000 N 
ATOM     14  H   UNL     1       6.169   3.981  16.558  0.00  0.00    +0.000 HD
BRANCH  11  15
ATOM     15  O   UNL     1       6.133   5.796  15.098  0.00  0.00    +0.000 OA
BRANCH  15  17
ATOM     16  C   UNL     1       6.235   3.909  13.632  0.00  0.00    +0.000 C 
ATOM     17  C   UNL     1       6.805   4.545  14.886  0.00  0.00    +0.000 C 
ENDBRANCH  15  17
ENDBRANCH  11  15
ENDBRANCH   1  13
TORSDOF 4
ENDMDL
MODEL 6
REMARK VINA RESULT:      -6.4      1.420      1.478
REMARK  Name = 
REMARK  5 active torsions:
REMARK  status: ('A' for Active; 'I' for Inactive)
REMARK    1  A    between atoms: C_1  and  C_2
REMARK    2  A    between atoms: C_2  and  O_3
REMARK    3  A    between atoms: O_3  and  C_4
REMARK    4  A    between atoms: N_6  and  N_7
REMARK    5  A    between atoms: C_8  and  C_9
REMARK                            x       y       z     vdW  Elec       q    Type
REMARK                         _______ _______ _______ _____ _____    ______ ____
ROOT
ATOM      1  N   UNL     1       5.746   4.291  17.854  0.00  0.00    +0.000 NA
ATOM      2  C   UNL     1       4.625   3.715  17.572  0.00  0.00    +0.000 C 
ENDROOT
BRANCH   2   3
ATOM      3  C   UNL     1       3.604   3.545  18.617  0.00  0.00    +0.000 A 
ATOM      4  C   UNL     1       3.487   4.480  19.656  0.00  0.00    +0.000 A 
ATOM      5  C   UNL     1       2.532   4.285  20.655  0.00  0.00    +0.000 A 
ATOM      6  C   UNL     1       1.707   3.165  20.606  0.00  0.00    +0.000 A 
ATOM      7  F   UNL     1       0.801   2.976  21.573  0.00  0.00    +0.000 F 
ATOM      8  C   UNL     1       1.810   2.239  19.574  0.00  0.00    +0.000 A 
ATOM      9  C   UNL     1       2.761   2.436  18.579  0.00  0.00    +0.000 A 
ATOM     10  F   UNL     1       2.860   1.540  17.588  0.00  0.00    +0.000 F 
ENDBRANCH   2   3
BRANCH   1  13
ATOM     11  C   UNL     1       6.843   5.629  16.247  0.00  0.00    +0.000 C 
ATOM     12  O   UNL     1       6.318   6.687  16.574  0.00  0.00    +0.000 OA
ATOM     13  N   UNL     1       6.645   4.408  16.845  0.00  0.00    +0.000 N 
ATOM     14  H   UNL     1       7.064   3.594  16.415  0.00  0.00    +0.000 HD
BRANCH  11  15
ATOM     15  O   UNL     1       7.662   5.473  15.174  0.00  0.00    +0.000 OA
BRANCH  15  17
ATOM     16  C   UNL     1       7.820   5.212  12.801  0.00  0.00    +0.000 C 
ATOM     17  C   UNL     1       7.059   4.811  14.052  0.00  0.00    +0.000 C 
ENDBRANCH  15  17
ENDBRANCH  11  15
ENDBRANCH   1  13
TORSDOF 4
ENDMDL
MODEL 7
REMARK VINA RESULT:      -6.3      3.267      3.947
REMARK  Name = 
REMARK  5 active torsions:
REMARK  status: ('A' for Active; 'I' for Inactive)
REMARK    1  A    between atoms: C_1  and  C_2
REMARK    2  A    between atoms: C_2  and  O_3
REMARK    3  A    between atoms: O_3  and  C_4
REMARK    4  A    between atoms: N_6  and  N_7
REMARK    5  A    between atoms: C_8  and  C_9
REMARK                            x       y       z     vdW  Elec       q    Type
REMARK                         _______ _______ _______ _____ _____    ______ ____
ROOT
ATOM      1  N   UNL     1       5.982   6.257  17.119  0.00  0.00    +0.000 NA
ATOM      2  C   UNL     1       4.741   6.397  17.445  0.00  0.00    +0.000 C 
ENDROOT
BRANCH   2   3
ATOM      3  C   UNL     1       3.892   5.209  17.629  0.00  0.00    +0.000 A 
ATOM      4  C   UNL     1       4.438   3.922  17.523  0.00  0.00    +0.000 A 
ATOM      5  C   UNL     1       3.610   2.808  17.670  0.00  0.00    +0.000 A 
ATOM      6  C   UNL     1       2.254   2.990  17.924  0.00  0.00    +0.000 A 
ATOM      7  F   UNL     1       1.462   1.919  18.053  0.00  0.00    +0.000 F 
ATOM      8  C   UNL     1       1.707   4.263  18.041  0.00  0.00    +0.000 A 
ATOM      9  C   UNL     1       2.534   5.371  17.894  0.00  0.00    +0.000 A 
ATOM     10  F   UNL     1       2.003   6.596  18.005  0.00  0.00    +0.000 F 
ENDBRANCH   2   3
BRANCH   1  13
ATOM     11  C   UNL     1       7.750   7.663  17.809  0.00  0.00    +0.000 C 
ATOM     12  O   UNL     1       8.160   6.932  18.703  0.00  0.00    +0.000 OA
ATOM     13  N   UNL     1       6.704   7.393  16.958  0.00  0.00    +0.000 N 
ATOM     14  H   UNL     1       6.404   8.125  16.327  0.00  0.00    +0.000 HD
BRANCH  11  15
ATOM     15  O   UNL     1       8.219   8.913  17.557  0.00  0.00    +0.000 OA
BRANCH  15  17
ATOM     16  C   UNL     1       9.385  10.892  18.224  0.00  0.00    +0.000 C 
ATOM     17  C   UNL     1       8.780   9.583  18.696  0.00  0.00    +0.000 C 
ENDBRANCH  15  17
ENDBRANCH  11  15
ENDBRANCH   1  13
TORSDOF 4
ENDMDL
MODEL 8
REMARK VINA RESULT:      -6.2      2.802      3.442
REMARK  Name = 
REMARK  5 active torsions:
REMARK  status: ('A' for Active; 'I' for Inactive)
REMARK    1  A    between atoms: C_1  and  C_2
REMARK    2  A    between atoms: C_2  and  O_3
REMARK    3  A    between atoms: O_3  and  C_4
REMARK    4  A    between atoms: N_6  and  N_7
REMARK    5  A    between atoms: C_8  and  C_9
REMARK                            x       y       z     vdW  Elec       q    Type
REMARK                         _______ _______ _______ _____ _____    ______ ____
ROOT
ATOM      1  N   UNL     1       5.363   5.476  18.320  0.00  0.00    +0.000 NA
ATOM      2  C   UNL     1       4.476   5.311  19.243  0.00  0.00    +0.000 C 
ENDROOT
BRANCH   2   3
ATOM      3  C   UNL     1       3.385   4.343  19.047  0.00  0.00    +0.000 A 
ATOM      4  C   UNL     1       3.417   3.442  17.972  0.00  0.00    +0.000 A 
ATOM      5  C   UNL     1       2.359   2.553  17.786  0.00  0.00    +0.000 A 
ATOM      6  C   UNL     1       1.285   2.569  18.671  0.00  0.00    +0.000 A 
ATOM      7  F   UNL     1       0.266   1.722  18.481  0.00  0.00    +0.000 F 
ATOM      8  C   UNL     1       1.250   3.452  19.745  0.00  0.00    +0.000 A 
ATOM      9  C   UNL     1       2.307   4.336  19.929  0.00  0.00    +0.000 A 
ATOM     10  F   UNL     1       2.269   5.187  20.963  0.00  0.00    +0.000 F 
ENDBRANCH   2   3
BRANCH   1  13
ATOM     11  C   UNL     1       7.274   6.661  17.595  0.00  0.00    +0.000 C 
ATOM     12  O   UNL     1       7.300   6.191  16.464  0.00  0.00    +0.000 OA
ATOM     13  N   UNL     1       6.336   6.390  18.563  0.00  0.00    +0.000 N 
ATOM     14  H   UNL     1       6.485   6.768  19.489  0.00  0.00    +0.000 HD
BRANCH  11  15
ATOM     15  O   UNL     1       8.226   7.480  18.113  0.00  0.00    +0.000 OA
BRANCH  15  17
ATOM     16  C   UNL     1       8.898   9.684  18.753  0.00  0.00    +0.000 C 
ATOM     17  C   UNL     1       8.067   8.867  17.781  0.00  0.00    +0.000 C 
ENDBRANCH  15  17
ENDBRANCH  11  15
ENDBRANCH   1  13
TORSDOF 4
ENDMDL
MODEL 9
REMARK VINA RESULT:      -6.2      5.192      7.210
REMARK  Name = 
REMARK  5 active torsions:
REMARK  status: ('A' for Active; 'I' for Inactive)
REMARK    1  A    between atoms: C_1  and  C_2
REMARK    2  A    between atoms: C_2  and  O_3
REMARK    3  A    between atoms: O_3  and  C_4
REMARK    4  A    between atoms: N_6  and  N_7
REMARK    5  A    between atoms: C_8  and  C_9
REMARK                            x       y       z     vdW  Elec       q    Type
REMARK                         _______ _______ _______ _____ _____    ______ ____
ROOT
ATOM      1  N   UNL     1       1.902   7.013  20.515  0.00  0.00    +0.000 NA
ATOM      2  C   UNL     1       1.481   5.817  20.755  0.00  0.00    +0.000 C 
ENDROOT
BRANCH   2   3
ATOM      3  C   UNL     1       1.749   4.738  19.791  0.00  0.00    +0.000 A 
ATOM      4  C   UNL     1       2.293   5.027  18.532  0.00  0.00    +0.000 A 
ATOM      5  C   UNL     1       2.510   3.994  17.620  0.00  0.00    +0.000 A 
ATOM      6  C   UNL     1       2.187   2.687  17.975  0.00  0.00    +0.000 A 
ATOM      7  F   UNL     1       2.386   1.701  17.093  0.00  0.00    +0.000 F 
ATOM      8  C   UNL     1       1.657   2.390  19.225  0.00  0.00    +0.000 A 
ATOM      9  C   UNL     1       1.442   3.422  20.132  0.00  0.00    +0.000 A 
ATOM     10  F   UNL     1       0.929   3.133  21.335  0.00  0.00    +0.000 F 
ENDBRANCH   2   3
BRANCH   1  13
ATOM     11  C   UNL     1       1.068   9.159  21.045  0.00  0.00    +0.000 C 
ATOM     12  O   UNL     1       0.744   9.461  19.902  0.00  0.00    +0.000 OA
ATOM     13  N   UNL     1       1.614   7.961  21.441  0.00  0.00    +0.000 N 
ATOM     14  H   UNL     1       1.928   7.876  22.399  0.00  0.00    +0.000 HD
BRANCH  11  15
ATOM     15  O   UNL     1       1.012   9.998  22.112  0.00  0.00    +0.000 OA
BRANCH  15  17
ATOM     16  C   UNL     1      -1.075  10.596  23.117  0.00  0.00    +0.000 C 
ATOM     17  C   UNL     1       0.079   9.610  23.131  0.00  0.00    +0.000 C 
ENDBRANCH  15  17
ENDBRANCH  11  15
ENDBRANCH   1  13
TORSDOF 4
ENDMDL
