MODEL 1
REMARK VINA RESULT:      -8.3      0.000      0.000
REMARK  Name = 
REMARK  19 active torsions:
REMARK  status: ('A' for Active; 'I' for Inactive)
REMARK    1  A    between atoms: C_1  and  C_2
REMARK    2  A    between atoms: C_2  and  C_3
REMARK    3  A    between atoms: C_3  and  C_4
REMARK    4  A    between atoms: C_4  and  C_5
REMARK    5  A    between atoms: C_5  and  C_6
REMARK    6  A    between atoms: C_6  and  C_7
REMARK    7  A    between atoms: C_7  and  C_8
REMARK    8  A    between atoms: C_7  and  O_9
REMARK    9  A    between atoms: C_7  and  C_10
REMARK   10  A    between atoms: C_10  and  C_11
REMARK   11  A    between atoms: C_11  and  O_13
REMARK   12  A    between atoms: O_13  and  C_14
REMARK   13  A    between atoms: C_14  and  C_15
REMARK   14  A    between atoms: C_14  and  C_20
REMARK   15  A    between atoms: C_15  and  C_16
REMARK   16  A    between atoms: C_17  and  C_18
REMARK   17  A    between atoms: C_17  and  C_19
REMARK   18  A    between atoms: C_25  and  O_26
REMARK   19  A    between atoms: C_29  and  O_30
REMARK                            x       y       z     vdW  Elec       q    Type
REMARK                         _______ _______ _______ _____ _____    ______ ____
ROOT
ATOM      1  C   UNL     1       5.785   4.109  16.143  0.00  0.00    +0.000 C 
ENDROOT
BRANCH   1   2
ATOM      2  C   UNL     1       4.747   4.401  17.225  0.00  0.00    +0.000 C 
ATOM      3  C   UNL     1       4.405   5.627  17.650  0.00  0.00    +0.000 C 
ATOM      4  C   UNL     1       3.317   5.887  18.602  0.00  0.00    +0.000 C 
ATOM      5  O   UNL     1       3.043   7.037  18.936  0.00  0.00    +0.000 OA
ATOM      6  C   UNL     1       2.563   4.750  19.123  0.00  0.00    +0.000 A 
ATOM      7  C   UNL     1       1.499   4.971  20.014  0.00  0.00    +0.000 A 
ATOM      8  C   UNL     1       0.771   3.904  20.525  0.00  0.00    +0.000 A 
ATOM      9  C   UNL     1       1.111   2.604  20.165  0.00  0.00    +0.000 A 
ATOM     10  C   UNL     1       2.172   2.381  19.282  0.00  0.00    +0.000 A 
ATOM     11  C   UNL     1       2.894   3.451  18.734  0.00  0.00    +0.000 A 
ATOM     12  C   UNL     1       3.969   3.233  17.724  0.00  0.00    +0.000 C 
ATOM     13  O   UNL     1       4.179   2.121  17.271  0.00  0.00    +0.000 OA
BRANCH   7  14
ATOM     14  O   UNL     1       1.108   6.217  20.424  0.00  0.00    +0.000 OA
ATOM     15  H   UNL     1       0.265   6.447  19.971  0.00  0.00    +0.000 HD
ENDBRANCH   7  14
BRANCH  10  16
ATOM     16  O   UNL     1       2.487   1.090  18.974  0.00  0.00    +0.000 OA
ATOM     17  H   UNL     1       3.035   1.040  18.175  0.00  0.00    +0.000 HD
ENDBRANCH  10  16
ENDBRANCH   1   2
BRANCH   1  18
ATOM     18  O   UNL     1       7.000   4.894  16.300  0.00  0.00    +0.000 OA
BRANCH  18  19
ATOM     19  C   UNL     1       7.653   4.785  17.488  0.00  0.00    +0.000 C 
ATOM     20  O   UNL     1       8.461   3.902  17.773  0.00  0.00    +0.000 OA
BRANCH  19  21
ATOM     21  C   UNL     1       7.569   6.032  18.345  0.00  0.00    +0.000 C 
BRANCH  21  22
ATOM     22  C   UNL     1       7.639   7.428  17.719  0.00  0.00    +0.000 C 
ATOM     23  C   UNL     1       6.253   8.067  17.579  0.00  0.00    +0.000 C 
BRANCH  22  24
ATOM     24  O   UNL     1       8.245   7.341  16.428  0.00  0.00    +0.000 OA
ATOM     25  H   UNL     1       9.188   7.120  16.547  0.00  0.00    +0.000 HD
ENDBRANCH  22  24
BRANCH  22  26
ATOM     26  C   UNL     1       8.524   8.372  18.593  0.00  0.00    +0.000 C 
BRANCH  26  27
ATOM     27  C   UNL     1       8.617   9.809  18.061  0.00  0.00    +0.000 C 
BRANCH  27  28
ATOM     28  C   UNL     1       9.474  10.722  18.942  0.00  0.00    +0.000 C 
BRANCH  28  29
ATOM     29  C   UNL     1      10.348  11.608  18.050  0.00  0.00    +0.000 C 
BRANCH  29  31
ATOM     30  C   UNL     1      11.849  11.991  20.015  0.00  0.00    +0.000 C 
ATOM     31  C   UNL     1      11.797  11.688  18.524  0.00  0.00    +0.000 C 
ENDBRANCH  29  31
ENDBRANCH  28  29
ENDBRANCH  27  28
ENDBRANCH  26  27
ENDBRANCH  22  26
ENDBRANCH  21  22
ENDBRANCH  19  21
ENDBRANCH  18  19
ENDBRANCH   1  18
BRANCH   1  32
ATOM     32  C   UNL     1       5.291   4.359  14.682  0.00  0.00    +0.000 C 
BRANCH  32  33
ATOM     33  C   UNL     1       6.237   3.864  13.605  0.00  0.00    +0.000 C 
ATOM     34  C   UNL     1       5.907   3.387  12.389  0.00  0.00    +0.000 C 
ATOM     35  C   UNL     1       4.501   3.295  11.868  0.00  0.00    +0.000 C 
ATOM     36  C   UNL     1       6.973   2.843  11.473  0.00  0.00    +0.000 C 
ENDBRANCH  32  33
ENDBRANCH   1  32
TORSDOF 15
ENDMDL
MODEL 2
REMARK VINA RESULT:      -8.0      3.815      7.566
REMARK  Name = 
REMARK  19 active torsions:
REMARK  status: ('A' for Active; 'I' for Inactive)
REMARK    1  A    between atoms: C_1  and  C_2
REMARK    2  A    between atoms: C_2  and  C_3
REMARK    3  A    between atoms: C_3  and  C_4
REMARK    4  A    between atoms: C_4  and  C_5
REMARK    5  A    between atoms: C_5  and  C_6
REMARK    6  A    between atoms: C_6  and  C_7
REMARK    7  A    between atoms: C_7  and  C_8
REMARK    8  A    between atoms: C_7  and  O_9
REMARK    9  A    between atoms: C_7  and  C_10
REMARK   10  A    between atoms: C_10  and  C_11
REMARK   11  A    between atoms: C_11  and  O_13
REMARK   12  A    between atoms: O_13  and  C_14
REMARK   13  A    between atoms: C_14  and  C_15
REMARK   14  A    between atoms: C_14  and  C_20
REMARK   15  A    between atoms: C_15  and  C_16
REMARK   16  A    between atoms: C_17  and  C_18
REMARK   17  A    between atoms: C_17  and  C_19
REMARK   18  A    between atoms: C_25  and  O_26
REMARK   19  A    between atoms: C_29  and  O_30
REMARK                            x       y       z     vdW  Elec       q    Type
REMARK                         _______ _______ _______ _____ _____    ______ ____
ROOT
ATOM      1  C   UNL     1       2.286   7.004  19.839  0.00  0.00    +0.000 C 
ENDROOT
BRANCH   1   2
ATOM      2  C   UNL     1       1.459   8.288  19.866  0.00  0.00    +0.000 C 
ATOM      3  C   UNL     1       1.015   8.938  18.779  0.00  0.00    +0.000 C 
ATOM      4  C   UNL     1       0.118  10.101  18.834  0.00  0.00    +0.000 C 
ATOM      5  O   UNL     1      -0.266  10.640  17.798  0.00  0.00    +0.000 OA
ATOM      6  C   UNL     1      -0.316  10.584  20.142  0.00  0.00    +0.000 A 
ATOM      7  C   UNL     1      -1.196  11.676  20.222  0.00  0.00    +0.000 A 
ATOM      8  C   UNL     1      -1.618  12.154  21.457  0.00  0.00    +0.000 A 
ATOM      9  C   UNL     1      -1.152  11.556  22.622  0.00  0.00    +0.000 A 
ATOM     10  C   UNL     1      -0.273  10.471  22.546  0.00  0.00    +0.000 A 
ATOM     11  C   UNL     1       0.137   9.959  21.305  0.00  0.00    +0.000 A 
ATOM     12  C   UNL     1       1.001   8.749  21.207  0.00  0.00    +0.000 C 
ATOM     13  O   UNL     1       1.293   8.111  22.204  0.00  0.00    +0.000 OA
BRANCH   7  14
ATOM     14  O   UNL     1      -1.693  12.324  19.124  0.00  0.00    +0.000 OA
ATOM     15  H   UNL     1      -0.956  12.805  18.683  0.00  0.00    +0.000 HD
ENDBRANCH   7  14
BRANCH  10  16
ATOM     16  O   UNL     1       0.179   9.930  23.713  0.00  0.00    +0.000 OA
ATOM     17  H   UNL     1       1.101  10.179  23.885  0.00  0.00    +0.000 HD
ENDBRANCH  10  16
ENDBRANCH   1   2
BRANCH   1  18
ATOM     18  O   UNL     1       2.452   6.469  18.497  0.00  0.00    +0.000 OA
BRANCH  18  19
ATOM     19  C   UNL     1       3.696   6.551  17.952  0.00  0.00    +0.000 C 
ATOM     20  O   UNL     1       4.076   7.439  17.190  0.00  0.00    +0.000 OA
BRANCH  19  21
ATOM     21  C   UNL     1       4.711   5.640  18.611  0.00  0.00    +0.000 C 
BRANCH  21  22
ATOM     22  C   UNL     1       5.128   4.318  17.960  0.00  0.00    +0.000 C 
ATOM     23  C   UNL     1       4.009   3.721  17.100  0.00  0.00    +0.000 C 
BRANCH  22  24
ATOM     24  O   UNL     1       5.486   3.379  18.976  0.00  0.00    +0.000 OA
ATOM     25  H   UNL     1       6.358   3.003  18.751  0.00  0.00    +0.000 HD
ENDBRANCH  22  24
BRANCH  22  26
ATOM     26  C   UNL     1       6.380   4.530  17.051  0.00  0.00    +0.000 C 
BRANCH  26  27
ATOM     27  C   UNL     1       6.048   5.019  15.636  0.00  0.00    +0.000 C 
BRANCH  27  28
ATOM     28  C   UNL     1       6.512   4.054  14.541  0.00  0.00    +0.000 C 
BRANCH  28  29
ATOM     29  C   UNL     1       5.366   3.821  13.553  0.00  0.00    +0.000 C 
BRANCH  29  31
ATOM     30  C   UNL     1       7.157   3.933  11.810  0.00  0.00    +0.000 C 
ATOM     31  C   UNL     1       5.839   3.283  12.206  0.00  0.00    +0.000 C 
ENDBRANCH  29  31
ENDBRANCH  28  29
ENDBRANCH  27  28
ENDBRANCH  26  27
ENDBRANCH  22  26
ENDBRANCH  21  22
ENDBRANCH  19  21
ENDBRANCH  18  19
ENDBRANCH   1  18
BRANCH   1  32
ATOM     32  C   UNL     1       1.706   5.838  20.704  0.00  0.00    +0.000 C 
BRANCH  32  33
ATOM     33  C   UNL     1       1.250   4.631  19.906  0.00  0.00    +0.000 C 
ATOM     34  C   UNL     1       1.607   3.346  20.099  0.00  0.00    +0.000 C 
ATOM     35  C   UNL     1       2.521   2.876  21.195  0.00  0.00    +0.000 C 
ATOM     36  C   UNL     1       1.136   2.277  19.148  0.00  0.00    +0.000 C 
ENDBRANCH  32  33
ENDBRANCH   1  32
TORSDOF 15
ENDMDL
MODEL 3
REMARK VINA RESULT:      -8.0      3.664      7.161
REMARK  Name = 
REMARK  19 active torsions:
REMARK  status: ('A' for Active; 'I' for Inactive)
REMARK    1  A    between atoms: C_1  and  C_2
REMARK    2  A    between atoms: C_2  and  C_3
REMARK    3  A    between atoms: C_3  and  C_4
REMARK    4  A    between atoms: C_4  and  C_5
REMARK    5  A    between atoms: C_5  and  C_6
REMARK    6  A    between atoms: C_6  and  C_7
REMARK    7  A    between atoms: C_7  and  C_8
REMARK    8  A    between atoms: C_7  and  O_9
REMARK    9  A    between atoms: C_7  and  C_10
REMARK   10  A    between atoms: C_10  and  C_11
REMARK   11  A    between atoms: C_11  and  O_13
REMARK   12  A    between atoms: O_13  and  C_14
REMARK   13  A    between atoms: C_14  and  C_15
REMARK   14  A    between atoms: C_14  and  C_20
REMARK   15  A    between atoms: C_15  and  C_16
REMARK   16  A    between atoms: C_17  and  C_18
REMARK   17  A    between atoms: C_17  and  C_19
REMARK   18  A    between atoms: C_25  and  O_26
REMARK   19  A    between atoms: C_29  and  O_30
REMARK                            x       y       z     vdW  Elec       q    Type
REMARK                         _______ _______ _______ _____ _____    ______ ____
ROOT
ATOM      1  C   UNL     1       3.195   6.027  18.817  0.00  0.00    +0.000 C 
ENDROOT
BRANCH   1   2
ATOM      2  C   UNL     1       2.591   7.427  18.924  0.00  0.00    +0.000 C 
ATOM      3  C   UNL     1       2.703   8.384  17.990  0.00  0.00    +0.000 C 
ATOM      4  C   UNL     1       2.010   9.678  18.061  0.00  0.00    +0.000 C 
ATOM      5  O   UNL     1       2.142  10.505  17.162  0.00  0.00    +0.000 OA
ATOM      6  C   UNL     1       1.152   9.945  19.213  0.00  0.00    +0.000 A 
ATOM      7  C   UNL     1       0.456  11.163  19.293  0.00  0.00    +0.000 A 
ATOM      8  C   UNL     1      -0.362  11.440  20.382  0.00  0.00    +0.000 A 
ATOM      9  C   UNL     1      -0.478  10.510  21.409  0.00  0.00    +0.000 A 
ATOM     10  C   UNL     1       0.217   9.298  21.334  0.00  0.00    +0.000 A 
ATOM     11  C   UNL     1       1.022   8.994  20.225  0.00  0.00    +0.000 A 
ATOM     12  C   UNL     1       1.697   7.672  20.090  0.00  0.00    +0.000 C 
ATOM     13  O   UNL     1       1.485   6.780  20.894  0.00  0.00    +0.000 OA
BRANCH   7  14
ATOM     14  O   UNL     1       0.524  12.133  18.330  0.00  0.00    +0.000 OA
ATOM     15  H   UNL     1       1.212  12.787  18.590  0.00  0.00    +0.000 HD
ENDBRANCH   7  14
BRANCH  10  16
ATOM     16  O   UNL     1       0.095   8.425  22.374  0.00  0.00    +0.000 OA
ATOM     17  H   UNL     1      -0.554   8.738  23.025  0.00  0.00    +0.000 HD
ENDBRANCH  10  16
ENDBRANCH   1   2
BRANCH   1  18
ATOM     18  O   UNL     1       4.577   6.043  18.365  0.00  0.00    +0.000 OA
BRANCH  18  19
ATOM     19  C   UNL     1       5.162   4.837  18.132  0.00  0.00    +0.000 C 
ATOM     20  O   UNL     1       5.555   4.062  19.004  0.00  0.00    +0.000 OA
BRANCH  19  21
ATOM     21  C   UNL     1       5.002   4.348  16.707  0.00  0.00    +0.000 C 
BRANCH  21  22
ATOM     22  C   UNL     1       5.714   5.047  15.547  0.00  0.00    +0.000 C 
ATOM     23  C   UNL     1       7.238   4.906  15.636  0.00  0.00    +0.000 C 
BRANCH  22  24
ATOM     24  O   UNL     1       5.375   6.435  15.546  0.00  0.00    +0.000 OA
ATOM     25  H   UNL     1       5.533   6.788  14.650  0.00  0.00    +0.000 HD
ENDBRANCH  22  24
BRANCH  22  26
ATOM     26  C   UNL     1       5.249   4.447  14.182  0.00  0.00    +0.000 C 
BRANCH  26  27
ATOM     27  C   UNL     1       6.401   4.069  13.241  0.00  0.00    +0.000 C 
BRANCH  27  28
ATOM     28  C   UNL     1       6.011   3.010  12.207  0.00  0.00    +0.000 C 
BRANCH  28  29
ATOM     29  C   UNL     1       4.524   3.155  11.872  0.00  0.00    +0.000 C 
BRANCH  29  31
ATOM     30  C   UNL     1       2.911   3.516   9.994  0.00  0.00    +0.000 C 
ATOM     31  C   UNL     1       4.276   3.888  10.557  0.00  0.00    +0.000 C 
ENDBRANCH  29  31
ENDBRANCH  28  29
ENDBRANCH  27  28
ENDBRANCH  26  27
ENDBRANCH  22  26
ENDBRANCH  21  22
ENDBRANCH  19  21
ENDBRANCH  18  19
ENDBRANCH   1  18
BRANCH   1  32
ATOM     32  C   UNL     1       2.432   5.061  17.854  0.00  0.00    +0.000 C 
BRANCH  32  33
ATOM     33  C   UNL     1       1.498   4.089  18.549  0.00  0.00    +0.000 C 
ATOM     34  C   UNL     1       1.578   2.744  18.552  0.00  0.00    +0.000 C 
ATOM     35  C   UNL     1       2.662   1.959  17.870  0.00  0.00    +0.000 C 
ATOM     36  C   UNL     1       0.504   1.922  19.215  0.00  0.00    +0.000 C 
ENDBRANCH  32  33
ENDBRANCH   1  32
TORSDOF 15
ENDMDL
MODEL 4
REMARK VINA RESULT:      -7.9      3.492      6.224
REMARK  Name = 
REMARK  19 active torsions:
REMARK  status: ('A' for Active; 'I' for Inactive)
REMARK    1  A    between atoms: C_1  and  C_2
REMARK    2  A    between atoms: C_2  and  C_3
REMARK    3  A    between atoms: C_3  and  C_4
REMARK    4  A    between atoms: C_4  and  C_5
REMARK    5  A    between atoms: C_5  and  C_6
REMARK    6  A    between atoms: C_6  and  C_7
REMARK    7  A    between atoms: C_7  and  C_8
REMARK    8  A    between atoms: C_7  and  O_9
REMARK    9  A    between atoms: C_7  and  C_10
REMARK   10  A    between atoms: C_10  and  C_11
REMARK   11  A    between atoms: C_11  and  O_13
REMARK   12  A    between atoms: O_13  and  C_14
REMARK   13  A    between atoms: C_14  and  C_15
REMARK   14  A    between atoms: C_14  and  C_20
REMARK   15  A    between atoms: C_15  and  C_16
REMARK   16  A    between atoms: C_17  and  C_18
REMARK   17  A    between atoms: C_17  and  C_19
REMARK   18  A    between atoms: C_25  and  O_26
REMARK   19  A    between atoms: C_29  and  O_30
REMARK                            x       y       z     vdW  Elec       q    Type
REMARK                         _______ _______ _______ _____ _____    ______ ____
ROOT
ATOM      1  C   UNL     1       2.468   6.343  20.277  0.00  0.00    +0.000 C 
ENDROOT
BRANCH   1   2
ATOM      2  C   UNL     1       2.034   7.770  19.945  0.00  0.00    +0.000 C 
ATOM      3  C   UNL     1       2.113   8.333  18.730  0.00  0.00    +0.000 C 
ATOM      4  C   UNL     1       1.575   9.662  18.410  0.00  0.00    +0.000 C 
ATOM      5  O   UNL     1       1.665  10.113  17.271  0.00  0.00    +0.000 OA
ATOM      6  C   UNL     1       0.919  10.421  19.472  0.00  0.00    +0.000 A 
ATOM      7  C   UNL     1       0.372  11.683  19.188  0.00  0.00    +0.000 A 
ATOM      8  C   UNL     1      -0.252  12.424  20.184  0.00  0.00    +0.000 A 
ATOM      9  C   UNL     1      -0.320  11.918  21.478  0.00  0.00    +0.000 A 
ATOM     10  C   UNL     1       0.228  10.664  21.765  0.00  0.00    +0.000 A 
ATOM     11  C   UNL     1       0.833   9.892  20.761  0.00  0.00    +0.000 A 
ATOM     12  C   UNL     1       1.342   8.518  21.032  0.00  0.00    +0.000 C 
ATOM     13  O   UNL     1       1.153   7.987  22.114  0.00  0.00    +0.000 OA
BRANCH   7  14
ATOM     14  O   UNL     1       0.404  12.255  17.945  0.00  0.00    +0.000 OA
ATOM     15  H   UNL     1      -0.405  11.984  17.453  0.00  0.00    +0.000 HD
ENDBRANCH   7  14
BRANCH  10  16
ATOM     16  O   UNL     1       0.162  10.216  23.051  0.00  0.00    +0.000 OA
ATOM     17  H   UNL     1       0.758  10.716  23.631  0.00  0.00    +0.000 HD
ENDBRANCH  10  16
ENDBRANCH   1   2
BRANCH   1  18
ATOM     18  O   UNL     1       3.068   5.658  19.143  0.00  0.00    +0.000 OA
BRANCH  18  19
ATOM     19  C   UNL     1       4.275   5.067  19.350  0.00  0.00    +0.000 C 
ATOM     20  O   UNL     1       4.438   3.909  19.732  0.00  0.00    +0.000 OA
BRANCH  19  21
ATOM     21  C   UNL     1       5.439   5.834  18.756  0.00  0.00    +0.000 C 
BRANCH  21  22
ATOM     22  C   UNL     1       6.238   5.271  17.578  0.00  0.00    +0.000 C 
ATOM     23  C   UNL     1       5.335   4.878  16.404  0.00  0.00    +0.000 C 
BRANCH  22  24
ATOM     24  O   UNL     1       6.972   4.122  18.006  0.00  0.00    +0.000 OA
ATOM     25  H   UNL     1       7.922   4.296  17.865  0.00  0.00    +0.000 HD
ENDBRANCH  22  24
BRANCH  22  26
ATOM     26  C   UNL     1       7.270   6.326  17.067  0.00  0.00    +0.000 C 
BRANCH  26  27
ATOM     27  C   UNL     1       7.797   7.264  18.161  0.00  0.00    +0.000 C 
BRANCH  27  28
ATOM     28  C   UNL     1       8.120   8.669  17.644  0.00  0.00    +0.000 C 
BRANCH  28  29
ATOM     29  C   UNL     1       8.825   9.463  18.747  0.00  0.00    +0.000 C 
BRANCH  29  31
ATOM     30  C   UNL     1      10.500  11.319  18.828  0.00  0.00    +0.000 C 
ATOM     31  C   UNL     1       9.114  10.908  18.351  0.00  0.00    +0.000 C 
ENDBRANCH  29  31
ENDBRANCH  28  29
ENDBRANCH  27  28
ENDBRANCH  26  27
ENDBRANCH  22  26
ENDBRANCH  21  22
ENDBRANCH  19  21
ENDBRANCH  18  19
ENDBRANCH   1  18
BRANCH   1  32
ATOM     32  C   UNL     1       1.318   5.415  20.788  0.00  0.00    +0.000 C 
BRANCH  32  33
ATOM     33  C   UNL     1       0.972   4.271  19.853  0.00  0.00    +0.000 C 
ATOM     34  C   UNL     1       1.117   2.954  20.092  0.00  0.00    +0.000 C 
ATOM     35  C   UNL     1       1.633   2.378  21.381  0.00  0.00    +0.000 C 
ATOM     36  C   UNL     1       0.815   1.949  19.011  0.00  0.00    +0.000 C 
ENDBRANCH  32  33
ENDBRANCH   1  32
TORSDOF 15
ENDMDL
MODEL 5
REMARK VINA RESULT:      -7.8      1.245      1.861
REMARK  Name = 
REMARK  19 active torsions:
REMARK  status: ('A' for Active; 'I' for Inactive)
REMARK    1  A    between atoms: C_1  and  C_2
REMARK    2  A    between atoms: C_2  and  C_3
REMARK    3  A    between atoms: C_3  and  C_4
REMARK    4  A    between atoms: C_4  and  C_5
REMARK    5  A    between atoms: C_5  and  C_6
REMARK    6  A    between atoms: C_6  and  C_7
REMARK    7  A    between atoms: C_7  and  C_8
REMARK    8  A    between atoms: C_7  and  O_9
REMARK    9  A    between atoms: C_7  and  C_10
REMARK   10  A    between atoms: C_10  and  C_11
REMARK   11  A    between atoms: C_11  and  O_13
REMARK   12  A    between atoms: O_13  and  C_14
REMARK   13  A    between atoms: C_14  and  C_15
REMARK   14  A    between atoms: C_14  and  C_20
REMARK   15  A    between atoms: C_15  and  C_16
REMARK   16  A    between atoms: C_17  and  C_18
REMARK   17  A    between atoms: C_17  and  C_19
REMARK   18  A    between atoms: C_25  and  O_26
REMARK   19  A    between atoms: C_29  and  O_30
REMARK                            x       y       z     vdW  Elec       q    Type
REMARK                         _______ _______ _______ _____ _____    ______ ____
ROOT
ATOM      1  C   UNL     1       5.276   3.840  15.666  0.00  0.00    +0.000 C 
ENDROOT
BRANCH   1   2
ATOM      2  C   UNL     1       4.560   4.668  16.732  0.00  0.00    +0.000 C 
ATOM      3  C   UNL     1       4.410   6.001  16.696  0.00  0.00    +0.000 C 
ATOM      4  C   UNL     1       3.611   6.758  17.669  0.00  0.00    +0.000 C 
ATOM      5  O   UNL     1       3.500   7.978  17.569  0.00  0.00    +0.000 OA
ATOM      6  C   UNL     1       2.942   6.025  18.741  0.00  0.00    +0.000 A 
ATOM      7  C   UNL     1       2.149   6.721  19.668  0.00  0.00    +0.000 A 
ATOM      8  C   UNL     1       1.508   6.044  20.699  0.00  0.00    +0.000 A 
ATOM      9  C   UNL     1       1.666   4.668  20.821  0.00  0.00    +0.000 A 
ATOM     10  C   UNL     1       2.458   3.973  19.901  0.00  0.00    +0.000 A 
ATOM     11  C   UNL     1       3.086   4.641  18.839  0.00  0.00    +0.000 A 
ATOM     12  C   UNL     1       3.860   3.902  17.801  0.00  0.00    +0.000 C 
ATOM     13  O   UNL     1       3.883   2.683  17.792  0.00  0.00    +0.000 OA
BRANCH   7  14
ATOM     14  O   UNL     1       1.950   8.074  19.622  0.00  0.00    +0.000 OA
ATOM     15  H   UNL     1       2.774   8.523  19.920  0.00  0.00    +0.000 HD
ENDBRANCH   7  14
BRANCH  10  16
ATOM     16  O   UNL     1       2.607   2.629  20.072  0.00  0.00    +0.000 OA
ATOM     17  H   UNL     1       1.755   2.197  20.244  0.00  0.00    +0.000 HD
ENDBRANCH  10  16
ENDBRANCH   1   2
BRANCH   1  18
ATOM     18  O   UNL     1       6.655   3.540  16.018  0.00  0.00    +0.000 OA
BRANCH  18  19
ATOM     19  C   UNL     1       7.439   4.589  16.383  0.00  0.00    +0.000 C 
ATOM     20  O   UNL     1       7.535   5.648  15.765  0.00  0.00    +0.000 OA
BRANCH  19  21
ATOM     21  C   UNL     1       7.953   4.500  17.806  0.00  0.00    +0.000 C 
BRANCH  21  22
ATOM     22  C   UNL     1       7.554   5.539  18.857  0.00  0.00    +0.000 C 
ATOM     23  C   UNL     1       8.588   5.647  19.983  0.00  0.00    +0.000 C 
BRANCH  22  24
ATOM     24  O   UNL     1       6.289   5.185  19.420  0.00  0.00    +0.000 OA
ATOM     25  H   UNL     1       5.668   5.922  19.264  0.00  0.00    +0.000 HD
ENDBRANCH  22  24
BRANCH  22  26
ATOM     26  C   UNL     1       7.401   6.947  18.200  0.00  0.00    +0.000 C 
BRANCH  26  27
ATOM     27  C   UNL     1       8.426   7.978  18.688  0.00  0.00    +0.000 C 
BRANCH  27  28
ATOM     28  C   UNL     1       8.258   9.352  18.032  0.00  0.00    +0.000 C 
BRANCH  28  29
ATOM     29  C   UNL     1       9.475  10.220  18.358  0.00  0.00    +0.000 C 
BRANCH  29  31
ATOM     30  C   UNL     1      10.700  11.494  20.130  0.00  0.00    +0.000 C 
ATOM     31  C   UNL     1       9.345  10.955  19.689  0.00  0.00    +0.000 C 
ENDBRANCH  29  31
ENDBRANCH  28  29
ENDBRANCH  27  28
ENDBRANCH  26  27
ENDBRANCH  22  26
ENDBRANCH  21  22
ENDBRANCH  19  21
ENDBRANCH  18  19
ENDBRANCH   1  18
BRANCH   1  32
ATOM     32  C   UNL     1       5.322   4.500  14.250  0.00  0.00    +0.000 C 
BRANCH  32  33
ATOM     33  C   UNL     1       6.174   3.758  13.238  0.00  0.00    +0.000 C 
ATOM     34  C   UNL     1       5.761   3.185  12.091  0.00  0.00    +0.000 C 
ATOM     35  C   UNL     1       4.345   3.216  11.591  0.00  0.00    +0.000 C 
ATOM     36  C   UNL     1       6.728   2.398  11.245  0.00  0.00    +0.000 C 
ENDBRANCH  32  33
ENDBRANCH   1  32
TORSDOF 15
ENDMDL
MODEL 6
REMARK VINA RESULT:      -7.8      3.445      7.054
REMARK  Name = 
REMARK  19 active torsions:
REMARK  status: ('A' for Active; 'I' for Inactive)
REMARK    1  A    between atoms: C_1  and  C_2
REMARK    2  A    between atoms: C_2  and  C_3
REMARK    3  A    between atoms: C_3  and  C_4
REMARK    4  A    between atoms: C_4  and  C_5
REMARK    5  A    between atoms: C_5  and  C_6
REMARK    6  A    between atoms: C_6  and  C_7
REMARK    7  A    between atoms: C_7  and  C_8
REMARK    8  A    between atoms: C_7  and  O_9
REMARK    9  A    between atoms: C_7  and  C_10
REMARK   10  A    between atoms: C_10  and  C_11
REMARK   11  A    between atoms: C_11  and  O_13
REMARK   12  A    between atoms: O_13  and  C_14
REMARK   13  A    between atoms: C_14  and  C_15
REMARK   14  A    between atoms: C_14  and  C_20
REMARK   15  A    between atoms: C_15  and  C_16
REMARK   16  A    between atoms: C_17  and  C_18
REMARK   17  A    between atoms: C_17  and  C_19
REMARK   18  A    between atoms: C_25  and  O_26
REMARK   19  A    between atoms: C_29  and  O_30
REMARK                            x       y       z     vdW  Elec       q    Type
REMARK                         _______ _______ _______ _____ _____    ______ ____
ROOT
ATOM      1  C   UNL     1       2.619   6.521  18.753  0.00  0.00    +0.000 C 
ENDROOT
BRANCH   1   2
ATOM      2  C   UNL     1       2.197   7.972  18.976  0.00  0.00    +0.000 C 
ATOM      3  C   UNL     1       2.350   8.962  18.083  0.00  0.00    +0.000 C 
ATOM      4  C   UNL     1       1.824  10.321  18.273  0.00  0.00    +0.000 C 
ATOM      5  O   UNL     1       1.984  11.177  17.407  0.00  0.00    +0.000 OA
ATOM      6  C   UNL     1       1.096  10.619  19.504  0.00  0.00    +0.000 A 
ATOM      7  C   UNL     1       0.559  11.902  19.699  0.00  0.00    +0.000 A 
ATOM      8  C   UNL     1      -0.134  12.209  20.864  0.00  0.00    +0.000 A 
ATOM      9  C   UNL     1      -0.281  11.241  21.852  0.00  0.00    +0.000 A 
ATOM     10  C   UNL     1       0.256   9.964  21.662  0.00  0.00    +0.000 A 
ATOM     11  C   UNL     1       0.931   9.633  20.477  0.00  0.00    +0.000 A 
ATOM     12  C   UNL     1       1.431   8.252  20.223  0.00  0.00    +0.000 C 
ATOM     13  O   UNL     1       1.177   7.346  20.999  0.00  0.00    +0.000 OA
BRANCH   7  14
ATOM     14  O   UNL     1       0.667  12.911  18.781  0.00  0.00    +0.000 OA
ATOM     15  H   UNL     1       0.423  13.760  19.217  0.00  0.00    +0.000 HD
ENDBRANCH   7  14
BRANCH  10  16
ATOM     16  O   UNL     1       0.111   9.053  22.666  0.00  0.00    +0.000 OA
ATOM     17  H   UNL     1       0.558   8.218  22.454  0.00  0.00    +0.000 HD
ENDBRANCH  10  16
ENDBRANCH   1   2
BRANCH   1  18
ATOM     18  O   UNL     1       3.890   6.404  18.055  0.00  0.00    +0.000 OA
BRANCH  18  19
ATOM     19  C   UNL     1       4.833   5.607  18.623  0.00  0.00    +0.000 C 
ATOM     20  O   UNL     1       4.810   5.203  19.785  0.00  0.00    +0.000 OA
BRANCH  19  21
ATOM     21  C   UNL     1       5.770   4.963  17.622  0.00  0.00    +0.000 C 
BRANCH  21  22
ATOM     22  C   UNL     1       6.530   5.806  16.594  0.00  0.00    +0.000 C 
ATOM     23  C   UNL     1       7.474   6.813  17.260  0.00  0.00    +0.000 C 
BRANCH  22  24
ATOM     24  O   UNL     1       5.597   6.513  15.775  0.00  0.00    +0.000 OA
ATOM     25  H   UNL     1       5.882   6.428  14.845  0.00  0.00    +0.000 HD
ENDBRANCH  22  24
BRANCH  22  26
ATOM     26  C   UNL     1       7.379   4.888  15.659  0.00  0.00    +0.000 C 
BRANCH  26  27
ATOM     27  C   UNL     1       6.682   4.525  14.341  0.00  0.00    +0.000 C 
BRANCH  27  28
ATOM     28  C   UNL     1       7.525   4.852  13.105  0.00  0.00    +0.000 C 
BRANCH  28  29
ATOM     29  C   UNL     1       6.970   4.089  11.899  0.00  0.00    +0.000 C 
BRANCH  29  31
ATOM     30  C   UNL     1       5.790   1.937  11.412  0.00  0.00    +0.000 C 
ATOM     31  C   UNL     1       5.773   3.210  12.248  0.00  0.00    +0.000 C 
ENDBRANCH  29  31
ENDBRANCH  28  29
ENDBRANCH  27  28
ENDBRANCH  26  27
ENDBRANCH  22  26
ENDBRANCH  21  22
ENDBRANCH  19  21
ENDBRANCH  18  19
ENDBRANCH   1  18
BRANCH   1  32
ATOM     32  C   UNL     1       1.596   5.663  17.941  0.00  0.00    +0.000 C 
BRANCH  32  33
ATOM     33  C   UNL     1       1.787   4.164  18.074  0.00  0.00    +0.000 C 
ATOM     34  C   UNL     1       1.533   3.404  19.157  0.00  0.00    +0.000 C 
ATOM     35  C   UNL     1       0.966   3.929  20.446  0.00  0.00    +0.000 C 
ATOM     36  C   UNL     1       1.875   1.937  19.152  0.00  0.00    +0.000 C 
ENDBRANCH  32  33
ENDBRANCH   1  32
TORSDOF 15
ENDMDL
MODEL 7
REMARK VINA RESULT:      -7.8      3.865      7.218
REMARK  Name = 
REMARK  19 active torsions:
REMARK  status: ('A' for Active; 'I' for Inactive)
REMARK    1  A    between atoms: C_1  and  C_2
REMARK    2  A    between atoms: C_2  and  C_3
REMARK    3  A    between atoms: C_3  and  C_4
REMARK    4  A    between atoms: C_4  and  C_5
REMARK    5  A    between atoms: C_5  and  C_6
REMARK    6  A    between atoms: C_6  and  C_7
REMARK    7  A    between atoms: C_7  and  C_8
REMARK    8  A    between atoms: C_7  and  O_9
REMARK    9  A    between atoms: C_7  and  C_10
REMARK   10  A    between atoms: C_10  and  C_11
REMARK   11  A    between atoms: C_11  and  O_13
REMARK   12  A    between atoms: O_13  and  C_14
REMARK   13  A    between atoms: C_14  and  C_15
REMARK   14  A    between atoms: C_14  and  C_20
REMARK   15  A    between atoms: C_15  and  C_16
REMARK   16  A    between atoms: C_17  and  C_18
REMARK   17  A    between atoms: C_17  and  C_19
REMARK   18  A    between atoms: C_25  and  O_26
REMARK   19  A    between atoms: C_29  and  O_30
REMARK                            x       y       z     vdW  Elec       q    Type
REMARK                         _______ _______ _______ _____ _____    ______ ____
ROOT
ATOM      1  C   UNL     1       2.244   7.119  19.825  0.00  0.00    +0.000 C 
ENDROOT
BRANCH   1   2
ATOM      2  C   UNL     1       1.390   8.385  19.852  0.00  0.00    +0.000 C 
ATOM      3  C   UNL     1       0.920   9.018  18.767  0.00  0.00    +0.000 C 
ATOM      4  C   UNL     1      -0.001  10.161  18.823  0.00  0.00    +0.000 C 
ATOM      5  O   UNL     1      -0.408  10.685  17.789  0.00  0.00    +0.000 OA
ATOM      6  C   UNL     1      -0.430  10.644  20.133  0.00  0.00    +0.000 A 
ATOM      7  C   UNL     1      -1.332  11.718  20.216  0.00  0.00    +0.000 A 
ATOM      8  C   UNL     1      -1.750  12.197  21.452  0.00  0.00    +0.000 A 
ATOM      9  C   UNL     1      -1.258  11.617  22.616  0.00  0.00    +0.000 A 
ATOM     10  C   UNL     1      -0.357  10.551  22.537  0.00  0.00    +0.000 A 
ATOM     11  C   UNL     1       0.049  10.038  21.295  0.00  0.00    +0.000 A 
ATOM     12  C   UNL     1       0.938   8.847  21.196  0.00  0.00    +0.000 C 
ATOM     13  O   UNL     1       1.256   8.222  22.193  0.00  0.00    +0.000 OA
BRANCH   7  14
ATOM     14  O   UNL     1      -1.856  12.348  19.119  0.00  0.00    +0.000 OA
ATOM     15  H   UNL     1      -1.518  13.273  19.097  0.00  0.00    +0.000 HD
ENDBRANCH   7  14
BRANCH  10  16
ATOM     16  O   UNL     1       0.120  10.028  23.702  0.00  0.00    +0.000 OA
ATOM     17  H   UNL     1       0.111  10.686  24.416  0.00  0.00    +0.000 HD
ENDBRANCH  10  16
ENDBRANCH   1   2
BRANCH   1  18
ATOM     18  O   UNL     1       2.306   6.510  18.506  0.00  0.00    +0.000 OA
BRANCH  18  19
ATOM     19  C   UNL     1       3.539   6.376  17.948  0.00  0.00    +0.000 C 
ATOM     20  O   UNL     1       4.117   7.244  17.295  0.00  0.00    +0.000 OA
BRANCH  19  21
ATOM     21  C   UNL     1       4.315   5.181  18.464  0.00  0.00    +0.000 C 
BRANCH  21  22
ATOM     22  C   UNL     1       4.214   3.816  17.779  0.00  0.00    +0.000 C 
ATOM     23  C   UNL     1       2.892   3.648  17.021  0.00  0.00    +0.000 C 
BRANCH  22  24
ATOM     24  O   UNL     1       4.324   2.782  18.759  0.00  0.00    +0.000 OA
ATOM     25  H   UNL     1       4.683   3.173  19.578  0.00  0.00    +0.000 HD
ENDBRANCH  22  24
BRANCH  22  26
ATOM     26  C   UNL     1       5.385   3.629  16.763  0.00  0.00    +0.000 C 
BRANCH  26  27
ATOM     27  C   UNL     1       5.205   4.408  15.453  0.00  0.00    +0.000 C 
BRANCH  27  28
ATOM     28  C   UNL     1       6.313   5.435  15.207  0.00  0.00    +0.000 C 
BRANCH  28  29
ATOM     29  C   UNL     1       7.302   5.401  16.375  0.00  0.00    +0.000 C 
BRANCH  29  31
ATOM     30  C   UNL     1       7.808   6.496  18.567  0.00  0.00    +0.000 C 
ATOM     31  C   UNL     1       7.393   6.729  17.120  0.00  0.00    +0.000 C 
ENDBRANCH  29  31
ENDBRANCH  28  29
ENDBRANCH  27  28
ENDBRANCH  26  27
ENDBRANCH  22  26
ENDBRANCH  21  22
ENDBRANCH  19  21
ENDBRANCH  18  19
ENDBRANCH   1  18
BRANCH   1  32
ATOM     32  C   UNL     1       1.772   5.994  20.802  0.00  0.00    +0.000 C 
BRANCH  32  33
ATOM     33  C   UNL     1       1.131   4.799  20.122  0.00  0.00    +0.000 C 
ATOM     34  C   UNL     1       1.302   3.499  20.431  0.00  0.00    +0.000 C 
ATOM     35  C   UNL     1       2.159   3.002  21.561  0.00  0.00    +0.000 C 
ATOM     36  C   UNL     1       0.664   2.428  19.585  0.00  0.00    +0.000 C 
ENDBRANCH  32  33
ENDBRANCH   1  32
TORSDOF 15
ENDMDL
MODEL 8
REMARK VINA RESULT:      -7.8      3.273      7.162
REMARK  Name = 
REMARK  19 active torsions:
REMARK  status: ('A' for Active; 'I' for Inactive)
REMARK    1  A    between atoms: C_1  and  C_2
REMARK    2  A    between atoms: C_2  and  C_3
REMARK    3  A    between atoms: C_3  and  C_4
REMARK    4  A    between atoms: C_4  and  C_5
REMARK    5  A    between atoms: C_5  and  C_6
REMARK    6  A    between atoms: C_6  and  C_7
REMARK    7  A    between atoms: C_7  and  C_8
REMARK    8  A    between atoms: C_7  and  O_9
REMARK    9  A    between atoms: C_7  and  C_10
REMARK   10  A    between atoms: C_10  and  C_11
REMARK   11  A    between atoms: C_11  and  O_13
REMARK   12  A    between atoms: O_13  and  C_14
REMARK   13  A    between atoms: C_14  and  C_15
REMARK   14  A    between atoms: C_14  and  C_20
REMARK   15  A    between atoms: C_15  and  C_16
REMARK   16  A    between atoms: C_17  and  C_18
REMARK   17  A    between atoms: C_17  and  C_19
REMARK   18  A    between atoms: C_25  and  O_26
REMARK   19  A    between atoms: C_29  and  O_30
REMARK                            x       y       z     vdW  Elec       q    Type
REMARK                         _______ _______ _______ _____ _____    ______ ____
ROOT
ATOM      1  C   UNL     1       2.563   5.997  19.216  0.00  0.00    +0.000 C 
ENDROOT
BRANCH   1   2
ATOM      2  C   UNL     1       1.952   7.305  19.717  0.00  0.00    +0.000 C 
ATOM      3  C   UNL     1       1.399   7.480  20.926  0.00  0.00    +0.000 C 
ATOM      4  C   UNL     1       0.931   8.779  21.429  0.00  0.00    +0.000 C 
ATOM      5  O   UNL     1       0.448   8.874  22.555  0.00  0.00    +0.000 OA
ATOM      6  C   UNL     1       1.069   9.949  20.567  0.00  0.00    +0.000 A 
ATOM      7  C   UNL     1       0.656  11.208  21.032  0.00  0.00    +0.000 A 
ATOM      8  C   UNL     1       0.775  12.335  20.227  0.00  0.00    +0.000 A 
ATOM      9  C   UNL     1       1.292  12.210  18.942  0.00  0.00    +0.000 A 
ATOM     10  C   UNL     1       1.701  10.957  18.474  0.00  0.00    +0.000 A 
ATOM     11  C   UNL     1       1.615   9.818  19.289  0.00  0.00    +0.000 A 
ATOM     12  C   UNL     1       2.128   8.494  18.836  0.00  0.00    +0.000 C 
ATOM     13  O   UNL     1       2.731   8.388  17.781  0.00  0.00    +0.000 OA
BRANCH   7  14
ATOM     14  O   UNL     1       0.129  11.414  22.279  0.00  0.00    +0.000 OA
ATOM     15  H   UNL     1       0.831  11.244  22.948  0.00  0.00    +0.000 HD
ENDBRANCH   7  14
BRANCH  10  16
ATOM     16  O   UNL     1       2.180  10.875  17.200  0.00  0.00    +0.000 OA
ATOM     17  H   UNL     1       2.090  11.721  16.733  0.00  0.00    +0.000 HD
ENDBRANCH  10  16
ENDBRANCH   1   2
BRANCH   1  18
ATOM     18  O   UNL     1       3.992   6.102  18.966  0.00  0.00    +0.000 OA
BRANCH  18  19
ATOM     19  C   UNL     1       4.721   4.959  19.072  0.00  0.00    +0.000 C 
ATOM     20  O   UNL     1       4.472   4.031  19.840  0.00  0.00    +0.000 OA
BRANCH  19  21
ATOM     21  C   UNL     1       5.696   4.750  17.931  0.00  0.00    +0.000 C 
BRANCH  21  22
ATOM     22  C   UNL     1       6.055   5.894  16.978  0.00  0.00    +0.000 C 
ATOM     23  C   UNL     1       6.982   6.922  17.636  0.00  0.00    +0.000 C 
BRANCH  22  24
ATOM     24  O   UNL     1       4.861   6.550  16.550  0.00  0.00    +0.000 OA
ATOM     25  H   UNL     1       4.241   5.872  16.220  0.00  0.00    +0.000 HD
ENDBRANCH  22  24
BRANCH  22  26
ATOM     26  C   UNL     1       6.770   5.338  15.706  0.00  0.00    +0.000 C 
BRANCH  26  27
ATOM     27  C   UNL     1       6.215   3.995  15.215  0.00  0.00    +0.000 C 
BRANCH  27  28
ATOM     28  C   UNL     1       5.443   4.109  13.897  0.00  0.00    +0.000 C 
BRANCH  28  29
ATOM     29  C   UNL     1       6.327   3.612  12.750  0.00  0.00    +0.000 C 
BRANCH  29  31
ATOM     30  C   UNL     1       4.296   3.152  11.363  0.00  0.00    +0.000 C 
ATOM     31  C   UNL     1       5.626   2.596  11.853  0.00  0.00    +0.000 C 
ENDBRANCH  29  31
ENDBRANCH  28  29
ENDBRANCH  27  28
ENDBRANCH  26  27
ENDBRANCH  22  26
ENDBRANCH  21  22
ENDBRANCH  19  21
ENDBRANCH  18  19
ENDBRANCH   1  18
BRANCH   1  32
ATOM     32  C   UNL     1       1.930   5.446  17.897  0.00  0.00    +0.000 C 
BRANCH  32  33
ATOM     33  C   UNL     1       1.552   3.977  17.948  0.00  0.00    +0.000 C 
ATOM     34  C   UNL     1       1.150   3.278  19.027  0.00  0.00    +0.000 C 
ATOM     35  C   UNL     1       0.972   3.864  20.399  0.00  0.00    +0.000 C 
ATOM     36  C   UNL     1       0.907   1.794  18.921  0.00  0.00    +0.000 C 
ENDBRANCH  32  33
ENDBRANCH   1  32
TORSDOF 15
ENDMDL
MODEL 9
REMARK VINA RESULT:      -7.8      3.376      7.427
REMARK  Name = 
REMARK  19 active torsions:
REMARK  status: ('A' for Active; 'I' for Inactive)
REMARK    1  A    between atoms: C_1  and  C_2
REMARK    2  A    between atoms: C_2  and  C_3
REMARK    3  A    between atoms: C_3  and  C_4
REMARK    4  A    between atoms: C_4  and  C_5
REMARK    5  A    between atoms: C_5  and  C_6
REMARK    6  A    between atoms: C_6  and  C_7
REMARK    7  A    between atoms: C_7  and  C_8
REMARK    8  A    between atoms: C_7  and  O_9
REMARK    9  A    between atoms: C_7  and  C_10
REMARK   10  A    between atoms: C_10  and  C_11
REMARK   11  A    between atoms: C_11  and  O_13
REMARK   12  A    between atoms: O_13  and  C_14
REMARK   13  A    between atoms: C_14  and  C_15
REMARK   14  A    between atoms: C_14  and  C_20
REMARK   15  A    between atoms: C_15  and  C_16
REMARK   16  A    between atoms: C_17  and  C_18
REMARK   17  A    between atoms: C_17  and  C_19
REMARK   18  A    between atoms: C_25  and  O_26
REMARK   19  A    between atoms: C_29  and  O_30
REMARK                            x       y       z     vdW  Elec       q    Type
REMARK                         _______ _______ _______ _____ _____    ______ ____
ROOT
ATOM      1  C   UNL     1       2.658   6.327  19.464  0.00  0.00    +0.000 C 
ENDROOT
BRANCH   1   2
ATOM      2  C   UNL     1       2.186   7.778  19.397  0.00  0.00    +0.000 C 
ATOM      3  C   UNL     1       2.337   8.587  18.338  0.00  0.00    +0.000 C 
ATOM      4  C   UNL     1       1.764   9.938  18.254  0.00  0.00    +0.000 C 
ATOM      5  O   UNL     1       1.927  10.621  17.246  0.00  0.00    +0.000 OA
ATOM      6  C   UNL     1       0.988  10.436  19.387  0.00  0.00    +0.000 A 
ATOM      7  C   UNL     1       0.406  11.713  19.322  0.00  0.00    +0.000 A 
ATOM      8  C   UNL     1      -0.333  12.208  20.390  0.00  0.00    +0.000 A 
ATOM      9  C   UNL     1      -0.483  11.438  21.538  0.00  0.00    +0.000 A 
ATOM     10  C   UNL     1       0.099  10.168  21.607  0.00  0.00    +0.000 A 
ATOM     11  C   UNL     1       0.821   9.645  20.524  0.00  0.00    +0.000 A 
ATOM     12  C   UNL     1       1.371   8.259  20.549  0.00  0.00    +0.000 C 
ATOM     13  O   UNL     1       1.119   7.507  21.474  0.00  0.00    +0.000 OA
BRANCH   7  14
ATOM     14  O   UNL     1       0.514  12.535  18.233  0.00  0.00    +0.000 OA
ATOM     15  H   UNL     1       0.992  12.051  17.521  0.00  0.00    +0.000 HD
ENDBRANCH   7  14
BRANCH  10  16
ATOM     16  O   UNL     1      -0.051   9.457  22.761  0.00  0.00    +0.000 OA
ATOM     17  H   UNL     1      -0.751   8.790  22.677  0.00  0.00    +0.000 HD
ENDBRANCH  10  16
ENDBRANCH   1   2
BRANCH   1  18
ATOM     18  O   UNL     1       3.509   5.960  18.343  0.00  0.00    +0.000 OA
BRANCH  18  19
ATOM     19  C   UNL     1       4.766   5.534  18.638  0.00  0.00    +0.000 C 
ATOM     20  O   UNL     1       5.036   4.512  19.268  0.00  0.00    +0.000 OA
BRANCH  19  21
ATOM     21  C   UNL     1       5.849   6.238  17.847  0.00  0.00    +0.000 C 
BRANCH  21  22
ATOM     22  C   UNL     1       6.923   5.445  17.097  0.00  0.00    +0.000 C 
ATOM     23  C   UNL     1       7.899   4.749  18.052  0.00  0.00    +0.000 C 
BRANCH  22  24
ATOM     24  O   UNL     1       7.656   6.326  16.242  0.00  0.00    +0.000 OA
ATOM     25  H   UNL     1       8.602   6.095  16.304  0.00  0.00    +0.000 HD
ENDBRANCH  22  24
BRANCH  22  26
ATOM     26  C   UNL     1       6.263   4.354  16.195  0.00  0.00    +0.000 C 
BRANCH  26  27
ATOM     27  C   UNL     1       6.373   4.638  14.691  0.00  0.00    +0.000 C 
BRANCH  27  28
ATOM     28  C   UNL     1       5.479   3.730  13.842  0.00  0.00    +0.000 C 
BRANCH  28  29
ATOM     29  C   UNL     1       6.135   3.509  12.477  0.00  0.00    +0.000 C 
BRANCH  29  31
ATOM     30  C   UNL     1       4.020   3.284  11.159  0.00  0.00    +0.000 C 
ATOM     31  C   UNL     1       5.320   2.601  11.561  0.00  0.00    +0.000 C 
ENDBRANCH  29  31
ENDBRANCH  28  29
ENDBRANCH  27  28
ENDBRANCH  26  27
ENDBRANCH  22  26
ENDBRANCH  21  22
ENDBRANCH  19  21
ENDBRANCH  18  19
ENDBRANCH   1  18
BRANCH   1  32
ATOM     32  C   UNL     1       1.508   5.269  19.503  0.00  0.00    +0.000 C 
BRANCH  32  33
ATOM     33  C   UNL     1       1.543   4.347  20.707  0.00  0.00    +0.000 C 
ATOM     34  C   UNL     1       1.487   3.002  20.703  0.00  0.00    +0.000 C 
ATOM     35  C   UNL     1       1.411   2.160  19.461  0.00  0.00    +0.000 C 
ATOM     36  C   UNL     1       1.433   2.241  22.003  0.00  0.00    +0.000 C 
ENDBRANCH  32  33
ENDBRANCH   1  32
TORSDOF 15
ENDMDL
