MODEL 1
REMARK VINA RESULT:      -8.9      0.000      0.000
REMARK  Name = 
REMARK  8 active torsions:
REMARK  status: ('A' for Active; 'I' for Inactive)
REMARK    1  A    between atoms: C_2  and  C_4
REMARK    2  A    between atoms: C_4  and  C_5
REMARK    3  A    between atoms: C_5  and  C_6
REMARK    4  A    between atoms: N_8  and  C_9
REMARK    5  A    between atoms: C_9  and  C_10
REMARK    6  A    between atoms: C_9  and  C_14
REMARK    7  A    between atoms: N_12  and  O_13
REMARK    8  A    between atoms: C_17  and  C_18
REMARK                            x       y       z     vdW  Elec       q    Type
REMARK                         _______ _______ _______ _____ _____    ______ ____
ROOT
ATOM      1  C   UNL     1       4.067   5.485  17.780  0.00  0.00    +0.000 C 
ENDROOT
BRANCH   1   2
ATOM      2  C   UNL     1       3.159   6.489  18.459  0.00  0.00    +0.000 A 
ATOM      3  C   UNL     1       2.722   6.265  19.768  0.00  0.00    +0.000 A 
ATOM      4  C   UNL     1       1.894   7.191  20.409  0.00  0.00    +0.000 A 
ATOM      5  C   UNL     1       1.475   8.373  19.772  0.00  0.00    +0.000 A 
ATOM      6  C   UNL     1       1.913   8.580  18.454  0.00  0.00    +0.000 A 
ATOM      7  C   UNL     1       2.737   7.655  17.803  0.00  0.00    +0.000 A 
BRANCH   5   8
ATOM      8  C   UNL     1       0.603   9.350  20.464  0.00  0.00    +0.000 A 
ATOM      9  C   UNL     1       0.002  10.416  19.764  0.00  0.00    +0.000 A 
ATOM     10  C   UNL     1      -0.799  11.349  20.421  0.00  0.00    +0.000 A 
ATOM     11  F   UNL     1      -1.336  12.356  19.717  0.00  0.00    +0.000 F 
ATOM     12  C   UNL     1      -1.039  11.244  21.780  0.00  0.00    +0.000 A 
ATOM     13  F   UNL     1      -1.811  12.144  22.405  0.00  0.00    +0.000 F 
ATOM     14  C   UNL     1      -0.470  10.197  22.486  0.00  0.00    +0.000 A 
ATOM     15  F   UNL     1      -0.693  10.072  23.802  0.00  0.00    +0.000 F 
ATOM     16  C   UNL     1       0.345   9.262  21.845  0.00  0.00    +0.000 A 
ENDBRANCH   5   8
ENDBRANCH   1   2
BRANCH   1  19
ATOM     17  C   UNL     1       6.071   6.518  16.774  0.00  0.00    +0.000 C 
ATOM     18  O   UNL     1       5.508   6.720  15.703  0.00  0.00    +0.000 OA
ATOM     19  N   UNL     1       5.451   5.922  17.843  0.00  0.00    +0.000 N 
ATOM     20  H   UNL     1       5.914   5.861  18.743  0.00  0.00    +0.000 HD
BRANCH  17  21
ATOM     21  C   UNL     1       7.521   6.865  17.009  0.00  0.00    +0.000 C 
BRANCH  21  22
ATOM     22  C   UNL     1       7.834   6.826  18.499  0.00  0.00    +0.000 C 
BRANCH  22  24
ATOM     23  N   UNL     1       8.417   5.357  20.314  0.00  0.00    +0.000 N 
ATOM     24  C   UNL     1       8.078   5.425  18.995  0.00  0.00    +0.000 C 
ATOM     25  O   UNL     1       8.005   4.416  18.303  0.00  0.00    +0.000 OA
ATOM     26  H   UNL     1       8.601   4.444  20.707  0.00  0.00    +0.000 HD
ATOM     27  H   UNL     1       8.499   6.169  20.910  0.00  0.00    +0.000 HD
ENDBRANCH  22  24
ENDBRANCH  21  22
ENDBRANCH  17  21
ENDBRANCH   1  19
BRANCH   1  28
ATOM     28  C   UNL     1       3.937   4.096  18.433  0.00  0.00    +0.000 C 
ATOM     29  O   UNL     1       2.899   3.428  18.417  0.00  0.00    +0.000 OA
ATOM     30  N   UNL     1       5.099   3.620  19.001  0.00  0.00    +0.000 N 
ATOM     31  H   UNL     1       5.873   4.217  19.272  0.00  0.00    +0.000 HD
BRANCH  30  32
ATOM     32  O   UNL     1       5.010   2.367  19.648  0.00  0.00    +0.000 OA
ATOM     33  H   UNL     1       5.741   2.409  20.303  0.00  0.00    +0.000 HD
ENDBRANCH  30  32
ENDBRANCH   1  28
TORSDOF 8
ENDMDL
MODEL 2
REMARK VINA RESULT:      -8.9      1.126      1.482
REMARK  Name = 
REMARK  8 active torsions:
REMARK  status: ('A' for Active; 'I' for Inactive)
REMARK    1  A    between atoms: C_2  and  C_4
REMARK    2  A    between atoms: C_4  and  C_5
REMARK    3  A    between atoms: C_5  and  C_6
REMARK    4  A    between atoms: N_8  and  C_9
REMARK    5  A    between atoms: C_9  and  C_10
REMARK    6  A    between atoms: C_9  and  C_14
REMARK    7  A    between atoms: N_12  and  O_13
REMARK    8  A    between atoms: C_17  and  C_18
REMARK                            x       y       z     vdW  Elec       q    Type
REMARK                         _______ _______ _______ _____ _____    ______ ____
ROOT
ATOM      1  C   UNL     1       3.692   4.976  17.161  0.00  0.00    +0.000 C 
ENDROOT
BRANCH   1   2
ATOM      2  C   UNL     1       3.013   5.972  18.078  0.00  0.00    +0.000 A 
ATOM      3  C   UNL     1       2.752   7.271  17.630  0.00  0.00    +0.000 A 
ATOM      4  C   UNL     1       2.114   8.195  18.463  0.00  0.00    +0.000 A 
ATOM      5  C   UNL     1       1.710   7.859  19.767  0.00  0.00    +0.000 A 
ATOM      6  C   UNL     1       1.987   6.554  20.207  0.00  0.00    +0.000 A 
ATOM      7  C   UNL     1       2.631   5.625  19.381  0.00  0.00    +0.000 A 
BRANCH   5   8
ATOM      8  C   UNL     1       1.029   8.844  20.638  0.00  0.00    +0.000 A 
ATOM      9  C   UNL     1       0.503  10.042  20.114  0.00  0.00    +0.000 A 
ATOM     10  C   UNL     1      -0.116  10.979  20.940  0.00  0.00    +0.000 A 
ATOM     11  F   UNL     1      -0.587  12.113  20.399  0.00  0.00    +0.000 F 
ATOM     12  C   UNL     1      -0.244  10.750  22.299  0.00  0.00    +0.000 A 
ATOM     13  F   UNL     1      -0.841  11.656  23.086  0.00  0.00    +0.000 F 
ATOM     14  C   UNL     1       0.253   9.574  22.834  0.00  0.00    +0.000 A 
ATOM     15  F   UNL     1       0.135   9.329  24.147  0.00  0.00    +0.000 F 
ATOM     16  C   UNL     1       0.888   8.631  22.022  0.00  0.00    +0.000 A 
ENDBRANCH   5   8
ENDBRANCH   1   2
BRANCH   1  19
ATOM     17  C   UNL     1       5.879   5.759  16.323  0.00  0.00    +0.000 C 
ATOM     18  O   UNL     1       5.381   6.301  15.342  0.00  0.00    +0.000 OA
ATOM     19  N   UNL     1       5.138   5.089  17.264  0.00  0.00    +0.000 N 
ATOM     20  H   UNL     1       5.569   4.741  18.112  0.00  0.00    +0.000 HD
BRANCH  17  21
ATOM     21  C   UNL     1       7.368   5.737  16.572  0.00  0.00    +0.000 C 
BRANCH  21  22
ATOM     22  C   UNL     1       7.681   4.886  17.795  0.00  0.00    +0.000 C 
BRANCH  22  24
ATOM     23  N   UNL     1       8.346   6.858  19.005  0.00  0.00    +0.000 N 
ATOM     24  C   UNL     1       7.650   5.687  19.071  0.00  0.00    +0.000 C 
ATOM     25  O   UNL     1       7.077   5.343  20.099  0.00  0.00    +0.000 OA
ATOM     26  H   UNL     1       8.370   7.439  19.832  0.00  0.00    +0.000 HD
ATOM     27  H   UNL     1       8.840   7.165  18.179  0.00  0.00    +0.000 HD
ENDBRANCH  22  24
ENDBRANCH  21  22
ENDBRANCH  17  21
ENDBRANCH   1  19
BRANCH   1  28
ATOM     28  C   UNL     1       3.266   3.536  17.501  0.00  0.00    +0.000 C 
ATOM     29  O   UNL     1       2.137   3.087  17.280  0.00  0.00    +0.000 OA
ATOM     30  N   UNL     1       4.268   2.752  18.031  0.00  0.00    +0.000 N 
ATOM     31  H   UNL     1       5.100   3.131  18.471  0.00  0.00    +0.000 HD
BRANCH  30  32
ATOM     32  O   UNL     1       3.905   1.436  18.396  0.00  0.00    +0.000 OA
ATOM     33  H   UNL     1       3.330   1.156  17.650  0.00  0.00    +0.000 HD
ENDBRANCH  30  32
ENDBRANCH   1  28
TORSDOF 8
ENDMDL
MODEL 3
REMARK VINA RESULT:      -8.8      1.180      2.202
REMARK  Name = 
REMARK  8 active torsions:
REMARK  status: ('A' for Active; 'I' for Inactive)
REMARK    1  A    between atoms: C_2  and  C_4
REMARK    2  A    between atoms: C_4  and  C_5
REMARK    3  A    between atoms: C_5  and  C_6
REMARK    4  A    between atoms: N_8  and  C_9
REMARK    5  A    between atoms: C_9  and  C_10
REMARK    6  A    between atoms: C_9  and  C_14
REMARK    7  A    between atoms: N_12  and  O_13
REMARK    8  A    between atoms: C_17  and  C_18
REMARK                            x       y       z     vdW  Elec       q    Type
REMARK                         _______ _______ _______ _____ _____    ______ ____
ROOT
ATOM      1  C   UNL     1       3.836   4.274  18.070  0.00  0.00    +0.000 C 
ENDROOT
BRANCH   1   2
ATOM      2  C   UNL     1       3.107   5.403  18.767  0.00  0.00    +0.000 A 
ATOM      3  C   UNL     1       2.999   6.653  18.150  0.00  0.00    +0.000 A 
ATOM      4  C   UNL     1       2.318   7.700  18.779  0.00  0.00    +0.000 A 
ATOM      5  C   UNL     1       1.718   7.538  20.040  0.00  0.00    +0.000 A 
ATOM      6  C   UNL     1       1.843   6.281  20.653  0.00  0.00    +0.000 A 
ATOM      7  C   UNL     1       2.529   5.230  20.032  0.00  0.00    +0.000 A 
BRANCH   5   8
ATOM      8  C   UNL     1       0.994   8.652  20.694  0.00  0.00    +0.000 A 
ATOM      9  C   UNL     1       0.762   8.657  22.084  0.00  0.00    +0.000 A 
ATOM     10  C   UNL     1       0.059   9.694  22.695  0.00  0.00    +0.000 A 
ATOM     11  F   UNL     1      -0.152   9.647  24.018  0.00  0.00    +0.000 F 
ATOM     12  C   UNL     1      -0.420  10.759  21.950  0.00  0.00    +0.000 A 
ATOM     13  F   UNL     1      -1.095  11.753  22.545  0.00  0.00    +0.000 F 
ATOM     14  C   UNL     1      -0.193  10.783  20.585  0.00  0.00    +0.000 A 
ATOM     15  F   UNL     1      -0.642  11.807  19.845  0.00  0.00    +0.000 F 
ATOM     16  C   UNL     1       0.499   9.744  19.957  0.00  0.00    +0.000 A 
ENDBRANCH   5   8
ENDBRANCH   1   2
BRANCH   1  19
ATOM     17  C   UNL     1       5.690   4.639  16.480  0.00  0.00    +0.000 C 
ATOM     18  O   UNL     1       5.014   4.297  15.515  0.00  0.00    +0.000 OA
ATOM     19  N   UNL     1       5.204   4.658  17.763  0.00  0.00    +0.000 N 
ATOM     20  H   UNL     1       5.757   5.040  18.522  0.00  0.00    +0.000 HD
BRANCH  17  21
ATOM     21  C   UNL     1       7.143   5.029  16.358  0.00  0.00    +0.000 C 
BRANCH  21  22
ATOM     22  C   UNL     1       7.381   6.373  17.033  0.00  0.00    +0.000 C 
BRANCH  22  24
ATOM     23  N   UNL     1       8.457   7.362  18.946  0.00  0.00    +0.000 N 
ATOM     24  C   UNL     1       7.908   6.222  18.437  0.00  0.00    +0.000 C 
ATOM     25  O   UNL     1       7.878   5.183  19.086  0.00  0.00    +0.000 OA
ATOM     26  H   UNL     1       8.835   7.325  19.883  0.00  0.00    +0.000 HD
ATOM     27  H   UNL     1       8.511   8.231  18.433  0.00  0.00    +0.000 HD
ENDBRANCH  22  24
ENDBRANCH  21  22
ENDBRANCH  17  21
ENDBRANCH   1  19
BRANCH   1  28
ATOM     28  C   UNL     1       3.845   3.003  18.941  0.00  0.00    +0.000 C 
ATOM     29  O   UNL     1       2.861   2.274  19.096  0.00  0.00    +0.000 OA
ATOM     30  N   UNL     1       5.067   2.704  19.504  0.00  0.00    +0.000 N 
ATOM     31  H   UNL     1       5.806   3.387  19.630  0.00  0.00    +0.000 HD
BRANCH  30  32
ATOM     32  O   UNL     1       5.106   1.569  20.345  0.00  0.00    +0.000 OA
ATOM     33  H   UNL     1       4.335   1.044  20.037  0.00  0.00    +0.000 HD
ENDBRANCH  30  32
ENDBRANCH   1  28
TORSDOF 8
ENDMDL
MODEL 4
REMARK VINA RESULT:      -8.7      5.299      7.615
REMARK  Name = 
REMARK  8 active torsions:
REMARK  status: ('A' for Active; 'I' for Inactive)
REMARK    1  A    between atoms: C_2  and  C_4
REMARK    2  A    between atoms: C_4  and  C_5
REMARK    3  A    between atoms: C_5  and  C_6
REMARK    4  A    between atoms: N_8  and  C_9
REMARK    5  A    between atoms: C_9  and  C_10
REMARK    6  A    between atoms: C_9  and  C_14
REMARK    7  A    between atoms: N_12  and  O_13
REMARK    8  A    between atoms: C_17  and  C_18
REMARK                            x       y       z     vdW  Elec       q    Type
REMARK                         _______ _______ _______ _____ _____    ______ ____
ROOT
ATOM      1  C   UNL     1       6.481   4.965  17.626  0.00  0.00    +0.000 C 
ENDROOT
BRANCH   1   2
ATOM      2  C   UNL     1       7.124   6.305  17.917  0.00  0.00    +0.000 A 
ATOM      3  C   UNL     1       8.069   6.420  18.940  0.00  0.00    +0.000 A 
ATOM      4  C   UNL     1       8.678   7.650  19.210  0.00  0.00    +0.000 A 
ATOM      5  C   UNL     1       8.371   8.805  18.469  0.00  0.00    +0.000 A 
ATOM      6  C   UNL     1       7.412   8.676  17.450  0.00  0.00    +0.000 A 
ATOM      7  C   UNL     1       6.794   7.450  17.179  0.00  0.00    +0.000 A 
BRANCH   5   8
ATOM      8  C   UNL     1       9.027  10.100  18.759  0.00  0.00    +0.000 A 
ATOM      9  C   UNL     1       9.331  11.012  17.728  0.00  0.00    +0.000 A 
ATOM     10  C   UNL     1       9.971  12.221  18.000  0.00  0.00    +0.000 A 
ATOM     11  F   UNL     1      10.255  13.050  16.984  0.00  0.00    +0.000 F 
ATOM     12  C   UNL     1      10.313  12.564  19.296  0.00  0.00    +0.000 A 
ATOM     13  F   UNL     1      10.927  13.729  19.550  0.00  0.00    +0.000 F 
ATOM     14  C   UNL     1      10.012  11.690  20.327  0.00  0.00    +0.000 A 
ATOM     15  F   UNL     1      10.328  12.005  21.591  0.00  0.00    +0.000 F 
ATOM     16  C   UNL     1       9.383  10.470  20.069  0.00  0.00    +0.000 A 
ENDBRANCH   5   8
ENDBRANCH   1   2
BRANCH   1  19
ATOM     17  C   UNL     1       4.496   4.196  18.877  0.00  0.00    +0.000 C 
ATOM     18  O   UNL     1       5.144   3.392  19.538  0.00  0.00    +0.000 OA
ATOM     19  N   UNL     1       5.058   5.004  17.922  0.00  0.00    +0.000 N 
ATOM     20  H   UNL     1       4.511   5.726  17.466  0.00  0.00    +0.000 HD
BRANCH  17  21
ATOM     21  C   UNL     1       3.000   4.344  19.016  0.00  0.00    +0.000 C 
BRANCH  21  22
ATOM     22  C   UNL     1       2.641   4.688  20.456  0.00  0.00    +0.000 C 
BRANCH  22  24
ATOM     23  N   UNL     1       0.760   3.204  20.694  0.00  0.00    +0.000 N 
ATOM     24  C   UNL     1       1.994   3.533  21.175  0.00  0.00    +0.000 C 
ATOM     25  O   UNL     1       2.491   2.930  22.119  0.00  0.00    +0.000 OA
ATOM     26  H   UNL     1       0.269   2.441  21.138  0.00  0.00    +0.000 HD
ATOM     27  H   UNL     1       0.315   3.689  19.926  0.00  0.00    +0.000 HD
ENDBRANCH  22  24
ENDBRANCH  21  22
ENDBRANCH  17  21
ENDBRANCH   1  19
BRANCH   1  28
ATOM     28  C   UNL     1       6.687   4.564  16.153  0.00  0.00    +0.000 C 
ATOM     29  O   UNL     1       7.788   4.554  15.595  0.00  0.00    +0.000 OA
ATOM     30  N   UNL     1       5.540   4.158  15.505  0.00  0.00    +0.000 N 
ATOM     31  H   UNL     1       4.606   4.398  15.819  0.00  0.00    +0.000 HD
BRANCH  30  32
ATOM     32  O   UNL     1       5.680   3.822  14.139  0.00  0.00    +0.000 OA
ATOM     33  H   UNL     1       6.024   4.653  13.746  0.00  0.00    +0.000 HD
ENDBRANCH  30  32
ENDBRANCH   1  28
TORSDOF 8
ENDMDL
MODEL 5
REMARK VINA RESULT:      -8.6      1.258      1.878
REMARK  Name = 
REMARK  8 active torsions:
REMARK  status: ('A' for Active; 'I' for Inactive)
REMARK    1  A    between atoms: C_2  and  C_4
REMARK    2  A    between atoms: C_4  and  C_5
REMARK    3  A    between atoms: C_5  and  C_6
REMARK    4  A    between atoms: N_8  and  C_9
REMARK    5  A    between atoms: C_9  and  C_10
REMARK    6  A    between atoms: C_9  and  C_14
REMARK    7  A    between atoms: N_12  and  O_13
REMARK    8  A    between atoms: C_17  and  C_18
REMARK                            x       y       z     vdW  Elec       q    Type
REMARK                         _______ _______ _______ _____ _____    ______ ____
ROOT
ATOM      1  C   UNL     1       3.329   6.490  17.640  0.00  0.00    +0.000 C 
ENDROOT
BRANCH   1   2
ATOM      2  C   UNL     1       2.504   7.524  18.378  0.00  0.00    +0.000 A 
ATOM      3  C   UNL     1       2.055   8.667  17.711  0.00  0.00    +0.000 A 
ATOM      4  C   UNL     1       1.283   9.623  18.379  0.00  0.00    +0.000 A 
ATOM      5  C   UNL     1       0.928   9.472  19.730  0.00  0.00    +0.000 A 
ATOM      6  C   UNL     1       1.394   8.324  20.391  0.00  0.00    +0.000 A 
ATOM      7  C   UNL     1       2.173   7.366  19.731  0.00  0.00    +0.000 A 
BRANCH   5   8
ATOM      8  C   UNL     1       0.104  10.488  20.426  0.00  0.00    +0.000 A 
ATOM      9  C   UNL     1      -0.209  11.718  19.814  0.00  0.00    +0.000 A 
ATOM     10  C   UNL     1      -0.964  12.683  20.480  0.00  0.00    +0.000 A 
ATOM     11  F   UNL     1      -1.224  13.846  19.864  0.00  0.00    +0.000 F 
ATOM     12  C   UNL     1      -1.440  12.450  21.759  0.00  0.00    +0.000 A 
ATOM     13  F   UNL     1      -2.166  13.383  22.392  0.00  0.00    +0.000 F 
ATOM     14  C   UNL     1      -1.156  11.244  22.375  0.00  0.00    +0.000 A 
ATOM     15  F   UNL     1      -1.612  10.994  23.611  0.00  0.00    +0.000 F 
ATOM     16  C   UNL     1      -0.390  10.272  21.726  0.00  0.00    +0.000 A 
ENDBRANCH   5   8
ENDBRANCH   1   2
BRANCH   1  19
ATOM     17  C   UNL     1       5.617   6.849  16.787  0.00  0.00    +0.000 C 
ATOM     18  O   UNL     1       5.263   6.764  15.616  0.00  0.00    +0.000 OA
ATOM     19  N   UNL     1       4.748   6.727  17.842  0.00  0.00    +0.000 N 
ATOM     20  H   UNL     1       5.057   6.902  18.791  0.00  0.00    +0.000 HD
BRANCH  17  21
ATOM     21  C   UNL     1       7.059   7.050  17.189  0.00  0.00    +0.000 C 
BRANCH  21  22
ATOM     22  C   UNL     1       7.428   6.091  18.312  0.00  0.00    +0.000 C 
BRANCH  22  24
ATOM     23  N   UNL     1       6.471   3.889  18.486  0.00  0.00    +0.000 N 
ATOM     24  C   UNL     1       7.414   4.653  17.863  0.00  0.00    +0.000 C 
ATOM     25  O   UNL     1       8.174   4.173  17.030  0.00  0.00    +0.000 OA
ATOM     26  H   UNL     1       6.414   2.911  18.234  0.00  0.00    +0.000 HD
ATOM     27  H   UNL     1       5.838   4.249  19.187  0.00  0.00    +0.000 HD
ENDBRANCH  22  24
ENDBRANCH  21  22
ENDBRANCH  17  21
ENDBRANCH   1  19
BRANCH   1  28
ATOM     28  C   UNL     1       2.975   5.066  18.111  0.00  0.00    +0.000 C 
ATOM     29  O   UNL     1       3.653   4.427  18.921  0.00  0.00    +0.000 OA
ATOM     30  N   UNL     1       1.799   4.568  17.594  0.00  0.00    +0.000 N 
ATOM     31  H   UNL     1       1.365   4.924  16.749  0.00  0.00    +0.000 HD
BRANCH  30  32
ATOM     32  O   UNL     1       1.462   3.248  17.969  0.00  0.00    +0.000 OA
ATOM     33  H   UNL     1       1.701   3.225  18.921  0.00  0.00    +0.000 HD
ENDBRANCH  30  32
ENDBRANCH   1  28
TORSDOF 8
ENDMDL
MODEL 6
REMARK VINA RESULT:      -8.6      1.493      2.343
REMARK  Name = 
REMARK  8 active torsions:
REMARK  status: ('A' for Active; 'I' for Inactive)
REMARK    1  A    between atoms: C_2  and  C_4
REMARK    2  A    between atoms: C_4  and  C_5
REMARK    3  A    between atoms: C_5  and  C_6
REMARK    4  A    between atoms: N_8  and  C_9
REMARK    5  A    between atoms: C_9  and  C_10
REMARK    6  A    between atoms: C_9  and  C_14
REMARK    7  A    between atoms: N_12  and  O_13
REMARK    8  A    between atoms: C_17  and  C_18
REMARK                            x       y       z     vdW  Elec       q    Type
REMARK                         _______ _______ _______ _____ _____    ______ ____
ROOT
ATOM      1  C   UNL     1       3.847   3.861  18.436  0.00  0.00    +0.000 C 
ENDROOT
BRANCH   1   2
ATOM      2  C   UNL     1       3.151   5.091  18.980  0.00  0.00    +0.000 A 
ATOM      3  C   UNL     1       2.509   5.041  20.221  0.00  0.00    +0.000 A 
ATOM      4  C   UNL     1       1.873   6.173  20.739  0.00  0.00    +0.000 A 
ATOM      5  C   UNL     1       1.859   7.395  20.043  0.00  0.00    +0.000 A 
ATOM      6  C   UNL     1       2.499   7.428  18.793  0.00  0.00    +0.000 A 
ATOM      7  C   UNL     1       3.132   6.297  18.266  0.00  0.00    +0.000 A 
BRANCH   5   8
ATOM      8  C   UNL     1       1.188   8.590  20.604  0.00  0.00    +0.000 A 
ATOM      9  C   UNL     1       0.777   8.633  21.952  0.00  0.00    +0.000 A 
ATOM     10  C   UNL     1       0.124   9.749  22.471  0.00  0.00    +0.000 A 
ATOM     11  F   UNL     1      -0.263   9.737  23.756  0.00  0.00    +0.000 F 
ATOM     12  C   UNL     1      -0.126  10.856  21.679  0.00  0.00    +0.000 A 
ATOM     13  F   UNL     1      -0.753  11.926  22.186  0.00  0.00    +0.000 F 
ATOM     14  C   UNL     1       0.281  10.843  20.355  0.00  0.00    +0.000 A 
ATOM     15  F   UNL     1       0.055  11.906  19.570  0.00  0.00    +0.000 F 
ATOM     16  C   UNL     1       0.924   9.726  19.816  0.00  0.00    +0.000 A 
ENDBRANCH   5   8
ENDBRANCH   1   2
BRANCH   1  19
ATOM     17  C   UNL     1       5.584   4.243  16.723  0.00  0.00    +0.000 C 
ATOM     18  O   UNL     1       4.805   4.043  15.797  0.00  0.00    +0.000 OA
ATOM     19  N   UNL     1       5.210   4.176  18.042  0.00  0.00    +0.000 N 
ATOM     20  H   UNL     1       5.854   4.445  18.778  0.00  0.00    +0.000 HD
BRANCH  17  21
ATOM     21  C   UNL     1       7.048   4.541  16.505  0.00  0.00    +0.000 C 
BRANCH  21  22
ATOM     22  C   UNL     1       7.249   6.032  16.270  0.00  0.00    +0.000 C 
BRANCH  22  24
ATOM     23  N   UNL     1       7.684   8.123  17.381  0.00  0.00    +0.000 N 
ATOM     24  C   UNL     1       7.511   6.781  17.551  0.00  0.00    +0.000 C 
ATOM     25  O   UNL     1       7.585   6.265  18.661  0.00  0.00    +0.000 OA
ATOM     26  H   UNL     1       7.870   8.683  18.202  0.00  0.00    +0.000 HD
ATOM     27  H   UNL     1       7.643   8.579  16.480  0.00  0.00    +0.000 HD
ENDBRANCH  22  24
ENDBRANCH  21  22
ENDBRANCH  17  21
ENDBRANCH   1  19
BRANCH   1  28
ATOM     28  C   UNL     1       3.865   2.730  19.483  0.00  0.00    +0.000 C 
ATOM     29  O   UNL     1       2.881   2.038  19.757  0.00  0.00    +0.000 OA
ATOM     30  N   UNL     1       5.095   2.508  20.063  0.00  0.00    +0.000 N 
ATOM     31  H   UNL     1       5.840   3.196  20.076  0.00  0.00    +0.000 HD
BRANCH  30  32
ATOM     32  O   UNL     1       5.144   1.506  21.060  0.00  0.00    +0.000 OA
ATOM     33  H   UNL     1       4.210   1.455  21.361  0.00  0.00    +0.000 HD
ENDBRANCH  30  32
ENDBRANCH   1  28
TORSDOF 8
ENDMDL
MODEL 7
REMARK VINA RESULT:      -8.5      5.400      7.736
REMARK  Name = 
REMARK  8 active torsions:
REMARK  status: ('A' for Active; 'I' for Inactive)
REMARK    1  A    between atoms: C_2  and  C_4
REMARK    2  A    between atoms: C_4  and  C_5
REMARK    3  A    between atoms: C_5  and  C_6
REMARK    4  A    between atoms: N_8  and  C_9
REMARK    5  A    between atoms: C_9  and  C_10
REMARK    6  A    between atoms: C_9  and  C_14
REMARK    7  A    between atoms: N_12  and  O_13
REMARK    8  A    between atoms: C_17  and  C_18
REMARK                            x       y       z     vdW  Elec       q    Type
REMARK                         _______ _______ _______ _____ _____    ______ ____
ROOT
ATOM      1  C   UNL     1       6.440   5.036  17.554  0.00  0.00    +0.000 C 
ENDROOT
BRANCH   1   2
ATOM      2  C   UNL     1       7.147   6.336  17.879  0.00  0.00    +0.000 A 
ATOM      3  C   UNL     1       6.891   7.481  17.118  0.00  0.00    +0.000 A 
ATOM      4  C   UNL     1       7.529   8.689  17.416  0.00  0.00    +0.000 A 
ATOM      5  C   UNL     1       8.438   8.801  18.483  0.00  0.00    +0.000 A 
ATOM      6  C   UNL     1       8.692   7.641  19.233  0.00  0.00    +0.000 A 
ATOM      7  C   UNL     1       8.063   6.427  18.936  0.00  0.00    +0.000 A 
BRANCH   5   8
ATOM      8  C   UNL     1       9.102  10.088  18.794  0.00  0.00    +0.000 A 
ATOM      9  C   UNL     1       9.544  10.948  17.769  0.00  0.00    +0.000 A 
ATOM     10  C   UNL     1      10.191  12.148  18.063  0.00  0.00    +0.000 A 
ATOM     11  F   UNL     1      10.609  12.926  17.054  0.00  0.00    +0.000 F 
ATOM     12  C   UNL     1      10.404  12.534  19.375  0.00  0.00    +0.000 A 
ATOM     13  F   UNL     1      11.026  13.689  19.650  0.00  0.00    +0.000 F 
ATOM     14  C   UNL     1       9.966  11.711  20.400  0.00  0.00    +0.000 A 
ATOM     15  F   UNL     1      10.155  12.068  21.678  0.00  0.00    +0.000 F 
ATOM     16  C   UNL     1       9.328  10.500  20.121  0.00  0.00    +0.000 A 
ENDBRANCH   5   8
ENDBRANCH   1   2
BRANCH   1  19
ATOM     17  C   UNL     1       4.417   4.395  18.815  0.00  0.00    +0.000 C 
ATOM     18  O   UNL     1       5.028   3.594  19.514  0.00  0.00    +0.000 OA
ATOM     19  N   UNL     1       5.018   5.143  17.834  0.00  0.00    +0.000 N 
ATOM     20  H   UNL     1       4.504   5.866  17.344  0.00  0.00    +0.000 HD
BRANCH  17  21
ATOM     21  C   UNL     1       2.927   4.607  18.934  0.00  0.00    +0.000 C 
BRANCH  21  22
ATOM     22  C   UNL     1       2.199   3.827  17.847  0.00  0.00    +0.000 C 
BRANCH  22  24
ATOM     23  N   UNL     1       2.508   1.466  18.195  0.00  0.00    +0.000 N 
ATOM     24  C   UNL     1       1.654   2.517  18.352  0.00  0.00    +0.000 C 
ATOM     25  O   UNL     1       0.543   2.367  18.849  0.00  0.00    +0.000 OA
ATOM     26  H   UNL     1       2.199   0.555  18.508  0.00  0.00    +0.000 HD
ATOM     27  H   UNL     1       3.425   1.551  17.777  0.00  0.00    +0.000 HD
ENDBRANCH  22  24
ENDBRANCH  21  22
ENDBRANCH  17  21
ENDBRANCH   1  19
BRANCH   1  28
ATOM     28  C   UNL     1       6.644   4.653  16.076  0.00  0.00    +0.000 C 
ATOM     29  O   UNL     1       7.753   4.534  15.548  0.00  0.00    +0.000 OA
ATOM     30  N   UNL     1       5.479   4.397  15.386  0.00  0.00    +0.000 N 
ATOM     31  H   UNL     1       4.569   4.733  15.682  0.00  0.00    +0.000 HD
BRANCH  30  32
ATOM     32  O   UNL     1       5.622   4.083  14.015  0.00  0.00    +0.000 OA
ATOM     33  H   UNL     1       5.607   3.101  14.015  0.00  0.00    +0.000 HD
ENDBRANCH  30  32
ENDBRANCH   1  28
TORSDOF 8
ENDMDL
MODEL 8
REMARK VINA RESULT:      -8.5      1.406      2.438
REMARK  Name = 
REMARK  8 active torsions:
REMARK  status: ('A' for Active; 'I' for Inactive)
REMARK    1  A    between atoms: C_2  and  C_4
REMARK    2  A    between atoms: C_4  and  C_5
REMARK    3  A    between atoms: C_5  and  C_6
REMARK    4  A    between atoms: N_8  and  C_9
REMARK    5  A    between atoms: C_9  and  C_10
REMARK    6  A    between atoms: C_9  and  C_14
REMARK    7  A    between atoms: N_12  and  O_13
REMARK    8  A    between atoms: C_17  and  C_18
REMARK                            x       y       z     vdW  Elec       q    Type
REMARK                         _______ _______ _______ _____ _____    ______ ____
ROOT
ATOM      1  C   UNL     1       3.739   4.572  18.065  0.00  0.00    +0.000 C 
ENDROOT
BRANCH   1   2
ATOM      2  C   UNL     1       3.014   5.721  18.734  0.00  0.00    +0.000 A 
ATOM      3  C   UNL     1       2.918   6.958  18.090  0.00  0.00    +0.000 A 
ATOM      4  C   UNL     1       2.241   8.023  18.693  0.00  0.00    +0.000 A 
ATOM      5  C   UNL     1       1.633   7.892  19.954  0.00  0.00    +0.000 A 
ATOM      6  C   UNL     1       1.745   6.647  20.594  0.00  0.00    +0.000 A 
ATOM      7  C   UNL     1       2.427   5.579  19.999  0.00  0.00    +0.000 A 
BRANCH   5   8
ATOM      8  C   UNL     1       0.912   9.025  20.580  0.00  0.00    +0.000 A 
ATOM      9  C   UNL     1       0.485   8.966  21.922  0.00  0.00    +0.000 A 
ATOM     10  C   UNL     1      -0.214  10.024  22.503  0.00  0.00    +0.000 A 
ATOM     11  F   UNL     1      -0.615   9.916  23.778  0.00  0.00    +0.000 F 
ATOM     12  C   UNL     1      -0.496  11.168  21.778  0.00  0.00    +0.000 A 
ATOM     13  F   UNL     1      -1.168  12.181  22.343  0.00  0.00    +0.000 F 
ATOM     14  C   UNL     1      -0.075  11.254  20.462  0.00  0.00    +0.000 A 
ATOM     15  F   UNL     1      -0.331  12.356  19.743  0.00  0.00    +0.000 F 
ATOM     16  C   UNL     1       0.616  10.198  19.862  0.00  0.00    +0.000 A 
ENDBRANCH   5   8
ENDBRANCH   1   2
BRANCH   1  19
ATOM     17  C   UNL     1       6.063   4.521  17.233  0.00  0.00    +0.000 C 
ATOM     18  O   UNL     1       5.714   4.267  16.085  0.00  0.00    +0.000 OA
ATOM     19  N   UNL     1       5.174   4.685  18.265  0.00  0.00    +0.000 N 
ATOM     20  H   UNL     1       5.490   4.992  19.179  0.00  0.00    +0.000 HD
BRANCH  17  21
ATOM     21  C   UNL     1       7.513   4.632  17.637  0.00  0.00    +0.000 C 
BRANCH  21  22
ATOM     22  C   UNL     1       7.677   5.703  18.707  0.00  0.00    +0.000 C 
BRANCH  22  24
ATOM     23  N   UNL     1       8.599   7.916  18.930  0.00  0.00    +0.000 N 
ATOM     24  C   UNL     1       7.905   7.070  18.116  0.00  0.00    +0.000 C 
ATOM     25  O   UNL     1       7.503   7.432  17.015  0.00  0.00    +0.000 OA
ATOM     26  H   UNL     1       8.779   8.853  18.594  0.00  0.00    +0.000 HD
ATOM     27  H   UNL     1       8.932   7.656  19.848  0.00  0.00    +0.000 HD
ENDBRANCH  22  24
ENDBRANCH  21  22
ENDBRANCH  17  21
ENDBRANCH   1  19
BRANCH   1  28
ATOM     28  C   UNL     1       3.250   3.218  18.615  0.00  0.00    +0.000 C 
ATOM     29  O   UNL     1       3.838   2.587  19.498  0.00  0.00    +0.000 OA
ATOM     30  N   UNL     1       2.059   2.778  18.077  0.00  0.00    +0.000 N 
ATOM     31  H   UNL     1       1.692   3.106  17.190  0.00  0.00    +0.000 HD
BRANCH  30  32
ATOM     32  O   UNL     1       1.599   1.520  18.524  0.00  0.00    +0.000 OA
ATOM     33  H   UNL     1       0.756   1.745  18.975  0.00  0.00    +0.000 HD
ENDBRANCH  30  32
ENDBRANCH   1  28
TORSDOF 8
ENDMDL
MODEL 9
REMARK VINA RESULT:      -8.5      1.281      2.221
REMARK  Name = 
REMARK  8 active torsions:
REMARK  status: ('A' for Active; 'I' for Inactive)
REMARK    1  A    between atoms: C_2  and  C_4
REMARK    2  A    between atoms: C_4  and  C_5
REMARK    3  A    between atoms: C_5  and  C_6
REMARK    4  A    between atoms: N_8  and  C_9
REMARK    5  A    between atoms: C_9  and  C_10
REMARK    6  A    between atoms: C_9  and  C_14
REMARK    7  A    between atoms: N_12  and  O_13
REMARK    8  A    between atoms: C_17  and  C_18
REMARK                            x       y       z     vdW  Elec       q    Type
REMARK                         _______ _______ _______ _____ _____    ______ ____
ROOT
ATOM      1  C   UNL     1       3.425   5.871  17.513  0.00  0.00    +0.000 C 
ENDROOT
BRANCH   1   2
ATOM      2  C   UNL     1       2.738   6.935  18.343  0.00  0.00    +0.000 A 
ATOM      3  C   UNL     1       2.396   8.161  17.765  0.00  0.00    +0.000 A 
ATOM      4  C   UNL     1       1.751   9.147  18.519  0.00  0.00    +0.000 A 
ATOM      5  C   UNL     1       1.421   8.945  19.871  0.00  0.00    +0.000 A 
ATOM      6  C   UNL     1       1.779   7.712  20.441  0.00  0.00    +0.000 A 
ATOM      7  C   UNL     1       2.431   6.724  19.695  0.00  0.00    +0.000 A 
BRANCH   5   8
ATOM      8  C   UNL     1       0.731   9.994  20.657  0.00  0.00    +0.000 A 
ATOM      9  C   UNL     1      -0.038   9.668  21.793  0.00  0.00    +0.000 A 
ATOM     10  C   UNL     1      -0.706  10.654  22.518  0.00  0.00    +0.000 A 
ATOM     11  F   UNL     1      -1.440  10.295  23.581  0.00  0.00    +0.000 F 
ATOM     12  C   UNL     1      -0.619  11.985  22.149  0.00  0.00    +0.000 A 
ATOM     13  F   UNL     1      -1.263  12.927  22.851  0.00  0.00    +0.000 F 
ATOM     14  C   UNL     1       0.142  12.331  21.045  0.00  0.00    +0.000 A 
ATOM     15  F   UNL     1       0.246  13.614  20.673  0.00  0.00    +0.000 F 
ATOM     16  C   UNL     1       0.807  11.353  20.301  0.00  0.00    +0.000 A 
ENDBRANCH   5   8
ENDBRANCH   1   2
BRANCH   1  19
ATOM     17  C   UNL     1       5.621   6.433  16.535  0.00  0.00    +0.000 C 
ATOM     18  O   UNL     1       5.134   6.725  15.448  0.00  0.00    +0.000 OA
ATOM     19  N   UNL     1       4.870   6.005  17.601  0.00  0.00    +0.000 N 
ATOM     20  H   UNL     1       5.292   5.869  18.512  0.00  0.00    +0.000 HD
BRANCH  17  21
ATOM     21  C   UNL     1       7.107   6.471  16.797  0.00  0.00    +0.000 C 
BRANCH  21  22
ATOM     22  C   UNL     1       7.372   6.711  18.277  0.00  0.00    +0.000 C 
BRANCH  22  24
ATOM     23  N   UNL     1       7.933   4.372  18.195  0.00  0.00    +0.000 N 
ATOM     24  C   UNL     1       7.698   5.438  19.013  0.00  0.00    +0.000 C 
ATOM     25  O   UNL     1       7.742   5.327  20.233  0.00  0.00    +0.000 OA
ATOM     26  H   UNL     1       8.151   3.484  18.628  0.00  0.00    +0.000 HD
ATOM     27  H   UNL     1       7.892   4.425  17.187  0.00  0.00    +0.000 HD
ENDBRANCH  22  24
ENDBRANCH  21  22
ENDBRANCH  17  21
ENDBRANCH   1  19
BRANCH   1  28
ATOM     28  C   UNL     1       3.013   4.460  17.977  0.00  0.00    +0.000 C 
ATOM     29  O   UNL     1       3.742   3.720  18.643  0.00  0.00    +0.000 OA
ATOM     30  N   UNL     1       1.729   4.097  17.632  0.00  0.00    +0.000 N 
ATOM     31  H   UNL     1       1.206   4.536  16.882  0.00  0.00    +0.000 HD
BRANCH  30  32
ATOM     32  O   UNL     1       1.328   2.794  18.003  0.00  0.00    +0.000 OA
ATOM     33  H   UNL     1       0.377   2.781  17.757  0.00  0.00    +0.000 HD
ENDBRANCH  30  32
ENDBRANCH   1  28
TORSDOF 8
ENDMDL
