MODEL 1
REMARK VINA RESULT:      -8.2      0.000      0.000
REMARK  Name = 
REMARK  6 active torsions:
REMARK  status: ('A' for Active; 'I' for Inactive)
REMARK    1  A    between atoms: C_1  and  C_2
REMARK    2  A    between atoms: C_6  and  C_7
REMARK    3  A    between atoms: C_8  and  C_9
REMARK    4  A    between atoms: C_11  and  O_12
REMARK    5  A    between atoms: C_17  and  C_18
REMARK    6  A    between atoms: C_23  and  C_24
REMARK                            x       y       z     vdW  Elec       q    Type
REMARK                         _______ _______ _______ _____ _____    ______ ____
ROOT
ATOM      1  C   UNL     1      -0.353   9.278  22.041  0.00  0.00    +0.000 C 
ATOM      2  C   UNL     1       0.568   8.740  20.985  0.00  0.00    +0.000 A 
ATOM      3  C   UNL     1       1.062   9.560  19.974  0.00  0.00    +0.000 A 
ATOM      4  C   UNL     1       1.904   9.034  18.992  0.00  0.00    +0.000 A 
ATOM      5 CL   UNL     1       2.495  10.147  17.796  0.00  0.00    +0.000 Cl
ATOM      6  C   UNL     1       2.260   7.665  18.982  0.00  0.00    +0.000 A 
ATOM      7  C   UNL     1       1.755   6.799  19.998  0.00  0.00    +0.000 A 
ATOM      8  C   UNL     1       0.927   7.385  20.991  0.00  0.00    +0.000 A 
ENDROOT
BRANCH   7   9
ATOM      9  C   UNL     1       2.007   5.323  20.063  0.00  0.00    +0.000 A 
ATOM     10  C   UNL     1       2.202   4.631  21.274  0.00  0.00    +0.000 A 
ATOM     11  C   UNL     1       2.542   3.275  21.305  0.00  0.00    +0.000 A 
ATOM     12  C   UNL     1       2.620   2.558  20.121  0.00  0.00    +0.000 A 
ATOM     13  F   UNL     1       2.952   1.260  20.172  0.00  0.00    +0.000 F 
ATOM     14  C   UNL     1       2.351   3.167  18.900  0.00  0.00    +0.000 A 
ATOM     15  C   UNL     1       2.351   2.384  17.623  0.00  0.00    +0.000 C 
ATOM     16  C   UNL     1       2.066   4.544  18.884  0.00  0.00    +0.000 A 
ENDBRANCH   7   9
BRANCH   6  17
ATOM     17  C   UNL     1       3.184   7.184  17.937  0.00  0.00    +0.000 C 
ATOM     18  C   UNL     1       4.404   6.668  18.163  0.00  0.00    +0.000 C 
BRANCH  18  19
ATOM     19  C   UNL     1       5.390   6.276  17.081  0.00  0.00    +0.000 C 
ATOM     20  C   UNL     1       4.715   5.386  16.048  0.00  0.00    +0.000 C 
ATOM     21  C   UNL     1       5.757   4.798  15.120  0.00  0.00    +0.000 C 
ATOM     22  C   UNL     1       6.757   3.976  15.900  0.00  0.00    +0.000 C 
ATOM     23  C   UNL     1       7.256   4.639  17.154  0.00  0.00    +0.000 C 
ATOM     24  O   UNL     1       8.261   4.221  17.721  0.00  0.00    +0.000 OA
ATOM     25  O   UNL     1       6.547   5.649  17.684  0.00  0.00    +0.000 OA
BRANCH  21  26
ATOM     26  O   UNL     1       6.389   5.817  14.347  0.00  0.00    +0.000 OA
ATOM     27  H   UNL     1       7.354   5.784  14.467  0.00  0.00    +0.000 HD
ENDBRANCH  21  26
ENDBRANCH  18  19
ENDBRANCH   6  17
TORSDOF 4
ENDMDL
MODEL 2
REMARK VINA RESULT:      -7.9      1.085      1.138
REMARK  Name = 
REMARK  6 active torsions:
REMARK  status: ('A' for Active; 'I' for Inactive)
REMARK    1  A    between atoms: C_1  and  C_2
REMARK    2  A    between atoms: C_6  and  C_7
REMARK    3  A    between atoms: C_8  and  C_9
REMARK    4  A    between atoms: C_11  and  O_12
REMARK    5  A    between atoms: C_17  and  C_18
REMARK    6  A    between atoms: C_23  and  C_24
REMARK                            x       y       z     vdW  Elec       q    Type
REMARK                         _______ _______ _______ _____ _____    ______ ____
ROOT
ATOM      1  C   UNL     1      -0.350   9.066  22.404  0.00  0.00    +0.000 C 
ATOM      2  C   UNL     1       0.525   8.652  21.257  0.00  0.00    +0.000 A 
ATOM      3  C   UNL     1       0.899   9.561  20.271  0.00  0.00    +0.000 A 
ATOM      4  C   UNL     1       1.700   9.149  19.203  0.00  0.00    +0.000 A 
ATOM      5 CL   UNL     1       2.140  10.367  18.047  0.00  0.00    +0.000 Cl
ATOM      6  C   UNL     1       2.133   7.809  19.082  0.00  0.00    +0.000 A 
ATOM      7  C   UNL     1       1.751   6.853  20.070  0.00  0.00    +0.000 A 
ATOM      8  C   UNL     1       0.962   7.324  21.151  0.00  0.00    +0.000 A 
ENDROOT
BRANCH   7   9
ATOM      9  C   UNL     1       2.093   5.394  20.023  0.00  0.00    +0.000 A 
ATOM     10  C   UNL     1       3.304   4.873  20.520  0.00  0.00    +0.000 A 
ATOM     11  C   UNL     1       3.648   3.526  20.367  0.00  0.00    +0.000 A 
ATOM     12  C   UNL     1       2.749   2.648  19.781  0.00  0.00    +0.000 A 
ATOM     13  F   UNL     1       3.100   1.363  19.641  0.00  0.00    +0.000 F 
ATOM     14  C   UNL     1       1.502   3.088  19.351  0.00  0.00    +0.000 A 
ATOM     15  C   UNL     1       0.491   2.133  18.792  0.00  0.00    +0.000 C 
ATOM     16  C   UNL     1       1.195   4.456  19.460  0.00  0.00    +0.000 A 
ENDBRANCH   7   9
BRANCH   6  17
ATOM     17  C   UNL     1       3.008   7.451  17.949  0.00  0.00    +0.000 C 
ATOM     18  C   UNL     1       3.506   6.225  17.715  0.00  0.00    +0.000 C 
BRANCH  18  19
ATOM     19  C   UNL     1       4.491   5.887  16.613  0.00  0.00    +0.000 C 
ATOM     20  C   UNL     1       4.716   4.384  16.549  0.00  0.00    +0.000 C 
ATOM     21  C   UNL     1       5.879   4.080  15.629  0.00  0.00    +0.000 C 
ATOM     22  C   UNL     1       7.140   4.747  16.129  0.00  0.00    +0.000 C 
ATOM     23  C   UNL     1       6.956   6.180  16.546  0.00  0.00    +0.000 C 
ATOM     24  O   UNL     1       7.928   6.912  16.699  0.00  0.00    +0.000 OA
ATOM     25  O   UNL     1       5.719   6.625  16.818  0.00  0.00    +0.000 OA
BRANCH  21  26
ATOM     26  O   UNL     1       5.578   4.447  14.283  0.00  0.00    +0.000 OA
ATOM     27  H   UNL     1       4.755   4.016  13.991  0.00  0.00    +0.000 HD
ENDBRANCH  21  26
ENDBRANCH  18  19
ENDBRANCH   6  17
TORSDOF 4
ENDMDL
MODEL 3
REMARK VINA RESULT:      -7.9      3.008      6.335
REMARK  Name = 
REMARK  6 active torsions:
REMARK  status: ('A' for Active; 'I' for Inactive)
REMARK    1  A    between atoms: C_1  and  C_2
REMARK    2  A    between atoms: C_6  and  C_7
REMARK    3  A    between atoms: C_8  and  C_9
REMARK    4  A    between atoms: C_11  and  O_12
REMARK    5  A    between atoms: C_17  and  C_18
REMARK    6  A    between atoms: C_23  and  C_24
REMARK                            x       y       z     vdW  Elec       q    Type
REMARK                         _______ _______ _______ _____ _____    ______ ____
ROOT
ATOM      1  C   UNL     1       6.330   3.690  14.369  0.00  0.00    +0.000 C 
ATOM      2  C   UNL     1       5.731   4.534  15.457  0.00  0.00    +0.000 A 
ATOM      3  C   UNL     1       6.227   5.802  15.741  0.00  0.00    +0.000 A 
ATOM      4  C   UNL     1       5.665   6.563  16.769  0.00  0.00    +0.000 A 
ATOM      5 CL   UNL     1       6.332   8.147  17.019  0.00  0.00    +0.000 Cl
ATOM      6  C   UNL     1       4.602   6.064  17.557  0.00  0.00    +0.000 A 
ATOM      7  C   UNL     1       4.084   4.760  17.297  0.00  0.00    +0.000 A 
ATOM      8  C   UNL     1       4.667   4.037  16.224  0.00  0.00    +0.000 A 
ENDROOT
BRANCH   7   9
ATOM      9  C   UNL     1       3.005   4.096  18.098  0.00  0.00    +0.000 A 
ATOM     10  C   UNL     1       1.718   3.837  17.585  0.00  0.00    +0.000 A 
ATOM     11  C   UNL     1       0.695   3.316  18.382  0.00  0.00    +0.000 A 
ATOM     12  C   UNL     1       0.958   2.966  19.698  0.00  0.00    +0.000 A 
ATOM     13  F   UNL     1      -0.038   2.472  20.446  0.00  0.00    +0.000 F 
ATOM     14  C   UNL     1       2.232   3.116  20.234  0.00  0.00    +0.000 A 
ATOM     15  C   UNL     1       2.548   2.665  21.627  0.00  0.00    +0.000 C 
ATOM     16  C   UNL     1       3.235   3.695  19.435  0.00  0.00    +0.000 A 
ENDBRANCH   7   9
BRANCH   6  17
ATOM     17  C   UNL     1       4.030   6.935  18.602  0.00  0.00    +0.000 C 
ATOM     18  C   UNL     1       2.758   7.366  18.638  0.00  0.00    +0.000 C 
BRANCH  18  19
ATOM     19  C   UNL     1       2.205   8.346  19.653  0.00  0.00    +0.000 C 
ATOM     20  C   UNL     1       1.439   7.606  20.739  0.00  0.00    +0.000 C 
ATOM     21  C   UNL     1       0.683   8.598  21.598  0.00  0.00    +0.000 C 
ATOM     22  C   UNL     1      -0.292   9.391  20.760  0.00  0.00    +0.000 C 
ATOM     23  C   UNL     1       0.280   9.904  19.467  0.00  0.00    +0.000 C 
ATOM     24  O   UNL     1      -0.299  10.783  18.837  0.00  0.00    +0.000 OA
ATOM     25  O   UNL     1       1.395   9.337  18.978  0.00  0.00    +0.000 OA
BRANCH  21  26
ATOM     26  O   UNL     1       1.581   9.442  22.316  0.00  0.00    +0.000 OA
ATOM     27  H   UNL     1       2.487   9.090  22.271  0.00  0.00    +0.000 HD
ENDBRANCH  21  26
ENDBRANCH  18  19
ENDBRANCH   6  17
TORSDOF 4
ENDMDL
MODEL 4
REMARK VINA RESULT:      -7.5      1.056      1.650
REMARK  Name = 
REMARK  6 active torsions:
REMARK  status: ('A' for Active; 'I' for Inactive)
REMARK    1  A    between atoms: C_1  and  C_2
REMARK    2  A    between atoms: C_6  and  C_7
REMARK    3  A    between atoms: C_8  and  C_9
REMARK    4  A    between atoms: C_11  and  O_12
REMARK    5  A    between atoms: C_17  and  C_18
REMARK    6  A    between atoms: C_23  and  C_24
REMARK                            x       y       z     vdW  Elec       q    Type
REMARK                         _______ _______ _______ _____ _____    ______ ____
ROOT
ATOM      1  C   UNL     1      -0.412   9.258  22.393  0.00  0.00    +0.000 C 
ATOM      2  C   UNL     1       0.425   8.811  21.230  0.00  0.00    +0.000 A 
ATOM      3  C   UNL     1       0.941   9.727  20.319  0.00  0.00    +0.000 A 
ATOM      4  C   UNL     1       1.703   9.287  19.234  0.00  0.00    +0.000 A 
ATOM      5 CL   UNL     1       2.332  10.513  18.177  0.00  0.00    +0.000 Cl
ATOM      6  C   UNL     1       1.952   7.912  19.019  0.00  0.00    +0.000 A 
ATOM      7  C   UNL     1       1.420   6.949  19.929  0.00  0.00    +0.000 A 
ATOM      8  C   UNL     1       0.678   7.446  21.032  0.00  0.00    +0.000 A 
ENDROOT
BRANCH   7   9
ATOM      9  C   UNL     1       1.561   5.465  19.778  0.00  0.00    +0.000 A 
ATOM     10  C   UNL     1       1.359   4.796  18.554  0.00  0.00    +0.000 A 
ATOM     11  C   UNL     1       1.389   3.401  18.460  0.00  0.00    +0.000 A 
ATOM     12  C   UNL     1       1.701   2.642  19.577  0.00  0.00    +0.000 A 
ATOM     13  F   UNL     1       1.720   1.307  19.466  0.00  0.00    +0.000 F 
ATOM     14  C   UNL     1       1.996   3.251  20.792  0.00  0.00    +0.000 A 
ATOM     15  C   UNL     1       2.415   2.446  21.984  0.00  0.00    +0.000 C 
ATOM     16  C   UNL     1       1.906   4.652  20.883  0.00  0.00    +0.000 A 
ENDBRANCH   7   9
BRANCH   6  17
ATOM     17  C   UNL     1       2.796   7.519  17.875  0.00  0.00    +0.000 C 
ATOM     18  C   UNL     1       3.652   6.484  17.866  0.00  0.00    +0.000 C 
BRANCH  18  19
ATOM     19  C   UNL     1       4.595   6.151  16.726  0.00  0.00    +0.000 C 
ATOM     20  C   UNL     1       4.793   4.645  16.628  0.00  0.00    +0.000 C 
ATOM     21  C   UNL     1       5.920   4.340  15.664  0.00  0.00    +0.000 C 
ATOM     22  C   UNL     1       7.207   4.976  16.134  0.00  0.00    +0.000 C 
ATOM     23  C   UNL     1       7.061   6.404  16.584  0.00  0.00    +0.000 C 
ATOM     24  O   UNL     1       8.050   7.118  16.717  0.00  0.00    +0.000 OA
ATOM     25  O   UNL     1       5.841   6.864  16.904  0.00  0.00    +0.000 OA
BRANCH  21  26
ATOM     26  O   UNL     1       5.581   4.736  14.336  0.00  0.00    +0.000 OA
ATOM     27  H   UNL     1       4.616   4.838  14.249  0.00  0.00    +0.000 HD
ENDBRANCH  21  26
ENDBRANCH  18  19
ENDBRANCH   6  17
TORSDOF 4
ENDMDL
MODEL 5
REMARK VINA RESULT:      -7.4      6.473     10.077
REMARK  Name = 
REMARK  6 active torsions:
REMARK  status: ('A' for Active; 'I' for Inactive)
REMARK    1  A    between atoms: C_1  and  C_2
REMARK    2  A    between atoms: C_6  and  C_7
REMARK    3  A    between atoms: C_8  and  C_9
REMARK    4  A    between atoms: C_11  and  O_12
REMARK    5  A    between atoms: C_17  and  C_18
REMARK    6  A    between atoms: C_23  and  C_24
REMARK                            x       y       z     vdW  Elec       q    Type
REMARK                         _______ _______ _______ _____ _____    ______ ____
ROOT
ATOM      1  C   UNL     1       2.784   7.936  17.452  0.00  0.00    +0.000 C 
ATOM      2  C   UNL     1       1.832   8.585  18.415  0.00  0.00    +0.000 A 
ATOM      3  C   UNL     1       2.044   8.522  19.789  0.00  0.00    +0.000 A 
ATOM      4  C   UNL     1       1.136   9.119  20.668  0.00  0.00    +0.000 A 
ATOM      5 CL   UNL     1       1.510   9.016  22.361  0.00  0.00    +0.000 Cl
ATOM      6  C   UNL     1      -0.022   9.778  20.195  0.00  0.00    +0.000 A 
ATOM      7  C   UNL     1      -0.271   9.843  18.791  0.00  0.00    +0.000 A 
ATOM      8  C   UNL     1       0.693   9.249  17.937  0.00  0.00    +0.000 A 
ENDROOT
BRANCH   7   9
ATOM      9  C   UNL     1      -1.489  10.457  18.169  0.00  0.00    +0.000 A 
ATOM     10  C   UNL     1      -2.277  11.426  18.820  0.00  0.00    +0.000 A 
ATOM     11  C   UNL     1      -3.468  11.905  18.266  0.00  0.00    +0.000 A 
ATOM     12  C   UNL     1      -3.860  11.482  17.005  0.00  0.00    +0.000 A 
ATOM     13  F   UNL     1      -5.007  11.950  16.494  0.00  0.00    +0.000 F 
ATOM     14  C   UNL     1      -3.077  10.593  16.277  0.00  0.00    +0.000 A 
ATOM     15  C   UNL     1      -3.448  10.192  14.882  0.00  0.00    +0.000 C 
ATOM     16  C   UNL     1      -1.912  10.078  16.873  0.00  0.00    +0.000 A 
ENDBRANCH   7   9
BRANCH   6  17
ATOM     17  C   UNL     1      -0.919  10.419  21.176  0.00  0.00    +0.000 C 
ATOM     18  C   UNL     1      -0.619  11.511  21.899  0.00  0.00    +0.000 C 
BRANCH  18  19
ATOM     19  C   UNL     1      -1.500  12.100  22.982  0.00  0.00    +0.000 C 
ATOM     20  C   UNL     1      -2.869  12.449  22.416  0.00  0.00    +0.000 C 
ATOM     21  C   UNL     1      -3.648  13.262  23.428  0.00  0.00    +0.000 C 
ATOM     22  C   UNL     1      -2.913  14.540  23.762  0.00  0.00    +0.000 C 
ATOM     23  C   UNL     1      -1.443  14.355  24.020  0.00  0.00    +0.000 C 
ATOM     24  O   UNL     1      -0.793  15.239  24.569  0.00  0.00    +0.000 OA
ATOM     25  O   UNL     1      -0.838  13.240  23.578  0.00  0.00    +0.000 OA
BRANCH  21  26
ATOM     26  O   UNL     1      -3.937  12.491  24.593  0.00  0.00    +0.000 OA
ATOM     27  H   UNL     1      -4.305  13.059  25.292  0.00  0.00    +0.000 HD
ENDBRANCH  21  26
ENDBRANCH  18  19
ENDBRANCH   6  17
TORSDOF 4
ENDMDL
MODEL 6
REMARK VINA RESULT:      -7.4      8.534     11.462
REMARK  Name = 
REMARK  6 active torsions:
REMARK  status: ('A' for Active; 'I' for Inactive)
REMARK    1  A    between atoms: C_1  and  C_2
REMARK    2  A    between atoms: C_6  and  C_7
REMARK    3  A    between atoms: C_8  and  C_9
REMARK    4  A    between atoms: C_11  and  O_12
REMARK    5  A    between atoms: C_17  and  C_18
REMARK    6  A    between atoms: C_23  and  C_24
REMARK                            x       y       z     vdW  Elec       q    Type
REMARK                         _______ _______ _______ _____ _____    ______ ____
ROOT
ATOM      1  C   UNL     1      -3.211  10.469  14.598  0.00  0.00    +0.000 C 
ATOM      2  C   UNL     1      -3.489  10.869  16.018  0.00  0.00    +0.000 A 
ATOM      3  C   UNL     1      -4.792  11.013  16.485  0.00  0.00    +0.000 A 
ATOM      4  C   UNL     1      -5.027  11.402  17.805  0.00  0.00    +0.000 A 
ATOM      5 CL   UNL     1      -6.688  11.517  18.299  0.00  0.00    +0.000 Cl
ATOM      6  C   UNL     1      -3.961  11.680  18.692  0.00  0.00    +0.000 A 
ATOM      7  C   UNL     1      -2.615  11.556  18.235  0.00  0.00    +0.000 A 
ATOM      8  C   UNL     1      -2.426  11.129  16.895  0.00  0.00    +0.000 A 
ENDROOT
BRANCH   7   9
ATOM      9  C   UNL     1      -1.403  11.881  19.055  0.00  0.00    +0.000 A 
ATOM     10  C   UNL     1      -0.795  13.151  19.057  0.00  0.00    +0.000 A 
ATOM     11  C   UNL     1       0.397  13.401  19.745  0.00  0.00    +0.000 A 
ATOM     12  C   UNL     1       0.969  12.400  20.516  0.00  0.00    +0.000 A 
ATOM     13  F   UNL     1       2.113  12.659  21.164  0.00  0.00    +0.000 F 
ATOM     14  C   UNL     1       0.367  11.152  20.623  0.00  0.00    +0.000 A 
ATOM     15  C   UNL     1       0.931  10.090  21.518  0.00  0.00    +0.000 C 
ATOM     16  C   UNL     1      -0.801  10.901  19.879  0.00  0.00    +0.000 A 
ENDBRANCH   7   9
BRANCH   6  17
ATOM     17  C   UNL     1      -4.280  12.051  20.084  0.00  0.00    +0.000 C 
ATOM     18  C   UNL     1      -4.577  13.292  20.504  0.00  0.00    +0.000 C 
BRANCH  18  19
ATOM     19  C   UNL     1      -4.797  13.685  21.952  0.00  0.00    +0.000 C 
ATOM     20  C   UNL     1      -3.621  13.236  22.805  0.00  0.00    +0.000 C 
ATOM     21  C   UNL     1      -3.959  13.403  24.272  0.00  0.00    +0.000 C 
ATOM     22  C   UNL     1      -5.173  12.578  24.632  0.00  0.00    +0.000 C 
ATOM     23  C   UNL     1      -6.308  12.689  23.652  0.00  0.00    +0.000 C 
ATOM     24  O   UNL     1      -7.434  12.309  23.959  0.00  0.00    +0.000 OA
ATOM     25  O   UNL     1      -6.057  13.144  22.414  0.00  0.00    +0.000 OA
BRANCH  21  26
ATOM     26  O   UNL     1      -4.129  14.779  24.605  0.00  0.00    +0.000 OA
ATOM     27  H   UNL     1      -3.744  14.966  25.480  0.00  0.00    +0.000 HD
ENDBRANCH  21  26
ENDBRANCH  18  19
ENDBRANCH   6  17
TORSDOF 4
ENDMDL
MODEL 7
REMARK VINA RESULT:      -7.3      8.327     11.277
REMARK  Name = 
REMARK  6 active torsions:
REMARK  status: ('A' for Active; 'I' for Inactive)
REMARK    1  A    between atoms: C_1  and  C_2
REMARK    2  A    between atoms: C_6  and  C_7
REMARK    3  A    between atoms: C_8  and  C_9
REMARK    4  A    between atoms: C_11  and  O_12
REMARK    5  A    between atoms: C_17  and  C_18
REMARK    6  A    between atoms: C_23  and  C_24
REMARK                            x       y       z     vdW  Elec       q    Type
REMARK                         _______ _______ _______ _____ _____    ______ ____
ROOT
ATOM      1  C   UNL     1      -3.228  10.308  14.679  0.00  0.00    +0.000 C 
ATOM      2  C   UNL     1      -3.494  10.823  16.064  0.00  0.00    +0.000 A 
ATOM      3  C   UNL     1      -4.790  11.079  16.501  0.00  0.00    +0.000 A 
ATOM      4  C   UNL     1      -5.013  11.573  17.788  0.00  0.00    +0.000 A 
ATOM      5 CL   UNL     1      -6.668  11.824  18.250  0.00  0.00    +0.000 Cl
ATOM      6  C   UNL     1      -3.940  11.846  18.668  0.00  0.00    +0.000 A 
ATOM      7  C   UNL     1      -2.600  11.608  18.240  0.00  0.00    +0.000 A 
ATOM      8  C   UNL     1      -2.425  11.078  16.935  0.00  0.00    +0.000 A 
ENDROOT
BRANCH   7   9
ATOM      9  C   UNL     1      -1.378  11.914  19.052  0.00  0.00    +0.000 A 
ATOM     10  C   UNL     1      -0.742  13.171  19.038  0.00  0.00    +0.000 A 
ATOM     11  C   UNL     1       0.458  13.400  19.720  0.00  0.00    +0.000 A 
ATOM     12  C   UNL     1       1.010  12.396  20.499  0.00  0.00    +0.000 A 
ATOM     13  F   UNL     1       2.162  12.635  21.140  0.00  0.00    +0.000 F 
ATOM     14  C   UNL     1       0.381  11.162  20.622  0.00  0.00    +0.000 A 
ATOM     15  C   UNL     1       0.924  10.098  21.525  0.00  0.00    +0.000 C 
ATOM     16  C   UNL     1      -0.795  10.929  19.884  0.00  0.00    +0.000 A 
ENDBRANCH   7   9
BRANCH   6  17
ATOM     17  C   UNL     1      -4.249  12.332  20.027  0.00  0.00    +0.000 C 
ATOM     18  C   UNL     1      -4.295  13.624  20.393  0.00  0.00    +0.000 C 
BRANCH  18  19
ATOM     19  C   UNL     1      -4.505  14.113  21.813  0.00  0.00    +0.000 C 
ATOM     20  C   UNL     1      -3.301  14.919  22.277  0.00  0.00    +0.000 C 
ATOM     21  C   UNL     1      -3.406  15.184  23.764  0.00  0.00    +0.000 C 
ATOM     22  C   UNL     1      -3.455  13.884  24.533  0.00  0.00    +0.000 C 
ATOM     23  C   UNL     1      -4.393  12.860  23.954  0.00  0.00    +0.000 C 
ATOM     24  O   UNL     1      -4.740  11.890  24.619  0.00  0.00    +0.000 OA
ATOM     25  O   UNL     1      -4.787  12.987  22.676  0.00  0.00    +0.000 OA
BRANCH  21  26
ATOM     26  O   UNL     1      -4.523  16.022  24.058  0.00  0.00    +0.000 OA
ATOM     27  H   UNL     1      -5.072  16.145  23.263  0.00  0.00    +0.000 HD
ENDBRANCH  21  26
ENDBRANCH  18  19
ENDBRANCH   6  17
TORSDOF 4
ENDMDL
MODEL 8
REMARK VINA RESULT:      -7.3      0.713      1.251
REMARK  Name = 
REMARK  6 active torsions:
REMARK  status: ('A' for Active; 'I' for Inactive)
REMARK    1  A    between atoms: C_1  and  C_2
REMARK    2  A    between atoms: C_6  and  C_7
REMARK    3  A    between atoms: C_8  and  C_9
REMARK    4  A    between atoms: C_11  and  O_12
REMARK    5  A    between atoms: C_17  and  C_18
REMARK    6  A    between atoms: C_23  and  C_24
REMARK                            x       y       z     vdW  Elec       q    Type
REMARK                         _______ _______ _______ _____ _____    ______ ____
ROOT
ATOM      1  C   UNL     1      -0.379   8.644  22.060  0.00  0.00    +0.000 C 
ATOM      2  C   UNL     1       0.562   8.246  20.961  0.00  0.00    +0.000 A 
ATOM      3  C   UNL     1       1.110   9.194  20.102  0.00  0.00    +0.000 A 
ATOM      4  C   UNL     1       1.971   8.800  19.075  0.00  0.00    +0.000 A 
ATOM      5 CL   UNL     1       2.629  10.063  18.083  0.00  0.00    +0.000 Cl
ATOM      6  C   UNL     1       2.291   7.438  18.866  0.00  0.00    +0.000 A 
ATOM      7  C   UNL     1       1.730   6.443  19.722  0.00  0.00    +0.000 A 
ATOM      8  C   UNL     1       0.886   6.895  20.769  0.00  0.00    +0.000 A 
ENDROOT
BRANCH   7   9
ATOM      9  C   UNL     1       1.942   4.967  19.566  0.00  0.00    +0.000 A 
ATOM     10  C   UNL     1       1.117   4.154  18.764  0.00  0.00    +0.000 A 
ATOM     11  C   UNL     1       1.267   2.765  18.719  0.00  0.00    +0.000 A 
ATOM     12  C   UNL     1       2.301   2.161  19.418  0.00  0.00    +0.000 A 
ATOM     13  F   UNL     1       2.425   0.828  19.365  0.00  0.00    +0.000 F 
ATOM     14  C   UNL     1       3.201   2.921  20.157  0.00  0.00    +0.000 A 
ATOM     15  C   UNL     1       4.370   2.289  20.848  0.00  0.00    +0.000 C 
ATOM     16  C   UNL     1       3.001   4.312  20.237  0.00  0.00    +0.000 A 
ENDBRANCH   7   9
BRANCH   6  17
ATOM     17  C   UNL     1       3.236   7.094  17.786  0.00  0.00    +0.000 C 
ATOM     18  C   UNL     1       4.319   6.312  17.928  0.00  0.00    +0.000 C 
BRANCH  18  19
ATOM     19  C   UNL     1       5.344   6.050  16.843  0.00  0.00    +0.000 C 
ATOM     20  C   UNL     1       4.751   5.164  15.758  0.00  0.00    +0.000 C 
ATOM     21  C   UNL     1       5.845   4.703  14.818  0.00  0.00    +0.000 C 
ATOM     22  C   UNL     1       6.897   3.922  15.572  0.00  0.00    +0.000 C 
ATOM     23  C   UNL     1       7.329   4.558  16.864  0.00  0.00    +0.000 C 
ATOM     24  O   UNL     1       8.357   4.189  17.424  0.00  0.00    +0.000 OA
ATOM     25  O   UNL     1       6.539   5.483  17.432  0.00  0.00    +0.000 OA
BRANCH  21  26
ATOM     26  O   UNL     1       6.405   5.804  14.105  0.00  0.00    +0.000 OA
ATOM     27  H   UNL     1       7.123   5.500  13.522  0.00  0.00    +0.000 HD
ENDBRANCH  21  26
ENDBRANCH  18  19
ENDBRANCH   6  17
TORSDOF 4
ENDMDL
MODEL 9
REMARK VINA RESULT:      -7.2      9.056     11.485
REMARK  Name = 
REMARK  6 active torsions:
REMARK  status: ('A' for Active; 'I' for Inactive)
REMARK    1  A    between atoms: C_1  and  C_2
REMARK    2  A    between atoms: C_6  and  C_7
REMARK    3  A    between atoms: C_8  and  C_9
REMARK    4  A    between atoms: C_11  and  O_12
REMARK    5  A    between atoms: C_17  and  C_18
REMARK    6  A    between atoms: C_23  and  C_24
REMARK                            x       y       z     vdW  Elec       q    Type
REMARK                         _______ _______ _______ _____ _____    ______ ____
ROOT
ATOM      1  C   UNL     1      -3.036  10.255  14.752  0.00  0.00    +0.000 C 
ATOM      2  C   UNL     1      -3.288  10.782  16.135  0.00  0.00    +0.000 A 
ATOM      3  C   UNL     1      -4.582  10.929  16.625  0.00  0.00    +0.000 A 
ATOM      4  C   UNL     1      -4.795  11.437  17.908  0.00  0.00    +0.000 A 
ATOM      5 CL   UNL     1      -6.445  11.546  18.439  0.00  0.00    +0.000 Cl
ATOM      6  C   UNL     1      -3.715  11.833  18.731  0.00  0.00    +0.000 A 
ATOM      7  C   UNL     1      -2.378  11.708  18.247  0.00  0.00    +0.000 A 
ATOM      8  C   UNL     1      -2.211  11.159  16.950  0.00  0.00    +0.000 A 
ENDROOT
BRANCH   7   9
ATOM      9  C   UNL     1      -1.156  12.148  18.995  0.00  0.00    +0.000 A 
ATOM     10  C   UNL     1      -0.552  11.371  20.003  0.00  0.00    +0.000 A 
ATOM     11  C   UNL     1       0.522  11.848  20.761  0.00  0.00    +0.000 A 
ATOM     12  C   UNL     1       1.069  13.089  20.475  0.00  0.00    +0.000 A 
ATOM     13  F   UNL     1       2.096  13.528  21.217  0.00  0.00    +0.000 F 
ATOM     14  C   UNL     1       0.572  13.864  19.434  0.00  0.00    +0.000 A 
ATOM     15  C   UNL     1       1.207  15.168  19.062  0.00  0.00    +0.000 C 
ATOM     16  C   UNL     1      -0.545  13.394  18.719  0.00  0.00    +0.000 A 
ENDBRANCH   7   9
BRANCH   6  17
ATOM     17  C   UNL     1      -4.008  12.326  20.090  0.00  0.00    +0.000 C 
ATOM     18  C   UNL     1      -4.279  13.604  20.407  0.00  0.00    +0.000 C 
BRANCH  18  19
ATOM     19  C   UNL     1      -4.473  14.123  21.818  0.00  0.00    +0.000 C 
ATOM     20  C   UNL     1      -3.218  14.842  22.292  0.00  0.00    +0.000 C 
ATOM     21  C   UNL     1      -3.324  15.130  23.775  0.00  0.00    +0.000 C 
ATOM     22  C   UNL     1      -3.481  13.846  24.555  0.00  0.00    +0.000 C 
ATOM     23  C   UNL     1      -4.484  12.889  23.973  0.00  0.00    +0.000 C 
ATOM     24  O   UNL     1      -4.912  11.954  24.642  0.00  0.00    +0.000 OA
ATOM     25  O   UNL     1      -4.849  13.030  22.688  0.00  0.00    +0.000 OA
BRANCH  21  26
ATOM     26  O   UNL     1      -4.380  16.052  24.043  0.00  0.00    +0.000 OA
ATOM     27  H   UNL     1      -4.904  15.753  24.807  0.00  0.00    +0.000 HD
ENDBRANCH  21  26
ENDBRANCH  18  19
ENDBRANCH   6  17
TORSDOF 4
ENDMDL
