MODEL 1
REMARK VINA RESULT:      -8.7      0.000      0.000
REMARK  Name = 
REMARK  11 active torsions:
REMARK  status: ('A' for Active; 'I' for Inactive)
REMARK    1  A    between atoms: C_1  and  C_2
REMARK    2  A    between atoms: C_2  and  C_3
REMARK    3  A    between atoms: C_2  and  C_4
REMARK    4  A    between atoms: C_7  and  C_8
REMARK    5  A    between atoms: C_8  and  N_9
REMARK    6  A    between atoms: C_13  and  C_14
REMARK    7  A    between atoms: C_14  and  C_15
REMARK    8  A    between atoms: C_15  and  O_16
REMARK    9  A    between atoms: O_16  and  C_17
REMARK   10  A    between atoms: C_17  and  C_18
REMARK   11  A    between atoms: C_17  and  C_24
REMARK                            x       y       z     vdW  Elec       q    Type
REMARK                         _______ _______ _______ _____ _____    ______ ____
ROOT
ATOM      1  N   UNL     1       0.150  11.519  21.898  0.00  0.00    +0.000 NA
ATOM      2  C   UNL     1      -0.458  10.470  22.721  0.00  0.00    +0.000 C 
ATOM      3  C   UNL     1       0.219   9.113  22.550  0.00  0.00    +0.000 C 
ATOM      4  C   UNL     1       0.231   8.704  21.084  0.00  0.00    +0.000 C 
ATOM      5  C   UNL     1       0.960   9.766  20.251  0.00  0.00    +0.000 C 
ATOM      6  C   UNL     1       0.339  11.152  20.494  0.00  0.00    +0.000 C 
ENDROOT
BRANCH   1   7
ATOM      7  C   UNL     1      -0.546  12.819  22.028  0.00  0.00    +0.000 C 
BRANCH   7  11
ATOM      8  C   UNL     1      -4.899  12.791  21.841  0.00  0.00    +0.000 A 
ATOM      9  C   UNL     1      -4.124  12.727  20.675  0.00  0.00    +0.000 A 
ATOM     10  C   UNL     1      -2.727  12.721  20.739  0.00  0.00    +0.000 A 
ATOM     11  C   UNL     1      -2.065  12.786  21.972  0.00  0.00    +0.000 A 
ATOM     12  C   UNL     1      -2.841  12.835  23.139  0.00  0.00    +0.000 A 
ATOM     13  C   UNL     1      -4.239  12.840  23.075  0.00  0.00    +0.000 A 
BRANCH   8  15
ATOM     14  C   UNL     1      -7.026  12.700  23.131  0.00  0.00    +0.000 C 
ATOM     15  C   UNL     1      -6.412  12.725  21.729  0.00  0.00    +0.000 C 
ATOM     16  C   UNL     1      -7.029  13.852  20.894  0.00  0.00    +0.000 C 
ENDBRANCH   8  15
ENDBRANCH   7  11
ENDBRANCH   1   7
BRANCH   5  17
ATOM     17  C   UNL     1       0.873   9.400  18.755  0.00  0.00    +0.000 C 
BRANCH  17  18
ATOM     18  C   UNL     1       2.125   8.713  18.202  0.00  0.00    +0.000 C 
BRANCH  18  19
ATOM     19  O   UNL     1       2.544   7.573  18.946  0.00  0.00    +0.000 OA
BRANCH  19  20
ATOM     20  C   UNL     1       2.884   6.411  18.171  0.00  0.00    +0.000 C 
BRANCH  20  21
ATOM     21  C   UNL     1       4.395   6.226  18.105  0.00  0.00    +0.000 A 
ATOM     22  C   UNL     1       5.147   6.726  17.030  0.00  0.00    +0.000 A 
ATOM     23  C   UNL     1       6.533   6.559  17.000  0.00  0.00    +0.000 A 
ATOM     24  C   UNL     1       7.181   5.885  18.034  0.00  0.00    +0.000 A 
ATOM     25  C   UNL     1       6.443   5.363  19.095  0.00  0.00    +0.000 A 
ATOM     26  C   UNL     1       5.060   5.530  19.131  0.00  0.00    +0.000 A 
ENDBRANCH  20  21
BRANCH  20  27
ATOM     27  C   UNL     1       2.144   5.183  18.703  0.00  0.00    +0.000 A 
ATOM     28  C   UNL     1       1.905   4.053  17.902  0.00  0.00    +0.000 A 
ATOM     29  C   UNL     1       1.257   2.930  18.421  0.00  0.00    +0.000 A 
ATOM     30  C   UNL     1       0.845   2.913  19.751  0.00  0.00    +0.000 A 
ATOM     31  C   UNL     1       1.092   4.013  20.568  0.00  0.00    +0.000 A 
ATOM     32  C   UNL     1       1.742   5.134  20.051  0.00  0.00    +0.000 A 
ENDBRANCH  20  27
ENDBRANCH  19  20
ENDBRANCH  18  19
ENDBRANCH  17  18
ENDBRANCH   5  17
TORSDOF 9
ENDMDL
MODEL 2
REMARK VINA RESULT:      -8.7      2.986      6.124
REMARK  Name = 
REMARK  11 active torsions:
REMARK  status: ('A' for Active; 'I' for Inactive)
REMARK    1  A    between atoms: C_1  and  C_2
REMARK    2  A    between atoms: C_2  and  C_3
REMARK    3  A    between atoms: C_2  and  C_4
REMARK    4  A    between atoms: C_7  and  C_8
REMARK    5  A    between atoms: C_8  and  N_9
REMARK    6  A    between atoms: C_13  and  C_14
REMARK    7  A    between atoms: C_14  and  C_15
REMARK    8  A    between atoms: C_15  and  O_16
REMARK    9  A    between atoms: O_16  and  C_17
REMARK   10  A    between atoms: C_17  and  C_18
REMARK   11  A    between atoms: C_17  and  C_24
REMARK                            x       y       z     vdW  Elec       q    Type
REMARK                         _______ _______ _______ _____ _____    ______ ____
ROOT
ATOM      1  N   UNL     1       2.575   5.870  19.838  0.00  0.00    +0.000 NA
ATOM      2  C   UNL     1       1.229   5.406  20.183  0.00  0.00    +0.000 C 
ATOM      3  C   UNL     1       1.217   3.997  20.770  0.00  0.00    +0.000 C 
ATOM      4  C   UNL     1       1.893   3.019  19.822  0.00  0.00    +0.000 C 
ATOM      5  C   UNL     1       3.335   3.465  19.550  0.00  0.00    +0.000 C 
ATOM      6  C   UNL     1       3.357   4.919  19.047  0.00  0.00    +0.000 C 
ENDROOT
BRANCH   1   7
ATOM      7  C   UNL     1       2.573   7.214  19.219  0.00  0.00    +0.000 C 
BRANCH   7  11
ATOM      8  C   UNL     1      -0.028  10.165  21.094  0.00  0.00    +0.000 A 
ATOM      9  C   UNL     1       0.542   9.125  21.840  0.00  0.00    +0.000 A 
ATOM     10  C   UNL     1       1.388   8.188  21.239  0.00  0.00    +0.000 A 
ATOM     11  C   UNL     1       1.683   8.262  19.872  0.00  0.00    +0.000 A 
ATOM     12  C   UNL     1       1.124   9.311  19.128  0.00  0.00    +0.000 A 
ATOM     13  C   UNL     1       0.278  10.248  19.730  0.00  0.00    +0.000 A 
BRANCH   8  15
ATOM     14  C   UNL     1      -1.185  10.725  23.226  0.00  0.00    +0.000 C 
ATOM     15  C   UNL     1      -0.886  11.200  21.801  0.00  0.00    +0.000 C 
ATOM     16  C   UNL     1      -0.283  12.608  21.821  0.00  0.00    +0.000 C 
ENDBRANCH   8  15
ENDBRANCH   7  11
ENDBRANCH   1   7
BRANCH   5  17
ATOM     17  C   UNL     1       3.979   2.532  18.505  0.00  0.00    +0.000 C 
BRANCH  17  18
ATOM     18  C   UNL     1       3.972   3.086  17.077  0.00  0.00    +0.000 C 
BRANCH  18  19
ATOM     19  O   UNL     1       5.269   3.288  16.522  0.00  0.00    +0.000 OA
BRANCH  19  20
ATOM     20  C   UNL     1       5.513   4.589  15.961  0.00  0.00    +0.000 C 
BRANCH  20  21
ATOM     21  C   UNL     1       6.401   5.418  16.882  0.00  0.00    +0.000 A 
ATOM     22  C   UNL     1       6.508   6.809  16.736  0.00  0.00    +0.000 A 
ATOM     23  C   UNL     1       7.315   7.551  17.602  0.00  0.00    +0.000 A 
ATOM     24  C   UNL     1       8.030   6.911  18.614  0.00  0.00    +0.000 A 
ATOM     25  C   UNL     1       7.951   5.527  18.754  0.00  0.00    +0.000 A 
ATOM     26  C   UNL     1       7.144   4.783  17.894  0.00  0.00    +0.000 A 
ENDBRANCH  20  21
BRANCH  20  27
ATOM     27  C   UNL     1       6.064   4.459  14.540  0.00  0.00    +0.000 A 
ATOM     28  C   UNL     1       7.248   5.101  14.140  0.00  0.00    +0.000 A 
ATOM     29  C   UNL     1       7.749   4.941  12.846  0.00  0.00    +0.000 A 
ATOM     30  C   UNL     1       7.081   4.129  11.933  0.00  0.00    +0.000 A 
ATOM     31  C   UNL     1       5.918   3.466  12.316  0.00  0.00    +0.000 A 
ATOM     32  C   UNL     1       5.418   3.624  13.610  0.00  0.00    +0.000 A 
ENDBRANCH  20  27
ENDBRANCH  19  20
ENDBRANCH  18  19
ENDBRANCH  17  18
ENDBRANCH   5  17
TORSDOF 9
ENDMDL
MODEL 3
REMARK VINA RESULT:      -8.6      2.795      6.098
REMARK  Name = 
REMARK  11 active torsions:
REMARK  status: ('A' for Active; 'I' for Inactive)
REMARK    1  A    between atoms: C_1  and  C_2
REMARK    2  A    between atoms: C_2  and  C_3
REMARK    3  A    between atoms: C_2  and  C_4
REMARK    4  A    between atoms: C_7  and  C_8
REMARK    5  A    between atoms: C_8  and  N_9
REMARK    6  A    between atoms: C_13  and  C_14
REMARK    7  A    between atoms: C_14  and  C_15
REMARK    8  A    between atoms: C_15  and  O_16
REMARK    9  A    between atoms: O_16  and  C_17
REMARK   10  A    between atoms: C_17  and  C_18
REMARK   11  A    between atoms: C_17  and  C_24
REMARK                            x       y       z     vdW  Elec       q    Type
REMARK                         _______ _______ _______ _____ _____    ______ ____
ROOT
ATOM      1  N   UNL     1       2.499   6.057  19.864  0.00  0.00    +0.000 NA
ATOM      2  C   UNL     1       1.228   5.480  20.310  0.00  0.00    +0.000 C 
ATOM      3  C   UNL     1       1.395   4.121  20.984  0.00  0.00    +0.000 C 
ATOM      4  C   UNL     1       2.128   3.156  20.064  0.00  0.00    +0.000 C 
ATOM      5  C   UNL     1       3.499   3.731  19.688  0.00  0.00    +0.000 C 
ATOM      6  C   UNL     1       3.341   5.140  19.094  0.00  0.00    +0.000 C 
ENDROOT
BRANCH   1   7
ATOM      7  C   UNL     1       2.323   7.348  19.163  0.00  0.00    +0.000 C 
BRANCH   7  11
ATOM      8  C   UNL     1       0.188  10.439  21.371  0.00  0.00    +0.000 A 
ATOM      9  C   UNL     1       0.862   9.407  22.038  0.00  0.00    +0.000 A 
ATOM     10  C   UNL     1       1.559   8.426  21.327  0.00  0.00    +0.000 A 
ATOM     11  C   UNL     1       1.596   8.444  19.928  0.00  0.00    +0.000 A 
ATOM     12  C   UNL     1       0.934   9.484  19.260  0.00  0.00    +0.000 A 
ATOM     13  C   UNL     1       0.236  10.467  19.971  0.00  0.00    +0.000 A 
BRANCH   8  15
ATOM     14  C   UNL     1      -1.172  12.519  21.237  0.00  0.00    +0.000 C 
ATOM     15  C   UNL     1      -0.498  11.523  22.184  0.00  0.00    +0.000 C 
ATOM     16  C   UNL     1      -1.503  10.995  23.212  0.00  0.00    +0.000 C 
ENDBRANCH   8  15
ENDBRANCH   7  11
ENDBRANCH   1   7
BRANCH   5  17
ATOM     17  C   UNL     1       4.190   2.800  18.670  0.00  0.00    +0.000 C 
BRANCH  17  18
ATOM     18  C   UNL     1       3.993   3.209  17.208  0.00  0.00    +0.000 C 
BRANCH  18  19
ATOM     19  O   UNL     1       5.200   3.285  16.453  0.00  0.00    +0.000 OA
BRANCH  19  20
ATOM     20  C   UNL     1       5.502   4.570  15.886  0.00  0.00    +0.000 C 
BRANCH  20  21
ATOM     21  C   UNL     1       6.375   5.388  16.830  0.00  0.00    +0.000 A 
ATOM     22  C   UNL     1       7.169   4.772  17.810  0.00  0.00    +0.000 A 
ATOM     23  C   UNL     1       7.974   5.541  18.653  0.00  0.00    +0.000 A 
ATOM     24  C   UNL     1       7.988   6.931  18.534  0.00  0.00    +0.000 A 
ATOM     25  C   UNL     1       7.187   7.555  17.580  0.00  0.00    +0.000 A 
ATOM     26  C   UNL     1       6.384   6.792  16.735  0.00  0.00    +0.000 A 
ENDBRANCH  20  21
BRANCH  20  27
ATOM     27  C   UNL     1       6.106   4.405  14.490  0.00  0.00    +0.000 A 
ATOM     28  C   UNL     1       5.506   3.595  13.511  0.00  0.00    +0.000 A 
ATOM     29  C   UNL     1       6.059   3.487  12.233  0.00  0.00    +0.000 A 
ATOM     30  C   UNL     1       7.213   4.194  11.908  0.00  0.00    +0.000 A 
ATOM     31  C   UNL     1       7.811   5.020  12.856  0.00  0.00    +0.000 A 
ATOM     32  C   UNL     1       7.258   5.131  14.133  0.00  0.00    +0.000 A 
ENDBRANCH  20  27
ENDBRANCH  19  20
ENDBRANCH  18  19
ENDBRANCH  17  18
ENDBRANCH   5  17
TORSDOF 9
ENDMDL
MODEL 4
REMARK VINA RESULT:      -8.5      1.217      2.176
REMARK  Name = 
REMARK  11 active torsions:
REMARK  status: ('A' for Active; 'I' for Inactive)
REMARK    1  A    between atoms: C_1  and  C_2
REMARK    2  A    between atoms: C_2  and  C_3
REMARK    3  A    between atoms: C_2  and  C_4
REMARK    4  A    between atoms: C_7  and  C_8
REMARK    5  A    between atoms: C_8  and  N_9
REMARK    6  A    between atoms: C_13  and  C_14
REMARK    7  A    between atoms: C_14  and  C_15
REMARK    8  A    between atoms: C_15  and  O_16
REMARK    9  A    between atoms: O_16  and  C_17
REMARK   10  A    between atoms: C_17  and  C_18
REMARK   11  A    between atoms: C_17  and  C_24
REMARK                            x       y       z     vdW  Elec       q    Type
REMARK                         _______ _______ _______ _____ _____    ______ ____
ROOT
ATOM      1  N   UNL     1       0.198  11.286  20.285  0.00  0.00    +0.000 NA
ATOM      2  C   UNL     1       1.326  12.204  20.116  0.00  0.00    +0.000 C 
ATOM      3  C   UNL     1       1.830  12.270  18.677  0.00  0.00    +0.000 C 
ATOM      4  C   UNL     1       2.191  10.881  18.174  0.00  0.00    +0.000 C 
ATOM      5  C   UNL     1       0.968   9.959  18.263  0.00  0.00    +0.000 C 
ATOM      6  C   UNL     1       0.402   9.963  19.693  0.00  0.00    +0.000 C 
ENDROOT
BRANCH   1   7
ATOM      7  C   UNL     1      -0.249  11.185  21.692  0.00  0.00    +0.000 C 
BRANCH   7  11
ATOM      8  C   UNL     1      -4.053  13.085  22.649  0.00  0.00    +0.000 A 
ATOM      9  C   UNL     1      -3.523  13.137  21.352  0.00  0.00    +0.000 A 
ATOM     10  C   UNL     1      -2.310  12.514  21.045  0.00  0.00    +0.000 A 
ATOM     11  C   UNL     1      -1.588  11.826  22.028  0.00  0.00    +0.000 A 
ATOM     12  C   UNL     1      -2.124  11.761  23.321  0.00  0.00    +0.000 A 
ATOM     13  C   UNL     1      -3.339  12.384  23.630  0.00  0.00    +0.000 A 
BRANCH   8  15
ATOM     14  C   UNL     1      -5.920  14.389  21.647  0.00  0.00    +0.000 C 
ATOM     15  C   UNL     1      -5.406  13.717  22.922  0.00  0.00    +0.000 C 
ATOM     16  C   UNL     1      -6.454  12.744  23.475  0.00  0.00    +0.000 C 
ENDBRANCH   8  15
ENDBRANCH   7  11
ENDBRANCH   1   7
BRANCH   5  17
ATOM     17  C   UNL     1       1.369   8.526  17.855  0.00  0.00    +0.000 C 
BRANCH  17  18
ATOM     18  C   UNL     1       2.880   8.294  17.774  0.00  0.00    +0.000 C 
BRANCH  18  19
ATOM     19  O   UNL     1       3.341   7.173  18.525  0.00  0.00    +0.000 OA
BRANCH  19  20
ATOM     20  C   UNL     1       3.344   5.915  17.830  0.00  0.00    +0.000 C 
BRANCH  20  21
ATOM     21  C   UNL     1       4.770   5.432  17.588  0.00  0.00    +0.000 A 
ATOM     22  C   UNL     1       5.774   5.604  18.554  0.00  0.00    +0.000 A 
ATOM     23  C   UNL     1       7.069   5.139  18.317  0.00  0.00    +0.000 A 
ATOM     24  C   UNL     1       7.377   4.507  17.113  0.00  0.00    +0.000 A 
ATOM     25  C   UNL     1       6.395   4.351  16.137  0.00  0.00    +0.000 A 
ATOM     26  C   UNL     1       5.100   4.811  16.370  0.00  0.00    +0.000 A 
ENDBRANCH  20  21
BRANCH  20  27
ATOM     27  C   UNL     1       2.476   4.897  18.573  0.00  0.00    +0.000 A 
ATOM     28  C   UNL     1       2.185   5.025  19.941  0.00  0.00    +0.000 A 
ATOM     29  C   UNL     1       1.363   4.101  20.589  0.00  0.00    +0.000 A 
ATOM     30  C   UNL     1       0.809   3.039  19.879  0.00  0.00    +0.000 A 
ATOM     31  C   UNL     1       1.066   2.906  18.517  0.00  0.00    +0.000 A 
ATOM     32  C   UNL     1       1.886   3.831  17.868  0.00  0.00    +0.000 A 
ENDBRANCH  20  27
ENDBRANCH  19  20
ENDBRANCH  18  19
ENDBRANCH  17  18
ENDBRANCH   5  17
TORSDOF 9
ENDMDL
MODEL 5
REMARK VINA RESULT:      -8.5      1.931      4.266
REMARK  Name = 
REMARK  11 active torsions:
REMARK  status: ('A' for Active; 'I' for Inactive)
REMARK    1  A    between atoms: C_1  and  C_2
REMARK    2  A    between atoms: C_2  and  C_3
REMARK    3  A    between atoms: C_2  and  C_4
REMARK    4  A    between atoms: C_7  and  C_8
REMARK    5  A    between atoms: C_8  and  N_9
REMARK    6  A    between atoms: C_13  and  C_14
REMARK    7  A    between atoms: C_14  and  C_15
REMARK    8  A    between atoms: C_15  and  O_16
REMARK    9  A    between atoms: O_16  and  C_17
REMARK   10  A    between atoms: C_17  and  C_18
REMARK   11  A    between atoms: C_17  and  C_24
REMARK                            x       y       z     vdW  Elec       q    Type
REMARK                         _______ _______ _______ _____ _____    ______ ____
ROOT
ATOM      1  N   UNL     1       0.279  11.373  21.596  0.00  0.00    +0.000 NA
ATOM      2  C   UNL     1      -0.718  11.045  22.617  0.00  0.00    +0.000 C 
ATOM      3  C   UNL     1      -0.297   9.879  23.508  0.00  0.00    +0.000 C 
ATOM      4  C   UNL     1       0.028   8.655  22.665  0.00  0.00    +0.000 C 
ATOM      5  C   UNL     1       1.145   8.988  21.668  0.00  0.00    +0.000 C 
ATOM      6  C   UNL     1       0.763  10.222  20.832  0.00  0.00    +0.000 C 
ENDROOT
BRANCH   1   7
ATOM      7  C   UNL     1      -0.160  12.468  20.702  0.00  0.00    +0.000 C 
BRANCH   7  11
ATOM      8  C   UNL     1      -3.259  11.426  17.822  0.00  0.00    +0.000 A 
ATOM      9  C   UNL     1      -3.583  12.008  19.056  0.00  0.00    +0.000 A 
ATOM     10  C   UNL     1      -2.585  12.355  19.971  0.00  0.00    +0.000 A 
ATOM     11  C   UNL     1      -1.235  12.123  19.683  0.00  0.00    +0.000 A 
ATOM     12  C   UNL     1      -0.910  11.554  18.443  0.00  0.00    +0.000 A 
ATOM     13  C   UNL     1      -1.908  11.207  17.526  0.00  0.00    +0.000 A 
BRANCH   8  15
ATOM     14  C   UNL     1      -5.445  12.213  16.928  0.00  0.00    +0.000 C 
ATOM     15  C   UNL     1      -4.370  11.128  16.830  0.00  0.00    +0.000 C 
ATOM     16  C   UNL     1      -3.893  10.975  15.381  0.00  0.00    +0.000 C 
ENDBRANCH   8  15
ENDBRANCH   7  11
ENDBRANCH   1   7
BRANCH   5  17
ATOM     17  C   UNL     1       1.394   7.778  20.745  0.00  0.00    +0.000 C 
BRANCH  17  18
ATOM     18  C   UNL     1       2.039   8.133  19.402  0.00  0.00    +0.000 C 
BRANCH  18  19
ATOM     19  O   UNL     1       2.301   7.010  18.564  0.00  0.00    +0.000 OA
BRANCH  19  20
ATOM     20  C   UNL     1       3.099   5.967  19.149  0.00  0.00    +0.000 C 
BRANCH  20  21
ATOM     21  C   UNL     1       2.406   4.616  19.018  0.00  0.00    +0.000 A 
ATOM     22  C   UNL     1       2.676   3.757  17.942  0.00  0.00    +0.000 A 
ATOM     23  C   UNL     1       2.042   2.516  17.852  0.00  0.00    +0.000 A 
ATOM     24  C   UNL     1       1.126   2.124  18.829  0.00  0.00    +0.000 A 
ATOM     25  C   UNL     1       0.833   2.978  19.890  0.00  0.00    +0.000 A 
ATOM     26  C   UNL     1       1.466   4.216  19.985  0.00  0.00    +0.000 A 
ENDBRANCH  20  21
BRANCH  20  27
ATOM     27  C   UNL     1       4.511   5.986  18.559  0.00  0.00    +0.000 A 
ATOM     28  C   UNL     1       5.583   5.318  19.175  0.00  0.00    +0.000 A 
ATOM     29  C   UNL     1       6.855   5.322  18.600  0.00  0.00    +0.000 A 
ATOM     30  C   UNL     1       7.076   5.984  17.395  0.00  0.00    +0.000 A 
ATOM     31  C   UNL     1       6.023   6.632  16.756  0.00  0.00    +0.000 A 
ATOM     32  C   UNL     1       4.750   6.627  17.330  0.00  0.00    +0.000 A 
ENDBRANCH  20  27
ENDBRANCH  19  20
ENDBRANCH  18  19
ENDBRANCH  17  18
ENDBRANCH   5  17
TORSDOF 9
ENDMDL
MODEL 6
REMARK VINA RESULT:      -8.4      1.474      2.318
REMARK  Name = 
REMARK  11 active torsions:
REMARK  status: ('A' for Active; 'I' for Inactive)
REMARK    1  A    between atoms: C_1  and  C_2
REMARK    2  A    between atoms: C_2  and  C_3
REMARK    3  A    between atoms: C_2  and  C_4
REMARK    4  A    between atoms: C_7  and  C_8
REMARK    5  A    between atoms: C_8  and  N_9
REMARK    6  A    between atoms: C_13  and  C_14
REMARK    7  A    between atoms: C_14  and  C_15
REMARK    8  A    between atoms: C_15  and  O_16
REMARK    9  A    between atoms: O_16  and  C_17
REMARK   10  A    between atoms: C_17  and  C_18
REMARK   11  A    between atoms: C_17  and  C_24
REMARK                            x       y       z     vdW  Elec       q    Type
REMARK                         _______ _______ _______ _____ _____    ______ ____
ROOT
ATOM      1  N   UNL     1       0.560  11.379  20.106  0.00  0.00    +0.000 NA
ATOM      2  C   UNL     1       1.606  12.369  19.837  0.00  0.00    +0.000 C 
ATOM      3  C   UNL     1       2.041  12.393  18.375  0.00  0.00    +0.000 C 
ATOM      4  C   UNL     1       2.488  11.009  17.929  0.00  0.00    +0.000 C 
ATOM      5  C   UNL     1       1.346  10.004  18.123  0.00  0.00    +0.000 C 
ATOM      6  C   UNL     1       0.842  10.044  19.576  0.00  0.00    +0.000 C 
ENDROOT
BRANCH   1   7
ATOM      7  C   UNL     1       0.182  11.324  21.536  0.00  0.00    +0.000 C 
BRANCH   7  11
ATOM      8  C   UNL     1      -3.836  12.666  22.554  0.00  0.00    +0.000 A 
ATOM      9  C   UNL     1      -2.996  12.099  23.522  0.00  0.00    +0.000 A 
ATOM     10  C   UNL     1      -1.701  11.683  23.195  0.00  0.00    +0.000 A 
ATOM     11  C   UNL     1      -1.213  11.816  21.890  0.00  0.00    +0.000 A 
ATOM     12  C   UNL     1      -2.049  12.396  20.925  0.00  0.00    +0.000 A 
ATOM     13  C   UNL     1      -3.344  12.813  21.251  0.00  0.00    +0.000 A 
BRANCH   8  15
ATOM     14  C   UNL     1      -5.111  14.638  23.380  0.00  0.00    +0.000 C 
ATOM     15  C   UNL     1      -5.209  13.167  22.968  0.00  0.00    +0.000 C 
ATOM     16  C   UNL     1      -6.294  12.981  21.901  0.00  0.00    +0.000 C 
ENDBRANCH   8  15
ENDBRANCH   7  11
ENDBRANCH   1   7
BRANCH   5  17
ATOM     17  C   UNL     1       1.840   8.585  17.772  0.00  0.00    +0.000 C 
BRANCH  17  18
ATOM     18  C   UNL     1       2.228   7.735  18.986  0.00  0.00    +0.000 C 
BRANCH  18  19
ATOM     19  O   UNL     1       3.375   6.913  18.782  0.00  0.00    +0.000 OA
BRANCH  19  20
ATOM     20  C   UNL     1       3.182   5.775  17.926  0.00  0.00    +0.000 C 
BRANCH  20  21
ATOM     21  C   UNL     1       4.485   5.389  17.235  0.00  0.00    +0.000 A 
ATOM     22  C   UNL     1       4.595   4.204  16.491  0.00  0.00    +0.000 A 
ATOM     23  C   UNL     1       5.794   3.880  15.852  0.00  0.00    +0.000 A 
ATOM     24  C   UNL     1       6.896   4.728  15.956  0.00  0.00    +0.000 A 
ATOM     25  C   UNL     1       6.806   5.896  16.711  0.00  0.00    +0.000 A 
ATOM     26  C   UNL     1       5.610   6.226  17.348  0.00  0.00    +0.000 A 
ENDBRANCH  20  21
BRANCH  20  27
ATOM     27  C   UNL     1       2.547   4.624  18.709  0.00  0.00    +0.000 A 
ATOM     28  C   UNL     1       1.479   3.873  18.191  0.00  0.00    +0.000 A 
ATOM     29  C   UNL     1       0.937   2.805  18.911  0.00  0.00    +0.000 A 
ATOM     30  C   UNL     1       1.460   2.465  20.156  0.00  0.00    +0.000 A 
ATOM     31  C   UNL     1       2.533   3.182  20.678  0.00  0.00    +0.000 A 
ATOM     32  C   UNL     1       3.076   4.248  19.957  0.00  0.00    +0.000 A 
ENDBRANCH  20  27
ENDBRANCH  19  20
ENDBRANCH  18  19
ENDBRANCH  17  18
ENDBRANCH   5  17
TORSDOF 9
ENDMDL
MODEL 7
REMARK VINA RESULT:      -8.4      1.695      3.930
REMARK  Name = 
REMARK  11 active torsions:
REMARK  status: ('A' for Active; 'I' for Inactive)
REMARK    1  A    between atoms: C_1  and  C_2
REMARK    2  A    between atoms: C_2  and  C_3
REMARK    3  A    between atoms: C_2  and  C_4
REMARK    4  A    between atoms: C_7  and  C_8
REMARK    5  A    between atoms: C_8  and  N_9
REMARK    6  A    between atoms: C_13  and  C_14
REMARK    7  A    between atoms: C_14  and  C_15
REMARK    8  A    between atoms: C_15  and  O_16
REMARK    9  A    between atoms: O_16  and  C_17
REMARK   10  A    between atoms: C_17  and  C_18
REMARK   11  A    between atoms: C_17  and  C_24
REMARK                            x       y       z     vdW  Elec       q    Type
REMARK                         _______ _______ _______ _____ _____    ______ ____
ROOT
ATOM      1  N   UNL     1      -0.292  11.548  20.902  0.00  0.00    +0.000 NA
ATOM      2  C   UNL     1      -1.263  11.354  21.981  0.00  0.00    +0.000 C 
ATOM      3  C   UNL     1      -0.740  10.453  23.097  0.00  0.00    +0.000 C 
ATOM      4  C   UNL     1      -0.291   9.113  22.534  0.00  0.00    +0.000 C 
ATOM      5  C   UNL     1       0.799   9.330  21.476  0.00  0.00    +0.000 C 
ATOM      6  C   UNL     1       0.308  10.312  20.399  0.00  0.00    +0.000 C 
ENDROOT
BRANCH   1   7
ATOM      7  C   UNL     1      -0.825  12.378  19.798  0.00  0.00    +0.000 C 
BRANCH   7  11
ATOM      8  C   UNL     1      -4.889  11.444  18.532  0.00  0.00    +0.000 A 
ATOM      9  C   UNL     1      -4.644  12.374  19.552  0.00  0.00    +0.000 A 
ATOM     10  C   UNL     1      -3.338  12.682  19.946  0.00  0.00    +0.000 A 
ATOM     11  C   UNL     1      -2.240  12.065  19.335  0.00  0.00    +0.000 A 
ATOM     12  C   UNL     1      -2.484  11.145  18.305  0.00  0.00    +0.000 A 
ATOM     13  C   UNL     1      -3.791  10.836  17.911  0.00  0.00    +0.000 A 
BRANCH   8  15
ATOM     14  C   UNL     1      -6.955  10.138  19.003  0.00  0.00    +0.000 C 
ATOM     15  C   UNL     1      -6.319  11.190  18.090  0.00  0.00    +0.000 C 
ATOM     16  C   UNL     1      -7.192  12.448  18.032  0.00  0.00    +0.000 C 
ENDBRANCH   8  15
ENDBRANCH   7  11
ENDBRANCH   1   7
BRANCH   5  17
ATOM     17  C   UNL     1       1.172   7.978  20.832  0.00  0.00    +0.000 C 
BRANCH  17  18
ATOM     18  C   UNL     1       2.227   8.078  19.727  0.00  0.00    +0.000 C 
BRANCH  18  19
ATOM     19  O   UNL     1       2.270   6.950  18.856  0.00  0.00    +0.000 OA
BRANCH  19  20
ATOM     20  C   UNL     1       3.114   5.866  19.278  0.00  0.00    +0.000 C 
BRANCH  20  21
ATOM     21  C   UNL     1       2.397   4.530  19.126  0.00  0.00    +0.000 A 
ATOM     22  C   UNL     1       2.723   3.639  18.091  0.00  0.00    +0.000 A 
ATOM     23  C   UNL     1       2.065   2.413  17.981  0.00  0.00    +0.000 A 
ATOM     24  C   UNL     1       1.070   2.066  18.896  0.00  0.00    +0.000 A 
ATOM     25  C   UNL     1       0.722   2.952  19.914  0.00  0.00    +0.000 A 
ATOM     26  C   UNL     1       1.378   4.176  20.029  0.00  0.00    +0.000 A 
ENDBRANCH  20  21
BRANCH  20  27
ATOM     27  C   UNL     1       4.456   5.923  18.546  0.00  0.00    +0.000 A 
ATOM     28  C   UNL     1       4.597   6.552  17.298  0.00  0.00    +0.000 A 
ATOM     29  C   UNL     1       5.840   6.619  16.665  0.00  0.00    +0.000 A 
ATOM     30  C   UNL     1       6.965   6.068  17.273  0.00  0.00    +0.000 A 
ATOM     31  C   UNL     1       6.852   5.460  18.520  0.00  0.00    +0.000 A 
ATOM     32  C   UNL     1       5.610   5.395  19.155  0.00  0.00    +0.000 A 
ENDBRANCH  20  27
ENDBRANCH  19  20
ENDBRANCH  18  19
ENDBRANCH  17  18
ENDBRANCH   5  17
TORSDOF 9
ENDMDL
MODEL 8
REMARK VINA RESULT:      -8.4      1.505      2.565
REMARK  Name = 
REMARK  11 active torsions:
REMARK  status: ('A' for Active; 'I' for Inactive)
REMARK    1  A    between atoms: C_1  and  C_2
REMARK    2  A    between atoms: C_2  and  C_3
REMARK    3  A    between atoms: C_2  and  C_4
REMARK    4  A    between atoms: C_7  and  C_8
REMARK    5  A    between atoms: C_8  and  N_9
REMARK    6  A    between atoms: C_13  and  C_14
REMARK    7  A    between atoms: C_14  and  C_15
REMARK    8  A    between atoms: C_15  and  O_16
REMARK    9  A    between atoms: O_16  and  C_17
REMARK   10  A    between atoms: C_17  and  C_18
REMARK   11  A    between atoms: C_17  and  C_24
REMARK                            x       y       z     vdW  Elec       q    Type
REMARK                         _______ _______ _______ _____ _____    ______ ____
ROOT
ATOM      1  N   UNL     1       0.568  11.913  20.089  0.00  0.00    +0.000 NA
ATOM      2  C   UNL     1       1.581  12.908  19.728  0.00  0.00    +0.000 C 
ATOM      3  C   UNL     1       1.982  12.841  18.257  0.00  0.00    +0.000 C 
ATOM      4  C   UNL     1       2.455  11.441  17.896  0.00  0.00    +0.000 C 
ATOM      5  C   UNL     1       1.345  10.423  18.187  0.00  0.00    +0.000 C 
ATOM      6  C   UNL     1       0.873  10.552  19.646  0.00  0.00    +0.000 C 
ENDROOT
BRANCH   1   7
ATOM      7  C   UNL     1       0.224  11.948  21.529  0.00  0.00    +0.000 C 
BRANCH   7  11
ATOM      8  C   UNL     1      -3.928  12.831  22.510  0.00  0.00    +0.000 A 
ATOM      9  C   UNL     1      -3.106  12.131  23.404  0.00  0.00    +0.000 A 
ATOM     10  C   UNL     1      -1.770  11.862  23.092  0.00  0.00    +0.000 A 
ATOM     11  C   UNL     1      -1.219  12.280  21.875  0.00  0.00    +0.000 A 
ATOM     12  C   UNL     1      -2.037  12.993  20.987  0.00  0.00    +0.000 A 
ATOM     13  C   UNL     1      -3.375  13.262  21.298  0.00  0.00    +0.000 A 
BRANCH   8  15
ATOM     14  C   UNL     1      -6.322  12.630  21.858  0.00  0.00    +0.000 C 
ATOM     15  C   UNL     1      -5.354  13.161  22.918  0.00  0.00    +0.000 C 
ATOM     16  C   UNL     1      -5.744  12.646  24.307  0.00  0.00    +0.000 C 
ENDBRANCH   8  15
ENDBRANCH   7  11
ENDBRANCH   1   7
BRANCH   5  17
ATOM     17  C   UNL     1       1.868   8.996  17.923  0.00  0.00    +0.000 C 
BRANCH  17  18
ATOM     18  C   UNL     1       1.936   8.110  19.170  0.00  0.00    +0.000 C 
BRANCH  18  19
ATOM     19  O   UNL     1       2.950   7.109  19.121  0.00  0.00    +0.000 OA
BRANCH  19  20
ATOM     20  C   UNL     1       2.618   5.921  18.383  0.00  0.00    +0.000 C 
BRANCH  20  21
ATOM     21  C   UNL     1       3.772   5.504  17.479  0.00  0.00    +0.000 A 
ATOM     22  C   UNL     1       4.025   4.154  17.190  0.00  0.00    +0.000 A 
ATOM     23  C   UNL     1       5.078   3.797  16.345  0.00  0.00    +0.000 A 
ATOM     24  C   UNL     1       5.895   4.781  15.788  0.00  0.00    +0.000 A 
ATOM     25  C   UNL     1       5.669   6.123  16.086  0.00  0.00    +0.000 A 
ATOM     26  C   UNL     1       4.617   6.484  16.926  0.00  0.00    +0.000 A 
ENDBRANCH  20  21
BRANCH  20  27
ATOM     27  C   UNL     1       2.163   4.814  19.336  0.00  0.00    +0.000 A 
ATOM     28  C   UNL     1       2.638   4.726  20.655  0.00  0.00    +0.000 A 
ATOM     29  C   UNL     1       2.182   3.726  21.516  0.00  0.00    +0.000 A 
ATOM     30  C   UNL     1       1.237   2.802  21.077  0.00  0.00    +0.000 A 
ATOM     31  C   UNL     1       0.736   2.885  19.781  0.00  0.00    +0.000 A 
ATOM     32  C   UNL     1       1.190   3.886  18.920  0.00  0.00    +0.000 A 
ENDBRANCH  20  27
ENDBRANCH  19  20
ENDBRANCH  18  19
ENDBRANCH  17  18
ENDBRANCH   5  17
TORSDOF 9
ENDMDL
MODEL 9
REMARK VINA RESULT:      -8.4      3.037     10.629
REMARK  Name = 
REMARK  11 active torsions:
REMARK  status: ('A' for Active; 'I' for Inactive)
REMARK    1  A    between atoms: C_1  and  C_2
REMARK    2  A    between atoms: C_2  and  C_3
REMARK    3  A    between atoms: C_2  and  C_4
REMARK    4  A    between atoms: C_7  and  C_8
REMARK    5  A    between atoms: C_8  and  N_9
REMARK    6  A    between atoms: C_13  and  C_14
REMARK    7  A    between atoms: C_14  and  C_15
REMARK    8  A    between atoms: C_15  and  O_16
REMARK    9  A    between atoms: O_16  and  C_17
REMARK   10  A    between atoms: C_17  and  C_18
REMARK   11  A    between atoms: C_17  and  C_24
REMARK                            x       y       z     vdW  Elec       q    Type
REMARK                         _______ _______ _______ _____ _____    ______ ____
ROOT
ATOM      1  N   UNL     1       3.772   5.053  18.735  0.00  0.00    +0.000 NA
ATOM      2  C   UNL     1       3.238   4.869  20.086  0.00  0.00    +0.000 C 
ATOM      3  C   UNL     1       1.913   5.595  20.307  0.00  0.00    +0.000 C 
ATOM      4  C   UNL     1       2.057   7.075  19.985  0.00  0.00    +0.000 C 
ATOM      5  C   UNL     1       2.521   7.252  18.534  0.00  0.00    +0.000 C 
ATOM      6  C   UNL     1       3.806   6.445  18.284  0.00  0.00    +0.000 C 
ENDROOT
BRANCH   1   7
ATOM      7  C   UNL     1       5.083   4.392  18.546  0.00  0.00    +0.000 C 
BRANCH   7  11
ATOM      8  C   UNL     1       6.562   4.209  14.451  0.00  0.00    +0.000 A 
ATOM      9  C   UNL     1       7.391   4.625  15.502  0.00  0.00    +0.000 A 
ATOM     10  C   UNL     1       6.918   4.668  16.817  0.00  0.00    +0.000 A 
ATOM     11  C   UNL     1       5.600   4.303  17.118  0.00  0.00    +0.000 A 
ATOM     12  C   UNL     1       4.775   3.874  16.068  0.00  0.00    +0.000 A 
ATOM     13  C   UNL     1       5.248   3.831  14.752  0.00  0.00    +0.000 A 
BRANCH   8  15
ATOM     14  C   UNL     1       6.078   3.542  12.103  0.00  0.00    +0.000 C 
ATOM     15  C   UNL     1       7.138   4.112  13.049  0.00  0.00    +0.000 C 
ATOM     16  C   UNL     1       7.688   5.434  12.503  0.00  0.00    +0.000 C 
ENDBRANCH   8  15
ENDBRANCH   7  11
ENDBRANCH   1   7
BRANCH   5  17
ATOM     17  C   UNL     1       2.770   8.748  18.249  0.00  0.00    +0.000 C 
BRANCH  17  18
ATOM     18  C   UNL     1       1.556   9.491  17.682  0.00  0.00    +0.000 C 
BRANCH  18  19
ATOM     19  O   UNL     1       0.347   9.271  18.404  0.00  0.00    +0.000 OA
BRANCH  19  20
ATOM     20  C   UNL     1      -0.335  10.454  18.853  0.00  0.00    +0.000 C 
BRANCH  20  21
ATOM     21  C   UNL     1      -1.677  10.607  18.146  0.00  0.00    +0.000 A 
ATOM     22  C   UNL     1      -1.971   9.894  16.973  0.00  0.00    +0.000 A 
ATOM     23  C   UNL     1      -3.214  10.038  16.352  0.00  0.00    +0.000 A 
ATOM     24  C   UNL     1      -4.171  10.899  16.889  0.00  0.00    +0.000 A 
ATOM     25  C   UNL     1      -3.882  11.630  18.040  0.00  0.00    +0.000 A 
ATOM     26  C   UNL     1      -2.644  11.487  18.665  0.00  0.00    +0.000 A 
ENDBRANCH  20  21
BRANCH  20  27
ATOM     27  C   UNL     1      -0.449  10.455  20.378  0.00  0.00    +0.000 A 
ATOM     28  C   UNL     1      -0.669  11.636  21.107  0.00  0.00    +0.000 A 
ATOM     29  C   UNL     1      -0.802  11.606  22.497  0.00  0.00    +0.000 A 
ATOM     30  C   UNL     1      -0.727  10.395  23.181  0.00  0.00    +0.000 A 
ATOM     31  C   UNL     1      -0.532   9.211  22.476  0.00  0.00    +0.000 A 
ATOM     32  C   UNL     1      -0.402   9.240  21.086  0.00  0.00    +0.000 A 
ENDBRANCH  20  27
ENDBRANCH  19  20
ENDBRANCH  18  19
ENDBRANCH  17  18
ENDBRANCH   5  17
TORSDOF 9
ENDMDL
