MODEL 1
REMARK VINA RESULT:      -8.2      0.000      0.000
REMARK  Name = 
REMARK  10 active torsions:
REMARK  status: ('A' for Active; 'I' for Inactive)
REMARK    1  A    between atoms: C_1  and  O_2
REMARK    2  A    between atoms: O_2  and  C_3
REMARK    3  A    between atoms: C_6  and  C_7
REMARK    4  A    between atoms: N_8  and  N_9
REMARK    5  A    between atoms: C_10  and  C_12
REMARK    6  A    between atoms: C_12  and  O_13
REMARK    7  A    between atoms: C_12  and  C_15
REMARK    8  A    between atoms: O_13  and  C_14
REMARK    9  A    between atoms: C_26  and  O_27
REMARK   10  A    between atoms: O_27  and  C_28
REMARK                            x       y       z     vdW  Elec       q    Type
REMARK                         _______ _______ _______ _____ _____    ______ ____
ROOT
ATOM      1  N   UNL     1       7.507   7.754  17.123  0.00  0.00    +0.000 N 
ATOM      2  C   UNL     1       7.255   6.492  17.660  0.00  0.00    +0.000 C 
ATOM      3  O   UNL     1       7.652   6.117  18.762  0.00  0.00    +0.000 OA
ATOM      4  H   UNL     1       7.283   7.975  16.158  0.00  0.00    +0.000 HD
ENDROOT
BRANCH   1   6
ATOM      5  C   UNL     1       8.072   9.889  17.600  0.00  0.00    +0.000 C 
ATOM      6  N   UNL     1       8.194   8.637  17.879  0.00  0.00    +0.000 NA
BRANCH   5  10
ATOM      7  C   UNL     1      10.543  12.640  19.720  0.00  0.00    +0.000 A 
ATOM      8  C   UNL     1      10.183  11.415  20.302  0.00  0.00    +0.000 A 
ATOM      9  C   UNL     1       9.360  10.524  19.622  0.00  0.00    +0.000 A 
ATOM     10  C   UNL     1       8.851  10.872  18.373  0.00  0.00    +0.000 A 
ATOM     11  C   UNL     1       9.112  12.127  17.831  0.00  0.00    +0.000 A 
ATOM     12  C   UNL     1       9.955  13.026  18.502  0.00  0.00    +0.000 A 
BRANCH   7  14
ATOM     13  C   UNL     1      10.894  14.628  20.949  0.00  0.00    +0.000 C 
ATOM     14  O   UNL     1      11.450  13.461  20.337  0.00  0.00    +0.000 OA
ENDBRANCH   7  14
BRANCH  12  15
ATOM     15  O   UNL     1      10.103  14.193  17.801  0.00  0.00    +0.000 OA
ATOM     16  C   UNL     1      11.257  14.370  16.995  0.00  0.00    +0.000 C 
ENDBRANCH  12  15
ENDBRANCH   5  10
ENDBRANCH   1   6
BRANCH   2  17
ATOM     17  C   UNL     1       6.444   5.605  16.705  0.00  0.00    +0.000 C 
BRANCH  17  18
ATOM     18  C   UNL     1       5.161   4.993  17.252  0.00  0.00    +0.000 A 
ATOM     19  C   UNL     1       4.790   3.649  17.091  0.00  0.00    +0.000 A 
ATOM     20  C   UNL     1       3.662   3.135  17.743  0.00  0.00    +0.000 A 
ATOM     21  C   UNL     1       2.908   3.957  18.581  0.00  0.00    +0.000 A 
ATOM     22  C   UNL     1       3.229   5.301  18.687  0.00  0.00    +0.000 A 
ATOM     23  C   UNL     1       4.348   5.814  18.046  0.00  0.00    +0.000 A 
ATOM     24  O   UNL     1       2.496   6.184  19.433  0.00  0.00    +0.000 OA
ATOM     25  C   UNL     1       2.016   5.500  20.582  0.00  0.00    +0.000 C 
ATOM     26  C   UNL     1       1.236   4.247  20.206  0.00  0.00    +0.000 C 
ATOM     27  O   UNL     1       1.897   3.367  19.287  0.00  0.00    +0.000 OA
ENDBRANCH  17  18
BRANCH  17  28
ATOM     28  O   UNL     1       7.272   4.649  16.028  0.00  0.00    +0.000 OA
ATOM     29  C   UNL     1       7.194   4.726  14.606  0.00  0.00    +0.000 C 
ENDBRANCH  17  28
ENDBRANCH   2  17
TORSDOF 7
ENDMDL
MODEL 2
REMARK VINA RESULT:      -7.9      5.313      8.132
REMARK  Name = 
REMARK  10 active torsions:
REMARK  status: ('A' for Active; 'I' for Inactive)
REMARK    1  A    between atoms: C_1  and  O_2
REMARK    2  A    between atoms: O_2  and  C_3
REMARK    3  A    between atoms: C_6  and  C_7
REMARK    4  A    between atoms: N_8  and  N_9
REMARK    5  A    between atoms: C_10  and  C_12
REMARK    6  A    between atoms: C_12  and  O_13
REMARK    7  A    between atoms: C_12  and  C_15
REMARK    8  A    between atoms: O_13  and  C_14
REMARK    9  A    between atoms: C_26  and  O_27
REMARK   10  A    between atoms: O_27  and  C_28
REMARK                            x       y       z     vdW  Elec       q    Type
REMARK                         _______ _______ _______ _____ _____    ______ ____
ROOT
ATOM      1  N   UNL     1       3.241   6.424  19.223  0.00  0.00    +0.000 N 
ATOM      2  C   UNL     1       3.227   5.202  19.894  0.00  0.00    +0.000 C 
ATOM      3  O   UNL     1       2.443   4.917  20.798  0.00  0.00    +0.000 OA
ATOM      4  H   UNL     1       3.990   6.670  18.583  0.00  0.00    +0.000 HD
ENDROOT
BRANCH   1   6
ATOM      5  C   UNL     1       2.081   8.298  18.726  0.00  0.00    +0.000 C 
ATOM      6  N   UNL     1       2.306   7.339  19.557  0.00  0.00    +0.000 NA
BRANCH   5  10
ATOM      7  C   UNL     1      -0.913  11.126  19.826  0.00  0.00    +0.000 A 
ATOM      8  C   UNL     1      -0.750  10.750  18.483  0.00  0.00    +0.000 A 
ATOM      9  C   UNL     1       0.239   9.844  18.118  0.00  0.00    +0.000 A 
ATOM     10  C   UNL     1       1.106   9.342  19.087  0.00  0.00    +0.000 A 
ATOM     11  C   UNL     1       1.025   9.787  20.403  0.00  0.00    +0.000 A 
ATOM     12  C   UNL     1       0.020  10.688  20.784  0.00  0.00    +0.000 A 
BRANCH   7  14
ATOM     13  C   UNL     1      -3.012  12.038  19.237  0.00  0.00    +0.000 C 
ATOM     14  O   UNL     1      -1.962  11.922  20.201  0.00  0.00    +0.000 OA
ENDBRANCH   7  14
BRANCH  12  15
ATOM     15  O   UNL     1       0.095  10.989  22.118  0.00  0.00    +0.000 OA
ATOM     16  C   UNL     1      -0.762  10.314  23.025  0.00  0.00    +0.000 C 
ENDBRANCH  12  15
ENDBRANCH   5  10
ENDBRANCH   1   6
BRANCH   2  17
ATOM     17  C   UNL     1       4.325   4.252  19.395  0.00  0.00    +0.000 C 
BRANCH  17  18
ATOM     18  C   UNL     1       5.200   4.747  18.250  0.00  0.00    +0.000 A 
ATOM     19  C   UNL     1       6.406   5.446  18.417  0.00  0.00    +0.000 A 
ATOM     20  C   UNL     1       7.218   5.744  17.316  0.00  0.00    +0.000 A 
ATOM     21  C   UNL     1       6.843   5.323  16.040  0.00  0.00    +0.000 A 
ATOM     22  C   UNL     1       5.621   4.695  15.861  0.00  0.00    +0.000 A 
ATOM     23  C   UNL     1       4.814   4.394  16.949  0.00  0.00    +0.000 A 
ATOM     24  O   UNL     1       5.152   4.316  14.633  0.00  0.00    +0.000 OA
ATOM     25  C   UNL     1       6.260   3.899  13.846  0.00  0.00    +0.000 C 
ATOM     26  C   UNL     1       7.331   4.979  13.768  0.00  0.00    +0.000 C 
ATOM     27  O   UNL     1       7.737   5.531  15.027  0.00  0.00    +0.000 OA
ENDBRANCH  17  18
BRANCH  17  28
ATOM     28  O   UNL     1       3.828   2.923  19.181  0.00  0.00    +0.000 OA
ATOM     29  C   UNL     1       4.397   1.949  20.054  0.00  0.00    +0.000 C 
ENDBRANCH  17  28
ENDBRANCH   2  17
TORSDOF 7
ENDMDL
MODEL 3
REMARK VINA RESULT:      -7.9      0.964      1.774
REMARK  Name = 
REMARK  10 active torsions:
REMARK  status: ('A' for Active; 'I' for Inactive)
REMARK    1  A    between atoms: C_1  and  O_2
REMARK    2  A    between atoms: O_2  and  C_3
REMARK    3  A    between atoms: C_6  and  C_7
REMARK    4  A    between atoms: N_8  and  N_9
REMARK    5  A    between atoms: C_10  and  C_12
REMARK    6  A    between atoms: C_12  and  O_13
REMARK    7  A    between atoms: C_12  and  C_15
REMARK    8  A    between atoms: O_13  and  C_14
REMARK    9  A    between atoms: C_26  and  O_27
REMARK   10  A    between atoms: O_27  and  C_28
REMARK                            x       y       z     vdW  Elec       q    Type
REMARK                         _______ _______ _______ _____ _____    ______ ____
ROOT
ATOM      1  N   UNL     1       7.208   7.941  17.244  0.00  0.00    +0.000 N 
ATOM      2  C   UNL     1       7.251   6.582  17.551  0.00  0.00    +0.000 C 
ATOM      3  O   UNL     1       7.891   6.104  18.487  0.00  0.00    +0.000 OA
ATOM      4  H   UNL     1       6.785   8.278  16.385  0.00  0.00    +0.000 HD
ENDROOT
BRANCH   1   6
ATOM      5  C   UNL     1       8.576   9.722  17.496  0.00  0.00    +0.000 C 
ATOM      6  N   UNL     1       7.876   8.793  18.051  0.00  0.00    +0.000 NA
BRANCH   5  10
ATOM      7  C   UNL     1      10.659  12.543  19.919  0.00  0.00    +0.000 A 
ATOM      8  C   UNL     1      11.002  12.376  18.569  0.00  0.00    +0.000 A 
ATOM      9  C   UNL     1      10.339  11.442  17.781  0.00  0.00    +0.000 A 
ATOM     10  C   UNL     1       9.358  10.633  18.350  0.00  0.00    +0.000 A 
ATOM     11  C   UNL     1       9.082  10.713  19.711  0.00  0.00    +0.000 A 
ATOM     12  C   UNL     1       9.734  11.664  20.511  0.00  0.00    +0.000 A 
BRANCH   7  14
ATOM     13  C   UNL     1      11.230  14.833  20.041  0.00  0.00    +0.000 C 
ATOM     14  O   UNL     1      11.227  13.545  20.661  0.00  0.00    +0.000 OA
ENDBRANCH   7  14
BRANCH  12  15
ATOM     15  O   UNL     1       9.313  11.598  21.812  0.00  0.00    +0.000 OA
ATOM     16  C   UNL     1       8.281  12.468  22.247  0.00  0.00    +0.000 C 
ENDBRANCH  12  15
ENDBRANCH   5  10
ENDBRANCH   1   6
BRANCH   2  17
ATOM     17  C   UNL     1       6.429   5.737  16.568  0.00  0.00    +0.000 C 
BRANCH  17  18
ATOM     18  C   UNL     1       5.112   5.168  17.081  0.00  0.00    +0.000 A 
ATOM     19  C   UNL     1       4.590   3.918  16.713  0.00  0.00    +0.000 A 
ATOM     20  C   UNL     1       3.442   3.411  17.336  0.00  0.00    +0.000 A 
ATOM     21  C   UNL     1       2.820   4.140  18.349  0.00  0.00    +0.000 A 
ATOM     22  C   UNL     1       3.290   5.405  18.665  0.00  0.00    +0.000 A 
ATOM     23  C   UNL     1       4.428   5.911  18.054  0.00  0.00    +0.000 A 
ATOM     24  O   UNL     1       2.691   6.210  19.597  0.00  0.00    +0.000 OA
ATOM     25  C   UNL     1       2.190   5.383  20.638  0.00  0.00    +0.000 C 
ATOM     26  C   UNL     1       1.262   4.301  20.101  0.00  0.00    +0.000 C 
ATOM     27  O   UNL     1       1.783   3.537  19.004  0.00  0.00    +0.000 OA
ENDBRANCH  17  18
BRANCH  17  28
ATOM     28  O   UNL     1       7.235   4.758  15.897  0.00  0.00    +0.000 OA
ATOM     29  C   UNL     1       7.249   4.900  14.479  0.00  0.00    +0.000 C 
ENDBRANCH  17  28
ENDBRANCH   2  17
TORSDOF 7
ENDMDL
MODEL 4
REMARK VINA RESULT:      -7.8      5.692      8.882
REMARK  Name = 
REMARK  10 active torsions:
REMARK  status: ('A' for Active; 'I' for Inactive)
REMARK    1  A    between atoms: C_1  and  O_2
REMARK    2  A    between atoms: O_2  and  C_3
REMARK    3  A    between atoms: C_6  and  C_7
REMARK    4  A    between atoms: N_8  and  N_9
REMARK    5  A    between atoms: C_10  and  C_12
REMARK    6  A    between atoms: C_12  and  O_13
REMARK    7  A    between atoms: C_12  and  C_15
REMARK    8  A    between atoms: O_13  and  C_14
REMARK    9  A    between atoms: C_26  and  O_27
REMARK   10  A    between atoms: O_27  and  C_28
REMARK                            x       y       z     vdW  Elec       q    Type
REMARK                         _______ _______ _______ _____ _____    ______ ____
ROOT
ATOM      1  N   UNL     1       1.750   8.287  18.664  0.00  0.00    +0.000 N 
ATOM      2  C   UNL     1       1.428   9.613  18.380  0.00  0.00    +0.000 C 
ATOM      3  O   UNL     1       2.027  10.311  17.563  0.00  0.00    +0.000 OA
ATOM      4  H   UNL     1       1.323   7.792  19.441  0.00  0.00    +0.000 HD
ENDROOT
BRANCH   1   6
ATOM      5  C   UNL     1       3.094   6.513  18.276  0.00  0.00    +0.000 C 
ATOM      6  N   UNL     1       2.756   7.717  17.967  0.00  0.00    +0.000 NA
BRANCH   5  10
ATOM      7  C   UNL     1       6.270   4.798  16.010  0.00  0.00    +0.000 A 
ATOM      8  C   UNL     1       5.113   4.054  16.287  0.00  0.00    +0.000 A 
ATOM      9  C   UNL     1       4.084   4.602  17.043  0.00  0.00    +0.000 A 
ATOM     10  C   UNL     1       4.224   5.884  17.570  0.00  0.00    +0.000 A 
ATOM     11  C   UNL     1       5.409   6.592  17.394  0.00  0.00    +0.000 A 
ATOM     12  C   UNL     1       6.446   6.054  16.619  0.00  0.00    +0.000 A 
BRANCH   7  14
ATOM     13  C   UNL     1       6.930   4.421  13.772  0.00  0.00    +0.000 C 
ATOM     14  O   UNL     1       7.228   4.303  15.165  0.00  0.00    +0.000 OA
ENDBRANCH   7  14
BRANCH  12  15
ATOM     15  O   UNL     1       7.515   6.907  16.549  0.00  0.00    +0.000 OA
ATOM     16  C   UNL     1       7.739   7.819  17.611  0.00  0.00    +0.000 C 
ENDBRANCH  12  15
ENDBRANCH   5  10
ENDBRANCH   1   6
BRANCH   2  17
ATOM     17  C   UNL     1       0.251  10.120  19.225  0.00  0.00    +0.000 C 
BRANCH  17  18
ATOM     18  C   UNL     1      -1.037  10.460  18.485  0.00  0.00    +0.000 A 
ATOM     19  C   UNL     1      -1.429   9.882  17.267  0.00  0.00    +0.000 A 
ATOM     20  C   UNL     1      -2.692  10.148  16.723  0.00  0.00    +0.000 A 
ATOM     21  C   UNL     1      -3.583  10.976  17.406  0.00  0.00    +0.000 A 
ATOM     22  C   UNL     1      -3.174  11.605  18.571  0.00  0.00    +0.000 A 
ATOM     23  C   UNL     1      -1.925  11.342  19.116  0.00  0.00    +0.000 A 
ATOM     24  O   UNL     1      -3.965  12.486  19.258  0.00  0.00    +0.000 OA
ATOM     25  C   UNL     1      -5.312  12.046  19.152  0.00  0.00    +0.000 C 
ATOM     26  C   UNL     1      -5.734  11.875  17.698  0.00  0.00    +0.000 C 
ATOM     27  O   UNL     1      -4.843  11.095  16.890  0.00  0.00    +0.000 OA
ENDBRANCH  17  18
BRANCH  17  28
ATOM     28  O   UNL     1       0.653  11.147  20.143  0.00  0.00    +0.000 OA
ATOM     29  C   UNL     1       0.751  10.704  21.495  0.00  0.00    +0.000 C 
ENDBRANCH  17  28
ENDBRANCH   2  17
TORSDOF 7
ENDMDL
MODEL 5
REMARK VINA RESULT:      -7.8      1.176      1.598
REMARK  Name = 
REMARK  10 active torsions:
REMARK  status: ('A' for Active; 'I' for Inactive)
REMARK    1  A    between atoms: C_1  and  O_2
REMARK    2  A    between atoms: O_2  and  C_3
REMARK    3  A    between atoms: C_6  and  C_7
REMARK    4  A    between atoms: N_8  and  N_9
REMARK    5  A    between atoms: C_10  and  C_12
REMARK    6  A    between atoms: C_12  and  O_13
REMARK    7  A    between atoms: C_12  and  C_15
REMARK    8  A    between atoms: O_13  and  C_14
REMARK    9  A    between atoms: C_26  and  O_27
REMARK   10  A    between atoms: O_27  and  C_28
REMARK                            x       y       z     vdW  Elec       q    Type
REMARK                         _______ _______ _______ _____ _____    ______ ____
ROOT
ATOM      1  N   UNL     1       7.575   7.867  17.256  0.00  0.00    +0.000 N 
ATOM      2  C   UNL     1       7.299   6.698  17.962  0.00  0.00    +0.000 C 
ATOM      3  O   UNL     1       7.883   6.355  18.990  0.00  0.00    +0.000 OA
ATOM      4  H   UNL     1       7.170   8.044  16.342  0.00  0.00    +0.000 HD
ENDROOT
BRANCH   1   6
ATOM      5  C   UNL     1       8.146   9.891  18.083  0.00  0.00    +0.000 C 
ATOM      6  N   UNL     1       8.513   8.701  17.754  0.00  0.00    +0.000 NA
BRANCH   5  10
ATOM      7  C   UNL     1      11.250  12.439  19.511  0.00  0.00    +0.000 A 
ATOM      8  C   UNL     1      10.386  11.799  20.413  0.00  0.00    +0.000 A 
ATOM      9  C   UNL     1       9.359  10.984  19.950  0.00  0.00    +0.000 A 
ATOM     10  C   UNL     1       9.158  10.840  18.579  0.00  0.00    +0.000 A 
ATOM     11  C   UNL     1       9.939  11.553  17.674  0.00  0.00    +0.000 A 
ATOM     12  C   UNL     1      10.988  12.365  18.131  0.00  0.00    +0.000 A 
BRANCH   7  14
ATOM     13  C   UNL     1      12.178  14.564  19.969  0.00  0.00    +0.000 C 
ATOM     14  O   UNL     1      12.333  13.143  19.968  0.00  0.00    +0.000 OA
ENDBRANCH   7  14
BRANCH  12  15
ATOM     15  O   UNL     1      11.648  12.964  17.092  0.00  0.00    +0.000 OA
ATOM     16  C   UNL     1      11.175  14.209  16.603  0.00  0.00    +0.000 C 
ENDBRANCH  12  15
ENDBRANCH   5  10
ENDBRANCH   1   6
BRANCH   2  17
ATOM     17  C   UNL     1       6.196   5.863  17.297  0.00  0.00    +0.000 C 
BRANCH  17  18
ATOM     18  C   UNL     1       4.904   5.672  18.083  0.00  0.00    +0.000 A 
ATOM     19  C   UNL     1       3.775   6.498  17.968  0.00  0.00    +0.000 A 
ATOM     20  C   UNL     1       2.581   6.173  18.623  0.00  0.00    +0.000 A 
ATOM     21  C   UNL     1       2.499   5.004  19.380  0.00  0.00    +0.000 A 
ATOM     22  C   UNL     1       3.631   4.223  19.554  0.00  0.00    +0.000 A 
ATOM     23  C   UNL     1       4.815   4.539  18.904  0.00  0.00    +0.000 A 
ATOM     24  O   UNL     1       3.648   3.102  20.338  0.00  0.00    +0.000 OA
ATOM     25  C   UNL     1       2.383   2.462  20.223  0.00  0.00    +0.000 C 
ATOM     26  C   UNL     1       1.241   3.411  20.564  0.00  0.00    +0.000 C 
ATOM     27  O   UNL     1       1.273   4.675  19.889  0.00  0.00    +0.000 OA
ENDBRANCH  17  18
BRANCH  17  28
ATOM     28  O   UNL     1       6.705   4.635  16.756  0.00  0.00    +0.000 OA
ATOM     29  C   UNL     1       5.809   3.989  15.854  0.00  0.00    +0.000 C 
ENDBRANCH  17  28
ENDBRANCH   2  17
TORSDOF 7
ENDMDL
MODEL 6
REMARK VINA RESULT:      -7.8      1.301      2.095
REMARK  Name = 
REMARK  10 active torsions:
REMARK  status: ('A' for Active; 'I' for Inactive)
REMARK    1  A    between atoms: C_1  and  O_2
REMARK    2  A    between atoms: O_2  and  C_3
REMARK    3  A    between atoms: C_6  and  C_7
REMARK    4  A    between atoms: N_8  and  N_9
REMARK    5  A    between atoms: C_10  and  C_12
REMARK    6  A    between atoms: C_12  and  O_13
REMARK    7  A    between atoms: C_12  and  C_15
REMARK    8  A    between atoms: O_13  and  C_14
REMARK    9  A    between atoms: C_26  and  O_27
REMARK   10  A    between atoms: O_27  and  C_28
REMARK                            x       y       z     vdW  Elec       q    Type
REMARK                         _______ _______ _______ _____ _____    ______ ____
ROOT
ATOM      1  N   UNL     1       7.609   8.022  17.287  0.00  0.00    +0.000 N 
ATOM      2  C   UNL     1       7.397   6.774  17.872  0.00  0.00    +0.000 C 
ATOM      3  O   UNL     1       8.017   6.353  18.847  0.00  0.00    +0.000 OA
ATOM      4  H   UNL     1       7.177   8.274  16.404  0.00  0.00    +0.000 HD
ENDROOT
BRANCH   1   6
ATOM      5  C   UNL     1       8.240  10.093  17.934  0.00  0.00    +0.000 C 
ATOM      6  N   UNL     1       8.523   8.838  17.853  0.00  0.00    +0.000 NA
BRANCH   5  10
ATOM      7  C   UNL     1      11.041  12.951  19.401  0.00  0.00    +0.000 A 
ATOM      8  C   UNL     1      11.397  12.075  18.364  0.00  0.00    +0.000 A 
ATOM      9  C   UNL     1      10.493  11.127  17.897  0.00  0.00    +0.000 A 
ATOM     10  C   UNL     1       9.240  11.016  18.496  0.00  0.00    +0.000 A 
ATOM     11  C   UNL     1       8.913  11.805  19.594  0.00  0.00    +0.000 A 
ATOM     12  C   UNL     1       9.812  12.775  20.062  0.00  0.00    +0.000 A 
BRANCH   7  14
ATOM     13  C   UNL     1      11.738  15.181  19.046  0.00  0.00    +0.000 C 
ATOM     14  O   UNL     1      11.886  13.961  19.777  0.00  0.00    +0.000 OA
ENDBRANCH   7  14
BRANCH  12  15
ATOM     15  O   UNL     1       9.301  13.458  21.133  0.00  0.00    +0.000 OA
ATOM     16  C   UNL     1       9.154  12.785  22.373  0.00  0.00    +0.000 C 
ENDBRANCH  12  15
ENDBRANCH   5  10
ENDBRANCH   1   6
BRANCH   2  17
ATOM     17  C   UNL     1       6.314   5.966  17.143  0.00  0.00    +0.000 C 
BRANCH  17  18
ATOM     18  C   UNL     1       5.000   5.748  17.882  0.00  0.00    +0.000 A 
ATOM     19  C   UNL     1       3.860   6.554  17.731  0.00  0.00    +0.000 A 
ATOM     20  C   UNL     1       2.650   6.203  18.343  0.00  0.00    +0.000 A 
ATOM     21  C   UNL     1       2.563   5.029  19.091  0.00  0.00    +0.000 A 
ATOM     22  C   UNL     1       3.702   4.268  19.301  0.00  0.00    +0.000 A 
ATOM     23  C   UNL     1       4.903   4.609  18.695  0.00  0.00    +0.000 A 
ATOM     24  O   UNL     1       3.712   3.143  20.081  0.00  0.00    +0.000 OA
ATOM     25  C   UNL     1       2.465   2.482  19.918  0.00  0.00    +0.000 C 
ATOM     26  C   UNL     1       1.294   3.407  20.223  0.00  0.00    +0.000 C 
ATOM     27  O   UNL     1       1.327   4.675  19.555  0.00  0.00    +0.000 OA
ENDBRANCH  17  18
BRANCH  17  28
ATOM     28  O   UNL     1       6.839   4.759  16.573  0.00  0.00    +0.000 OA
ATOM     29  C   UNL     1       6.815   4.739  15.147  0.00  0.00    +0.000 C 
ENDBRANCH  17  28
ENDBRANCH   2  17
TORSDOF 7
ENDMDL
MODEL 7
REMARK VINA RESULT:      -7.8      1.522      1.922
REMARK  Name = 
REMARK  10 active torsions:
REMARK  status: ('A' for Active; 'I' for Inactive)
REMARK    1  A    between atoms: C_1  and  O_2
REMARK    2  A    between atoms: O_2  and  C_3
REMARK    3  A    between atoms: C_6  and  C_7
REMARK    4  A    between atoms: N_8  and  N_9
REMARK    5  A    between atoms: C_10  and  C_12
REMARK    6  A    between atoms: C_12  and  O_13
REMARK    7  A    between atoms: C_12  and  C_15
REMARK    8  A    between atoms: O_13  and  C_14
REMARK    9  A    between atoms: C_26  and  O_27
REMARK   10  A    between atoms: O_27  and  C_28
REMARK                            x       y       z     vdW  Elec       q    Type
REMARK                         _______ _______ _______ _____ _____    ______ ____
ROOT
ATOM      1  N   UNL     1       6.764   6.976  17.005  0.00  0.00    +0.000 N 
ATOM      2  C   UNL     1       5.399   6.745  16.841  0.00  0.00    +0.000 C 
ATOM      3  O   UNL     1       4.532   7.609  16.962  0.00  0.00    +0.000 OA
ATOM      4  H   UNL     1       7.432   6.213  17.035  0.00  0.00    +0.000 HD
ENDROOT
BRANCH   1   6
ATOM      5  C   UNL     1       8.193   8.395  18.031  0.00  0.00    +0.000 C 
ATOM      6  N   UNL     1       7.165   8.239  17.270  0.00  0.00    +0.000 NA
BRANCH   5  10
ATOM      7  C   UNL     1       9.626  12.320  18.873  0.00  0.00    +0.000 A 
ATOM      8  C   UNL     1      10.029  11.232  19.662  0.00  0.00    +0.000 A 
ATOM      9  C   UNL     1       9.548   9.954  19.404  0.00  0.00    +0.000 A 
ATOM     10  C   UNL     1       8.620   9.760  18.382  0.00  0.00    +0.000 A 
ATOM     11  C   UNL     1       8.131  10.845  17.661  0.00  0.00    +0.000 A 
ATOM     12  C   UNL     1       8.623  12.136  17.904  0.00  0.00    +0.000 A 
BRANCH   7  14
ATOM     13  C   UNL     1      11.534  13.542  19.544  0.00  0.00    +0.000 C 
ATOM     14  O   UNL     1      10.192  13.554  19.050  0.00  0.00    +0.000 OA
ENDBRANCH   7  14
BRANCH  12  15
ATOM     15  O   UNL     1       8.033  13.060  17.083  0.00  0.00    +0.000 OA
ATOM     16  C   UNL     1       7.120  13.992  17.640  0.00  0.00    +0.000 C 
ENDBRANCH  12  15
ENDBRANCH   5  10
ENDBRANCH   1   6
BRANCH   2  17
ATOM     17  C   UNL     1       5.092   5.276  16.518  0.00  0.00    +0.000 C 
BRANCH  17  18
ATOM     18  C   UNL     1       4.506   4.429  17.641  0.00  0.00    +0.000 A 
ATOM     19  C   UNL     1       5.268   3.693  18.561  0.00  0.00    +0.000 A 
ATOM     20  C   UNL     1       4.655   3.053  19.646  0.00  0.00    +0.000 A 
ATOM     21  C   UNL     1       3.278   3.165  19.833  0.00  0.00    +0.000 A 
ATOM     22  C   UNL     1       2.513   3.831  18.889  0.00  0.00    +0.000 A 
ATOM     23  C   UNL     1       3.115   4.470  17.814  0.00  0.00    +0.000 A 
ATOM     24  O   UNL     1       1.150   3.922  18.965  0.00  0.00    +0.000 OA
ATOM     25  C   UNL     1       0.790   4.025  20.337  0.00  0.00    +0.000 C 
ATOM     26  C   UNL     1       1.357   2.871  21.154  0.00  0.00    +0.000 C 
ATOM     27  O   UNL     1       2.758   2.626  20.977  0.00  0.00    +0.000 OA
ENDBRANCH  17  18
BRANCH  17  28
ATOM     28  O   UNL     1       6.187   4.634  15.850  0.00  0.00    +0.000 OA
ATOM     29  C   UNL     1       5.982   4.456  14.450  0.00  0.00    +0.000 C 
ENDBRANCH  17  28
ENDBRANCH   2  17
TORSDOF 7
ENDMDL
MODEL 8
REMARK VINA RESULT:      -7.8      1.641      1.849
REMARK  Name = 
REMARK  10 active torsions:
REMARK  status: ('A' for Active; 'I' for Inactive)
REMARK    1  A    between atoms: C_1  and  O_2
REMARK    2  A    between atoms: O_2  and  C_3
REMARK    3  A    between atoms: C_6  and  C_7
REMARK    4  A    between atoms: N_8  and  N_9
REMARK    5  A    between atoms: C_10  and  C_12
REMARK    6  A    between atoms: C_12  and  O_13
REMARK    7  A    between atoms: C_12  and  C_15
REMARK    8  A    between atoms: O_13  and  C_14
REMARK    9  A    between atoms: C_26  and  O_27
REMARK   10  A    between atoms: O_27  and  C_28
REMARK                            x       y       z     vdW  Elec       q    Type
REMARK                         _______ _______ _______ _____ _____    ______ ____
ROOT
ATOM      1  N   UNL     1       7.322   7.418  17.008  0.00  0.00    +0.000 N 
ATOM      2  C   UNL     1       5.980   7.041  16.998  0.00  0.00    +0.000 C 
ATOM      3  O   UNL     1       5.056   7.762  17.374  0.00  0.00    +0.000 OA
ATOM      4  H   UNL     1       8.062   6.748  16.824  0.00  0.00    +0.000 HD
ENDROOT
BRANCH   1   6
ATOM      5  C   UNL     1       8.603   8.811  18.242  0.00  0.00    +0.000 C 
ATOM      6  N   UNL     1       7.625   8.669  17.416  0.00  0.00    +0.000 NA
BRANCH   5  10
ATOM      7  C   UNL     1       9.755  12.694  19.569  0.00  0.00    +0.000 A 
ATOM      8  C   UNL     1      10.006  11.568  20.367  0.00  0.00    +0.000 A 
ATOM      9  C   UNL     1       9.613  10.302  19.947  0.00  0.00    +0.000 A 
ATOM     10  C   UNL     1       8.922  10.158  18.745  0.00  0.00    +0.000 A 
ATOM     11  C   UNL     1       8.573  11.277  17.996  0.00  0.00    +0.000 A 
ATOM     12  C   UNL     1       8.979  12.557  18.404  0.00  0.00    +0.000 A 
BRANCH   7  14
ATOM     13  C   UNL     1       9.401  14.693  20.780  0.00  0.00    +0.000 C 
ATOM     14  O   UNL     1      10.248  13.921  19.926  0.00  0.00    +0.000 OA
ENDBRANCH   7  14
BRANCH  12  15
ATOM     15  O   UNL     1       8.555  13.521  17.528  0.00  0.00    +0.000 OA
ATOM     16  C   UNL     1       7.239  14.033  17.652  0.00  0.00    +0.000 C 
ENDBRANCH  12  15
ENDBRANCH   5  10
ENDBRANCH   1   6
BRANCH   2  17
ATOM     17  C   UNL     1       5.781   5.607  16.489  0.00  0.00    +0.000 C 
BRANCH  17  18
ATOM     18  C   UNL     1       5.084   4.630  17.427  0.00  0.00    +0.000 A 
ATOM     19  C   UNL     1       5.594   4.219  18.669  0.00  0.00    +0.000 A 
ATOM     20  C   UNL     1       4.825   3.427  19.531  0.00  0.00    +0.000 A 
ATOM     21  C   UNL     1       3.530   3.058  19.168  0.00  0.00    +0.000 A 
ATOM     22  C   UNL     1       3.049   3.401  17.914  0.00  0.00    +0.000 A 
ATOM     23  C   UNL     1       3.805   4.189  17.058  0.00  0.00    +0.000 A 
ATOM     24  O   UNL     1       1.817   3.016  17.459  0.00  0.00    +0.000 OA
ATOM     25  C   UNL     1       0.920   3.012  18.562  0.00  0.00    +0.000 C 
ATOM     26  C   UNL     1       1.433   2.141  19.701  0.00  0.00    +0.000 C 
ATOM     27  O   UNL     1       2.786   2.394  20.103  0.00  0.00    +0.000 OA
ENDBRANCH  17  18
BRANCH  17  28
ATOM     28  O   UNL     1       6.983   5.069  15.918  0.00  0.00    +0.000 OA
ATOM     29  C   UNL     1       6.803   4.515  14.617  0.00  0.00    +0.000 C 
ENDBRANCH  17  28
ENDBRANCH   2  17
TORSDOF 7
ENDMDL
MODEL 9
REMARK VINA RESULT:      -7.7      1.709      2.503
REMARK  Name = 
REMARK  10 active torsions:
REMARK  status: ('A' for Active; 'I' for Inactive)
REMARK    1  A    between atoms: C_1  and  O_2
REMARK    2  A    between atoms: O_2  and  C_3
REMARK    3  A    between atoms: C_6  and  C_7
REMARK    4  A    between atoms: N_8  and  N_9
REMARK    5  A    between atoms: C_10  and  C_12
REMARK    6  A    between atoms: C_12  and  O_13
REMARK    7  A    between atoms: C_12  and  C_15
REMARK    8  A    between atoms: O_13  and  C_14
REMARK    9  A    between atoms: C_26  and  O_27
REMARK   10  A    between atoms: O_27  and  C_28
REMARK                            x       y       z     vdW  Elec       q    Type
REMARK                         _______ _______ _______ _____ _____    ______ ____
ROOT
ATOM      1  N   UNL     1       7.423   7.384  17.005  0.00  0.00    +0.000 N 
ATOM      2  C   UNL     1       6.086   6.995  16.954  0.00  0.00    +0.000 C 
ATOM      3  O   UNL     1       5.142   7.722  17.258  0.00  0.00    +0.000 OA
ATOM      4  H   UNL     1       8.176   6.714  16.881  0.00  0.00    +0.000 HD
ENDROOT
BRANCH   1   6
ATOM      5  C   UNL     1       8.634   8.840  18.237  0.00  0.00    +0.000 C 
ATOM      6  N   UNL     1       7.699   8.654  17.370  0.00  0.00    +0.000 NA
BRANCH   5  10
ATOM      7  C   UNL     1       9.205  12.838  19.600  0.00  0.00    +0.000 A 
ATOM      8  C   UNL     1       9.086  12.566  18.229  0.00  0.00    +0.000 A 
ATOM      9  C   UNL     1       8.921  11.261  17.779  0.00  0.00    +0.000 A 
ATOM     10  C   UNL     1       8.921  10.211  18.695  0.00  0.00    +0.000 A 
ATOM     11  C   UNL     1       9.145  10.456  20.046  0.00  0.00    +0.000 A 
ATOM     12  C   UNL     1       9.296  11.770  20.512  0.00  0.00    +0.000 A 
BRANCH   7  14
ATOM     13  C   UNL     1      10.146  14.991  19.349  0.00  0.00    +0.000 C 
ATOM     14  O   UNL     1       9.245  14.131  20.050  0.00  0.00    +0.000 OA
ENDBRANCH   7  14
BRANCH  12  15
ATOM     15  O   UNL     1       9.486  11.804  21.867  0.00  0.00    +0.000 OA
ATOM     16  C   UNL     1       8.359  11.929  22.718  0.00  0.00    +0.000 C 
ENDBRANCH  12  15
ENDBRANCH   5  10
ENDBRANCH   1   6
BRANCH   2  17
ATOM     17  C   UNL     1       5.920   5.538  16.499  0.00  0.00    +0.000 C 
BRANCH  17  18
ATOM     18  C   UNL     1       5.202   4.593  17.454  0.00  0.00    +0.000 A 
ATOM     19  C   UNL     1       5.662   4.260  18.737  0.00  0.00    +0.000 A 
ATOM     20  C   UNL     1       4.873   3.493  19.603  0.00  0.00    +0.000 A 
ATOM     21  C   UNL     1       3.605   3.072  19.201  0.00  0.00    +0.000 A 
ATOM     22  C   UNL     1       3.176   3.338  17.910  0.00  0.00    +0.000 A 
ATOM     23  C   UNL     1       3.953   4.101  17.049  0.00  0.00    +0.000 A 
ATOM     24  O   UNL     1       1.977   2.898  17.419  0.00  0.00    +0.000 OA
ATOM     25  C   UNL     1       1.029   2.928  18.477  0.00  0.00    +0.000 C 
ATOM     26  C   UNL     1       1.507   2.130  19.684  0.00  0.00    +0.000 C 
ATOM     27  O   UNL     1       2.833   2.438  20.134  0.00  0.00    +0.000 OA
ENDBRANCH  17  18
BRANCH  17  28
ATOM     28  O   UNL     1       7.146   4.992  15.992  0.00  0.00    +0.000 OA
ATOM     29  C   UNL     1       7.130   4.751  14.586  0.00  0.00    +0.000 C 
ENDBRANCH  17  28
ENDBRANCH   2  17
TORSDOF 7
ENDMDL
