MODEL 1
REMARK VINA RESULT:      -6.7      0.000      0.000
REMARK  Name = 
REMARK  8 active torsions:
REMARK  status: ('A' for Active; 'I' for Inactive)
REMARK    1  A    between atoms: C_1  and  O_2
REMARK    2  A    between atoms: O_2  and  C_3
REMARK    3  A    between atoms: C_3  and  C_5
REMARK    4  A    between atoms: C_5  and  C_6
REMARK    5  A    between atoms: C_8  and  O_9
REMARK    6  A    between atoms: O_9  and  C_10
REMARK    7  A    between atoms: C_13  and  S_14
REMARK    8  A    between atoms: S_14  and  N_15
REMARK                            x       y       z     vdW  Elec       q    Type
REMARK                         _______ _______ _______ _____ _____    ______ ____
ROOT
ATOM      1  C   UNL     1       4.904   4.764  16.829  0.00  0.00    +0.000 A 
ATOM      2  C   UNL     1       3.646   4.129  16.741  0.00  0.00    +0.000 A 
ATOM      3  C   UNL     1       3.109   3.384  17.796  0.00  0.00    +0.000 A 
ATOM      4  C   UNL     1       3.840   3.254  18.972  0.00  0.00    +0.000 A 
ATOM      5  C   UNL     1       5.091   3.861  19.085  0.00  0.00    +0.000 A 
ATOM      6  C   UNL     1       5.626   4.618  18.030  0.00  0.00    +0.000 A 
ENDROOT
BRANCH   6   7
ATOM      7  S   UNL     1       7.237   5.330  18.320  0.00  0.00    +0.000 S 
ATOM      8  O   UNL     1       8.240   4.391  17.871  0.00  0.00    +0.000 OA
ATOM      9  O   UNL     1       7.241   6.706  17.883  0.00  0.00    +0.000 OA
BRANCH   7  10
ATOM     10  N   UNL     1       7.321   5.320  19.997  0.00  0.00    +0.000 NA
ATOM     11  H   UNL     1       6.656   5.977  20.399  0.00  0.00    +0.000 HD
ATOM     12  H   UNL     1       8.277   5.405  20.369  0.00  0.00    +0.000 HD
ENDBRANCH   7  10
ENDBRANCH   6   7
BRANCH   3  13
ATOM     13  O   UNL     1       1.871   2.858  17.557  0.00  0.00    +0.000 OA
ATOM     14  C   UNL     1       1.056   2.596  18.695  0.00  0.00    +0.000 C 
ENDBRANCH   3  13
BRANCH   1  15
ATOM     15  C   UNL     1       5.308   5.644  15.664  0.00  0.00    +0.000 C 
BRANCH  15  16
ATOM     16  C   UNL     1       6.283   4.952  14.735  0.00  0.00    +0.000 C 
ATOM     17  O   UNL     1       7.489   5.183  14.695  0.00  0.00    +0.000 OA
BRANCH  16  19
ATOM     18  C   UNL     1       6.339   3.634  12.793  0.00  0.00    +0.000 C 
ATOM     19  O   UNL     1       5.632   4.035  13.967  0.00  0.00    +0.000 OA
ENDBRANCH  16  19
ENDBRANCH  15  16
ENDBRANCH   1  15
TORSDOF 6
ENDMDL
MODEL 2
REMARK VINA RESULT:      -6.6      0.944      1.124
REMARK  Name = 
REMARK  8 active torsions:
REMARK  status: ('A' for Active; 'I' for Inactive)
REMARK    1  A    between atoms: C_1  and  O_2
REMARK    2  A    between atoms: O_2  and  C_3
REMARK    3  A    between atoms: C_3  and  C_5
REMARK    4  A    between atoms: C_5  and  C_6
REMARK    5  A    between atoms: C_8  and  O_9
REMARK    6  A    between atoms: O_9  and  C_10
REMARK    7  A    between atoms: C_13  and  S_14
REMARK    8  A    between atoms: S_14  and  N_15
REMARK                            x       y       z     vdW  Elec       q    Type
REMARK                         _______ _______ _______ _____ _____    ______ ____
ROOT
ATOM      1  C   UNL     1       5.006   4.879  16.983  0.00  0.00    +0.000 A 
ATOM      2  C   UNL     1       3.710   4.334  16.847  0.00  0.00    +0.000 A 
ATOM      3  C   UNL     1       3.055   3.693  17.903  0.00  0.00    +0.000 A 
ATOM      4  C   UNL     1       3.701   3.577  19.129  0.00  0.00    +0.000 A 
ATOM      5  C   UNL     1       4.987   4.096  19.290  0.00  0.00    +0.000 A 
ATOM      6  C   UNL     1       5.641   4.750  18.233  0.00  0.00    +0.000 A 
ENDROOT
BRANCH   6   7
ATOM      7  S   UNL     1       7.281   5.358  18.589  0.00  0.00    +0.000 S 
ATOM      8  O   UNL     1       7.472   6.601  17.879  0.00  0.00    +0.000 OA
ATOM      9  O   UNL     1       7.537   5.249  20.006  0.00  0.00    +0.000 OA
BRANCH   7  10
ATOM     10  N   UNL     1       8.244   4.230  17.801  0.00  0.00    +0.000 NA
ATOM     11  H   UNL     1       8.582   3.522  18.451  0.00  0.00    +0.000 HD
ATOM     12  H   UNL     1       8.978   4.645  17.211  0.00  0.00    +0.000 HD
ENDBRANCH   7  10
ENDBRANCH   6   7
BRANCH   3  13
ATOM     13  O   UNL     1       1.797   3.246  17.613  0.00  0.00    +0.000 OA
ATOM     14  C   UNL     1       1.243   2.275  18.494  0.00  0.00    +0.000 C 
ENDBRANCH   3  13
BRANCH   1  15
ATOM     15  C   UNL     1       5.545   5.659  15.800  0.00  0.00    +0.000 C 
BRANCH  15  16
ATOM     16  C   UNL     1       6.587   4.878  15.027  0.00  0.00    +0.000 C 
ATOM     17  O   UNL     1       7.735   5.265  14.820  0.00  0.00    +0.000 OA
BRANCH  16  19
ATOM     18  C   UNL     1       5.836   3.602  13.205  0.00  0.00    +0.000 C 
ATOM     19  O   UNL     1       6.071   3.689  14.611  0.00  0.00    +0.000 OA
ENDBRANCH  16  19
ENDBRANCH  15  16
ENDBRANCH   1  15
TORSDOF 6
ENDMDL
MODEL 3
REMARK VINA RESULT:      -6.6      1.342      1.525
REMARK  Name = 
REMARK  8 active torsions:
REMARK  status: ('A' for Active; 'I' for Inactive)
REMARK    1  A    between atoms: C_1  and  O_2
REMARK    2  A    between atoms: O_2  and  C_3
REMARK    3  A    between atoms: C_3  and  C_5
REMARK    4  A    between atoms: C_5  and  C_6
REMARK    5  A    between atoms: C_8  and  O_9
REMARK    6  A    between atoms: O_9  and  C_10
REMARK    7  A    between atoms: C_13  and  S_14
REMARK    8  A    between atoms: S_14  and  N_15
REMARK                            x       y       z     vdW  Elec       q    Type
REMARK                         _______ _______ _______ _____ _____    ______ ____
ROOT
ATOM      1  C   UNL     1       5.169   4.173  17.034  0.00  0.00    +0.000 A 
ATOM      2  C   UNL     1       3.775   3.954  17.054  0.00  0.00    +0.000 A 
ATOM      3  C   UNL     1       2.971   4.350  18.127  0.00  0.00    +0.000 A 
ATOM      4  C   UNL     1       3.561   4.976  19.219  0.00  0.00    +0.000 A 
ATOM      5  C   UNL     1       4.939   5.196  19.233  0.00  0.00    +0.000 A 
ATOM      6  C   UNL     1       5.746   4.808  18.151  0.00  0.00    +0.000 A 
ENDROOT
BRANCH   6   7
ATOM      7  S   UNL     1       7.490   5.154  18.316  0.00  0.00    +0.000 S 
ATOM      8  O   UNL     1       7.755   5.522  19.688  0.00  0.00    +0.000 OA
ATOM      9  O   UNL     1       8.249   4.122  17.649  0.00  0.00    +0.000 OA
BRANCH   7  10
ATOM     10  N   UNL     1       7.646   6.568  17.425  0.00  0.00    +0.000 NA
ATOM     11  H   UNL     1       7.470   7.386  18.005  0.00  0.00    +0.000 HD
ATOM     12  H   UNL     1       7.128   6.562  16.535  0.00  0.00    +0.000 HD
ENDBRANCH   7  10
ENDBRANCH   6   7
BRANCH   3  13
ATOM     13  O   UNL     1       1.639   4.086  17.975  0.00  0.00    +0.000 OA
ATOM     14  C   UNL     1       1.145   2.906  18.599  0.00  0.00    +0.000 C 
ENDBRANCH   3  13
BRANCH   1  15
ATOM     15  C   UNL     1       5.900   3.811  15.757  0.00  0.00    +0.000 C 
BRANCH  15  16
ATOM     16  C   UNL     1       6.069   5.002  14.836  0.00  0.00    +0.000 C 
ATOM     17  O   UNL     1       5.628   6.126  15.064  0.00  0.00    +0.000 OA
BRANCH  16  19
ATOM     18  C   UNL     1       6.188   3.623  12.940  0.00  0.00    +0.000 C 
ATOM     19  O   UNL     1       6.787   4.647  13.735  0.00  0.00    +0.000 OA
ENDBRANCH  16  19
ENDBRANCH  15  16
ENDBRANCH   1  15
TORSDOF 6
ENDMDL
MODEL 4
REMARK VINA RESULT:      -6.6      1.051      1.444
REMARK  Name = 
REMARK  8 active torsions:
REMARK  status: ('A' for Active; 'I' for Inactive)
REMARK    1  A    between atoms: C_1  and  O_2
REMARK    2  A    between atoms: O_2  and  C_3
REMARK    3  A    between atoms: C_3  and  C_5
REMARK    4  A    between atoms: C_5  and  C_6
REMARK    5  A    between atoms: C_8  and  O_9
REMARK    6  A    between atoms: O_9  and  C_10
REMARK    7  A    between atoms: C_13  and  S_14
REMARK    8  A    between atoms: S_14  and  N_15
REMARK                            x       y       z     vdW  Elec       q    Type
REMARK                         _______ _______ _______ _____ _____    ______ ____
ROOT
ATOM      1  C   UNL     1       4.936   4.716  16.892  0.00  0.00    +0.000 A 
ATOM      2  C   UNL     1       3.664   4.114  16.774  0.00  0.00    +0.000 A 
ATOM      3  C   UNL     1       3.039   3.472  17.848  0.00  0.00    +0.000 A 
ATOM      4  C   UNL     1       3.691   3.415  19.074  0.00  0.00    +0.000 A 
ATOM      5  C   UNL     1       4.954   3.992  19.218  0.00  0.00    +0.000 A 
ATOM      6  C   UNL     1       5.578   4.646  18.143  0.00  0.00    +0.000 A 
ENDROOT
BRANCH   6   7
ATOM      7  S   UNL     1       7.192   5.330  18.479  0.00  0.00    +0.000 S 
ATOM      8  O   UNL     1       7.336   6.553  17.722  0.00  0.00    +0.000 OA
ATOM      9  O   UNL     1       7.446   5.286  19.900  0.00  0.00    +0.000 OA
BRANCH   7  10
ATOM     10  N   UNL     1       8.201   4.212  17.738  0.00  0.00    +0.000 NA
ATOM     11  H   UNL     1       8.523   4.554  16.834  0.00  0.00    +0.000 HD
ATOM     12  H   UNL     1       7.822   3.255  17.717  0.00  0.00    +0.000 HD
ENDBRANCH   7  10
ENDBRANCH   6   7
BRANCH   3  13
ATOM     13  O   UNL     1       1.800   2.965  17.572  0.00  0.00    +0.000 OA
ATOM     14  C   UNL     1       1.019   2.542  18.685  0.00  0.00    +0.000 C 
ENDBRANCH   3  13
BRANCH   1  15
ATOM     15  C   UNL     1       5.440   5.487  15.688  0.00  0.00    +0.000 C 
BRANCH  15  16
ATOM     16  C   UNL     1       6.355   4.654  14.816  0.00  0.00    +0.000 C 
ATOM     17  O   UNL     1       6.057   3.562  14.339  0.00  0.00    +0.000 OA
BRANCH  16  19
ATOM     18  C   UNL     1       7.980   5.355  13.274  0.00  0.00    +0.000 C 
ATOM     19  O   UNL     1       7.541   5.296  14.631  0.00  0.00    +0.000 OA
ENDBRANCH  16  19
ENDBRANCH  15  16
ENDBRANCH   1  15
TORSDOF 6
ENDMDL
MODEL 5
REMARK VINA RESULT:      -6.5      2.796      3.996
REMARK  Name = 
REMARK  8 active torsions:
REMARK  status: ('A' for Active; 'I' for Inactive)
REMARK    1  A    between atoms: C_1  and  O_2
REMARK    2  A    between atoms: O_2  and  C_3
REMARK    3  A    between atoms: C_3  and  C_5
REMARK    4  A    between atoms: C_5  and  C_6
REMARK    5  A    between atoms: C_8  and  O_9
REMARK    6  A    between atoms: O_9  and  C_10
REMARK    7  A    between atoms: C_13  and  S_14
REMARK    8  A    between atoms: S_14  and  N_15
REMARK                            x       y       z     vdW  Elec       q    Type
REMARK                         _______ _______ _______ _____ _____    ______ ____
ROOT
ATOM      1  C   UNL     1       4.241   4.911  17.590  0.00  0.00    +0.000 A 
ATOM      2  C   UNL     1       4.049   6.291  17.361  0.00  0.00    +0.000 A 
ATOM      3  C   UNL     1       3.171   7.062  18.130  0.00  0.00    +0.000 A 
ATOM      4  C   UNL     1       2.453   6.451  19.152  0.00  0.00    +0.000 A 
ATOM      5  C   UNL     1       2.613   5.086  19.395  0.00  0.00    +0.000 A 
ATOM      6  C   UNL     1       3.503   4.314  18.630  0.00  0.00    +0.000 A 
ENDROOT
BRANCH   6   7
ATOM      7  S   UNL     1       3.597   2.583  19.056  0.00  0.00    +0.000 S 
ATOM      8  O   UNL     1       2.656   2.323  20.122  0.00  0.00    +0.000 OA
ATOM      9  O   UNL     1       3.609   1.790  17.848  0.00  0.00    +0.000 OA
BRANCH   7  10
ATOM     10  N   UNL     1       5.120   2.482  19.756  0.00  0.00    +0.000 NA
ATOM     11  H   UNL     1       5.553   1.583  19.557  0.00  0.00    +0.000 HD
ATOM     12  H   UNL     1       5.142   2.752  20.749  0.00  0.00    +0.000 HD
ENDBRANCH   7  10
ENDBRANCH   6   7
BRANCH   3  13
ATOM     13  O   UNL     1       3.124   8.386  17.794  0.00  0.00    +0.000 OA
ATOM     14  C   UNL     1       1.843   9.008  17.825  0.00  0.00    +0.000 C 
ENDBRANCH   3  13
BRANCH   1  15
ATOM     15  C   UNL     1       5.315   4.226  16.770  0.00  0.00    +0.000 C 
BRANCH  15  16
ATOM     16  C   UNL     1       6.709   4.569  17.251  0.00  0.00    +0.000 C 
ATOM     17  O   UNL     1       7.101   4.428  18.406  0.00  0.00    +0.000 OA
BRANCH  16  19
ATOM     18  C   UNL     1       6.952   4.726  14.921  0.00  0.00    +0.000 C 
ATOM     19  O   UNL     1       7.460   5.042  16.217  0.00  0.00    +0.000 OA
ENDBRANCH  16  19
ENDBRANCH  15  16
ENDBRANCH   1  15
TORSDOF 6
ENDMDL
MODEL 6
REMARK VINA RESULT:      -6.4      3.060      4.003
REMARK  Name = 
REMARK  8 active torsions:
REMARK  status: ('A' for Active; 'I' for Inactive)
REMARK    1  A    between atoms: C_1  and  O_2
REMARK    2  A    between atoms: O_2  and  C_3
REMARK    3  A    between atoms: C_3  and  C_5
REMARK    4  A    between atoms: C_5  and  C_6
REMARK    5  A    between atoms: C_8  and  O_9
REMARK    6  A    between atoms: O_9  and  C_10
REMARK    7  A    between atoms: C_13  and  S_14
REMARK    8  A    between atoms: S_14  and  N_15
REMARK                            x       y       z     vdW  Elec       q    Type
REMARK                         _______ _______ _______ _____ _____    ______ ____
ROOT
ATOM      1  C   UNL     1       4.305   4.845  17.765  0.00  0.00    +0.000 A 
ATOM      2  C   UNL     1       4.068   6.196  17.428  0.00  0.00    +0.000 A 
ATOM      3  C   UNL     1       3.171   6.997  18.141  0.00  0.00    +0.000 A 
ATOM      4  C   UNL     1       2.479   6.448  19.214  0.00  0.00    +0.000 A 
ATOM      5  C   UNL     1       2.684   5.113  19.564  0.00  0.00    +0.000 A 
ATOM      6  C   UNL     1       3.593   4.310  18.856  0.00  0.00    +0.000 A 
ENDROOT
BRANCH   6   7
ATOM      7  S   UNL     1       3.745   2.623  19.419  0.00  0.00    +0.000 S 
ATOM      8  O   UNL     1       3.290   1.746  18.364  0.00  0.00    +0.000 OA
ATOM      9  O   UNL     1       5.031   2.441  20.051  0.00  0.00    +0.000 OA
BRANCH   7  10
ATOM     10  N   UNL     1       2.567   2.550  20.613  0.00  0.00    +0.000 NA
ATOM     11  H   UNL     1       2.931   2.878  21.505  0.00  0.00    +0.000 HD
ATOM     12  H   UNL     1       2.076   1.646  20.663  0.00  0.00    +0.000 HD
ENDBRANCH   7  10
ENDBRANCH   6   7
BRANCH   3  13
ATOM     13  O   UNL     1       3.079   8.288  17.701  0.00  0.00    +0.000 OA
ATOM     14  C   UNL     1       1.830   8.943  17.895  0.00  0.00    +0.000 C 
ENDBRANCH   3  13
BRANCH   1  15
ATOM     15  C   UNL     1       5.395   4.130  16.993  0.00  0.00    +0.000 C 
BRANCH  15  16
ATOM     16  C   UNL     1       6.781   4.524  17.461  0.00  0.00    +0.000 C 
ATOM     17  O   UNL     1       7.098   4.687  18.637  0.00  0.00    +0.000 OA
BRANCH  16  19
ATOM     18  C   UNL     1       6.961   4.721  15.129  0.00  0.00    +0.000 C 
ATOM     19  O   UNL     1       7.618   4.655  16.395  0.00  0.00    +0.000 OA
ENDBRANCH  16  19
ENDBRANCH  15  16
ENDBRANCH   1  15
TORSDOF 6
ENDMDL
MODEL 7
REMARK VINA RESULT:      -6.3      1.319      1.433
REMARK  Name = 
REMARK  8 active torsions:
REMARK  status: ('A' for Active; 'I' for Inactive)
REMARK    1  A    between atoms: C_1  and  O_2
REMARK    2  A    between atoms: O_2  and  C_3
REMARK    3  A    between atoms: C_3  and  C_5
REMARK    4  A    between atoms: C_5  and  C_6
REMARK    5  A    between atoms: C_8  and  O_9
REMARK    6  A    between atoms: O_9  and  C_10
REMARK    7  A    between atoms: C_13  and  S_14
REMARK    8  A    between atoms: S_14  and  N_15
REMARK                            x       y       z     vdW  Elec       q    Type
REMARK                         _______ _______ _______ _____ _____    ______ ____
ROOT
ATOM      1  C   UNL     1       5.114   4.210  17.126  0.00  0.00    +0.000 A 
ATOM      2  C   UNL     1       3.741   3.890  17.189  0.00  0.00    +0.000 A 
ATOM      3  C   UNL     1       2.934   4.269  18.267  0.00  0.00    +0.000 A 
ATOM      4  C   UNL     1       3.501   4.978  19.319  0.00  0.00    +0.000 A 
ATOM      5  C   UNL     1       4.859   5.299  19.290  0.00  0.00    +0.000 A 
ATOM      6  C   UNL     1       5.667   4.929  18.203  0.00  0.00    +0.000 A 
ENDROOT
BRANCH   6   7
ATOM      7  S   UNL     1       7.384   5.407  18.311  0.00  0.00    +0.000 S 
ATOM      8  O   UNL     1       7.628   6.455  17.346  0.00  0.00    +0.000 OA
ATOM      9  O   UNL     1       7.756   5.555  19.699  0.00  0.00    +0.000 OA
BRANCH   7  10
ATOM     10  N   UNL     1       8.159   4.044  17.711  0.00  0.00    +0.000 NA
ATOM     11  H   UNL     1       9.170   4.137  17.786  0.00  0.00    +0.000 HD
ATOM     12  H   UNL     1       7.830   3.751  16.780  0.00  0.00    +0.000 HD
ENDBRANCH   7  10
ENDBRANCH   6   7
BRANCH   3  13
ATOM     13  O   UNL     1       1.622   3.903  18.159  0.00  0.00    +0.000 OA
ATOM     14  C   UNL     1       1.291   2.580  18.568  0.00  0.00    +0.000 C 
ENDBRANCH   3  13
BRANCH   1  15
ATOM     15  C   UNL     1       5.841   3.852  15.845  0.00  0.00    +0.000 C 
BRANCH  15  16
ATOM     16  C   UNL     1       5.550   4.834  14.728  0.00  0.00    +0.000 C 
ATOM     17  O   UNL     1       5.626   6.055  14.838  0.00  0.00    +0.000 OA
BRANCH  16  19
ATOM     18  C   UNL     1       6.308   3.614  12.871  0.00  0.00    +0.000 C 
ATOM     19  O   UNL     1       5.206   4.165  13.593  0.00  0.00    +0.000 OA
ENDBRANCH  16  19
ENDBRANCH  15  16
ENDBRANCH   1  15
TORSDOF 6
ENDMDL
MODEL 8
REMARK VINA RESULT:      -6.3      0.953      1.157
REMARK  Name = 
REMARK  8 active torsions:
REMARK  status: ('A' for Active; 'I' for Inactive)
REMARK    1  A    between atoms: C_1  and  O_2
REMARK    2  A    between atoms: O_2  and  C_3
REMARK    3  A    between atoms: C_3  and  C_5
REMARK    4  A    between atoms: C_5  and  C_6
REMARK    5  A    between atoms: C_8  and  O_9
REMARK    6  A    between atoms: O_9  and  C_10
REMARK    7  A    between atoms: C_13  and  S_14
REMARK    8  A    between atoms: S_14  and  N_15
REMARK                            x       y       z     vdW  Elec       q    Type
REMARK                         _______ _______ _______ _____ _____    ______ ____
ROOT
ATOM      1  C   UNL     1       4.962   5.304  17.181  0.00  0.00    +0.000 A 
ATOM      2  C   UNL     1       3.588   4.990  17.256  0.00  0.00    +0.000 A 
ATOM      3  C   UNL     1       2.979   4.581  18.447  0.00  0.00    +0.000 A 
ATOM      4  C   UNL     1       3.751   4.471  19.598  0.00  0.00    +0.000 A 
ATOM      5  C   UNL     1       5.115   4.765  19.551  0.00  0.00    +0.000 A 
ATOM      6  C   UNL     1       5.725   5.185  18.358  0.00  0.00    +0.000 A 
ENDROOT
BRANCH   6   7
ATOM      7  S   UNL     1       7.476   5.520  18.454  0.00  0.00    +0.000 S 
ATOM      8  O   UNL     1       8.188   4.389  17.908  0.00  0.00    +0.000 OA
ATOM      9  O   UNL     1       7.733   6.867  18.000  0.00  0.00    +0.000 OA
BRANCH   7  10
ATOM     10  N   UNL     1       7.745   5.474  20.111  0.00  0.00    +0.000 NA
ATOM     11  H   UNL     1       8.377   4.714  20.356  0.00  0.00    +0.000 HD
ATOM     12  H   UNL     1       6.885   5.507  20.676  0.00  0.00    +0.000 HD
ENDBRANCH   7  10
ENDBRANCH   6   7
BRANCH   3  13
ATOM     13  O   UNL     1       1.637   4.341  18.354  0.00  0.00    +0.000 OA
ATOM     14  C   UNL     1       1.199   3.024  18.672  0.00  0.00    +0.000 C 
ENDBRANCH   3  13
BRANCH   1  15
ATOM     15  C   UNL     1       5.464   5.857  15.862  0.00  0.00    +0.000 C 
BRANCH  15  16
ATOM     16  C   UNL     1       6.273   4.838  15.085  0.00  0.00    +0.000 C 
ATOM     17  O   UNL     1       6.086   3.625  15.124  0.00  0.00    +0.000 OA
BRANCH  16  19
ATOM     18  C   UNL     1       7.449   4.877  13.054  0.00  0.00    +0.000 C 
ATOM     19  O   UNL     1       7.222   5.465  14.335  0.00  0.00    +0.000 OA
ENDBRANCH  16  19
ENDBRANCH  15  16
ENDBRANCH   1  15
TORSDOF 6
ENDMDL
MODEL 9
REMARK VINA RESULT:      -6.3      1.285      1.342
REMARK  Name = 
REMARK  8 active torsions:
REMARK  status: ('A' for Active; 'I' for Inactive)
REMARK    1  A    between atoms: C_1  and  O_2
REMARK    2  A    between atoms: O_2  and  C_3
REMARK    3  A    between atoms: C_3  and  C_5
REMARK    4  A    between atoms: C_5  and  C_6
REMARK    5  A    between atoms: C_8  and  O_9
REMARK    6  A    between atoms: O_9  and  C_10
REMARK    7  A    between atoms: C_13  and  S_14
REMARK    8  A    between atoms: S_14  and  N_15
REMARK                            x       y       z     vdW  Elec       q    Type
REMARK                         _______ _______ _______ _____ _____    ______ ____
ROOT
ATOM      1  C   UNL     1       5.116   4.427  17.225  0.00  0.00    +0.000 A 
ATOM      2  C   UNL     1       3.740   4.226  17.472  0.00  0.00    +0.000 A 
ATOM      3  C   UNL     1       3.138   4.583  18.683  0.00  0.00    +0.000 A 
ATOM      4  C   UNL     1       3.918   5.149  19.685  0.00  0.00    +0.000 A 
ATOM      5  C   UNL     1       5.283   5.350  19.474  0.00  0.00    +0.000 A 
ATOM      6  C   UNL     1       5.886   5.002  18.254  0.00  0.00    +0.000 A 
ENDROOT
BRANCH   6   7
ATOM      7  S   UNL     1       7.640   5.316  18.135  0.00  0.00    +0.000 S 
ATOM      8  O   UNL     1       8.295   4.096  17.721  0.00  0.00    +0.000 OA
ATOM      9  O   UNL     1       7.858   6.564  17.442  0.00  0.00    +0.000 OA
BRANCH   7  10
ATOM     10  N   UNL     1       8.061   5.537  19.745  0.00  0.00    +0.000 NA
ATOM     11  H   UNL     1       7.449   5.003  20.358  0.00  0.00    +0.000 HD
ATOM     12  H   UNL     1       8.174   6.524  20.016  0.00  0.00    +0.000 HD
ENDBRANCH   7  10
ENDBRANCH   6   7
BRANCH   3  13
ATOM     13  O   UNL     1       1.794   4.345  18.749  0.00  0.00    +0.000 OA
ATOM     14  C   UNL     1       1.156   3.940  17.542  0.00  0.00    +0.000 C 
ENDBRANCH   3  13
BRANCH   1  15
ATOM     15  C   UNL     1       5.611   4.115  15.827  0.00  0.00    +0.000 C 
BRANCH  15  16
ATOM     16  C   UNL     1       5.825   5.367  15.003  0.00  0.00    +0.000 C 
ATOM     17  O   UNL     1       5.272   6.443  15.215  0.00  0.00    +0.000 OA
BRANCH  16  19
ATOM     18  C   UNL     1       6.497   3.918  13.281  0.00  0.00    +0.000 C 
ATOM     19  O   UNL     1       6.723   5.126  14.008  0.00  0.00    +0.000 OA
ENDBRANCH  16  19
ENDBRANCH  15  16
ENDBRANCH   1  15
TORSDOF 6
ENDMDL
