MODEL 1
REMARK VINA RESULT:      -6.7      0.000      0.000
REMARK  Name = 
REMARK  9 active torsions:
REMARK  status: ('A' for Active; 'I' for Inactive)
REMARK    1  A    between atoms: C_1  and  C_2
REMARK    2  A    between atoms: C_2  and  C_3
REMARK    3  A    between atoms: C_2  and  C_4
REMARK    4  A    between atoms: C_2  and  N_6
REMARK    5  A    between atoms: C_4  and  O_5
REMARK    6  A    between atoms: N_9  and  S_10
REMARK    7  A    between atoms: S_10  and  C_13
REMARK    8  A    between atoms: C_13  and  C_14
REMARK    9  A    between atoms: C_14  and  C_15
REMARK                            x       y       z     vdW  Elec       q    Type
REMARK                         _______ _______ _______ _____ _____    ______ ____
ROOT
ATOM      1  N   UNL     1       3.644   3.389  18.639  0.00  0.00    +0.000 NA
ATOM      2  C   UNL     1       3.771   3.877  17.254  0.00  0.00    +0.000 C 
ATOM      3  C   UNL     1       4.298   5.316  17.098  0.00  0.00    +0.000 C 
ATOM      4  N   UNL     1       5.568   5.555  17.840  0.00  0.00    +0.000 NA
ATOM      5  C   UNL     1       5.479   5.063  19.253  0.00  0.00    +0.000 C 
ATOM      6  C   UNL     1       4.921   3.628  19.343  0.00  0.00    +0.000 C 
ENDROOT
BRANCH   1   8
ATOM      7  C   UNL     1       2.219   2.784  20.606  0.00  0.00    +0.000 C 
ATOM      8  C   UNL     1       2.361   3.670  19.343  0.00  0.00    +0.000 C 
ATOM      9  C   UNL     1       1.200   3.234  18.407  0.00  0.00    +0.000 C 
BRANCH   8  10
ATOM     10  C   UNL     1       2.132   5.154  19.757  0.00  0.00    +0.000 C 
BRANCH  10  11
ATOM     11  O   UNL     1       2.395   5.399  21.137  0.00  0.00    +0.000 OA
ATOM     12  H   UNL     1       2.042   4.644  21.638  0.00  0.00    +0.000 HD
ENDBRANCH  10  11
ENDBRANCH   8  10
ENDBRANCH   1   8
BRANCH   4  13
ATOM     13  S   UNL     1       7.010   5.193  17.019  0.00  0.00    +0.000 S 
ATOM     14  O   UNL     1       7.488   6.418  16.412  0.00  0.00    +0.000 OA
ATOM     15  O   UNL     1       7.848   4.424  17.912  0.00  0.00    +0.000 OA
BRANCH  13  16
ATOM     16  C   UNL     1       6.425   4.128  15.707  0.00  0.00    +0.000 C 
BRANCH  16  17
ATOM     17  C   UNL     1       6.789   4.698  14.344  0.00  0.00    +0.000 C 
BRANCH  17  18
ATOM     18  C   UNL     1       6.213   3.839  13.237  0.00  0.00    +0.000 C 
ATOM     19  F   UNL     1       7.014   3.938  12.142  0.00  0.00    +0.000 F 
ENDBRANCH  17  18
ENDBRANCH  16  17
ENDBRANCH  13  16
ENDBRANCH   4  13
TORSDOF 7
ENDMDL
MODEL 2
REMARK VINA RESULT:      -6.7      1.590      2.095
REMARK  Name = 
REMARK  9 active torsions:
REMARK  status: ('A' for Active; 'I' for Inactive)
REMARK    1  A    between atoms: C_1  and  C_2
REMARK    2  A    between atoms: C_2  and  C_3
REMARK    3  A    between atoms: C_2  and  C_4
REMARK    4  A    between atoms: C_2  and  N_6
REMARK    5  A    between atoms: C_4  and  O_5
REMARK    6  A    between atoms: N_9  and  S_10
REMARK    7  A    between atoms: S_10  and  C_13
REMARK    8  A    between atoms: C_13  and  C_14
REMARK    9  A    between atoms: C_14  and  C_15
REMARK                            x       y       z     vdW  Elec       q    Type
REMARK                         _______ _______ _______ _____ _____    ______ ____
ROOT
ATOM      1  N   UNL     1       3.526   4.178  19.924  0.00  0.00    +0.000 NA
ATOM      2  C   UNL     1       4.531   3.457  19.124  0.00  0.00    +0.000 C 
ATOM      3  C   UNL     1       4.409   3.615  17.597  0.00  0.00    +0.000 C 
ATOM      4  N   UNL     1       4.340   5.039  17.162  0.00  0.00    +0.000 NA
ATOM      5  C   UNL     1       3.332   5.808  17.961  0.00  0.00    +0.000 C 
ATOM      6  C   UNL     1       3.491   5.588  19.478  0.00  0.00    +0.000 C 
ENDROOT
BRANCH   1   8
ATOM      7  C   UNL     1       1.090   4.484  20.417  0.00  0.00    +0.000 C 
ATOM      8  C   UNL     1       2.244   3.472  20.203  0.00  0.00    +0.000 C 
ATOM      9  C   UNL     1       2.395   2.734  21.562  0.00  0.00    +0.000 C 
BRANCH   8  10
ATOM     10  C   UNL     1       1.797   2.439  19.126  0.00  0.00    +0.000 C 
BRANCH  10  11
ATOM     11  O   UNL     1       0.989   3.011  18.100  0.00  0.00    +0.000 OA
ATOM     12  H   UNL     1       1.585   3.283  17.380  0.00  0.00    +0.000 HD
ENDBRANCH  10  11
ENDBRANCH   8  10
ENDBRANCH   1   8
BRANCH   4  13
ATOM     13  S   UNL     1       5.820   5.823  16.884  0.00  0.00    +0.000 S 
ATOM     14  O   UNL     1       5.588   6.865  15.906  0.00  0.00    +0.000 OA
ATOM     15  O   UNL     1       6.410   6.124  18.170  0.00  0.00    +0.000 OA
BRANCH  13  16
ATOM     16  C   UNL     1       6.774   4.534  16.093  0.00  0.00    +0.000 C 
BRANCH  16  17
ATOM     17  C   UNL     1       6.916   4.804  14.602  0.00  0.00    +0.000 C 
BRANCH  17  18
ATOM     18  C   UNL     1       5.898   4.003  13.817  0.00  0.00    +0.000 C 
ATOM     19  F   UNL     1       6.533   3.362  12.799  0.00  0.00    +0.000 F 
ENDBRANCH  17  18
ENDBRANCH  16  17
ENDBRANCH  13  16
ENDBRANCH   4  13
TORSDOF 7
ENDMDL
MODEL 3
REMARK VINA RESULT:      -6.6      3.281      6.133
REMARK  Name = 
REMARK  9 active torsions:
REMARK  status: ('A' for Active; 'I' for Inactive)
REMARK    1  A    between atoms: C_1  and  C_2
REMARK    2  A    between atoms: C_2  and  C_3
REMARK    3  A    between atoms: C_2  and  C_4
REMARK    4  A    between atoms: C_2  and  N_6
REMARK    5  A    between atoms: C_4  and  O_5
REMARK    6  A    between atoms: N_9  and  S_10
REMARK    7  A    between atoms: S_10  and  C_13
REMARK    8  A    between atoms: C_13  and  C_14
REMARK    9  A    between atoms: C_14  and  C_15
REMARK                            x       y       z     vdW  Elec       q    Type
REMARK                         _______ _______ _______ _____ _____    ______ ____
ROOT
ATOM      1  N   UNL     1       5.711   5.980  18.515  0.00  0.00    +0.000 NA
ATOM      2  C   UNL     1       4.679   6.208  17.489  0.00  0.00    +0.000 C 
ATOM      3  C   UNL     1       4.119   4.943  16.812  0.00  0.00    +0.000 C 
ATOM      4  N   UNL     1       3.647   3.920  17.788  0.00  0.00    +0.000 NA
ATOM      5  C   UNL     1       4.669   3.668  18.855  0.00  0.00    +0.000 C 
ATOM      6  C   UNL     1       5.209   4.972  19.473  0.00  0.00    +0.000 C 
ENDROOT
BRANCH   1   8
ATOM      7  C   UNL     1       8.081   5.626  19.240  0.00  0.00    +0.000 C 
ATOM      8  C   UNL     1       7.125   5.902  18.052  0.00  0.00    +0.000 C 
ATOM      9  C   UNL     1       7.529   7.306  17.523  0.00  0.00    +0.000 C 
BRANCH   8  10
ATOM     10  C   UNL     1       7.412   4.853  16.938  0.00  0.00    +0.000 C 
BRANCH  10  11
ATOM     11  O   UNL     1       7.636   5.439  15.657  0.00  0.00    +0.000 OA
ATOM     12  H   UNL     1       8.465   5.067  15.310  0.00  0.00    +0.000 HD
ENDBRANCH  10  11
ENDBRANCH   8  10
ENDBRANCH   1   8
BRANCH   4  13
ATOM     13  S   UNL     1       2.040   4.058  18.320  0.00  0.00    +0.000 S 
ATOM     14  O   UNL     1       1.950   5.247  19.141  0.00  0.00    +0.000 OA
ATOM     15  O   UNL     1       1.177   3.874  17.175  0.00  0.00    +0.000 OA
BRANCH  13  16
ATOM     16  C   UNL     1       1.889   2.639  19.398  0.00  0.00    +0.000 C 
BRANCH  16  17
ATOM     17  C   UNL     1       1.064   2.981  20.629  0.00  0.00    +0.000 C 
BRANCH  17  18
ATOM     18  C   UNL     1       1.915   2.896  21.880  0.00  0.00    +0.000 C 
ATOM     19  F   UNL     1       3.141   2.410  21.546  0.00  0.00    +0.000 F 
ENDBRANCH  17  18
ENDBRANCH  16  17
ENDBRANCH  13  16
ENDBRANCH   4  13
TORSDOF 7
ENDMDL
MODEL 4
REMARK VINA RESULT:      -6.6      3.441      6.006
REMARK  Name = 
REMARK  9 active torsions:
REMARK  status: ('A' for Active; 'I' for Inactive)
REMARK    1  A    between atoms: C_1  and  C_2
REMARK    2  A    between atoms: C_2  and  C_3
REMARK    3  A    between atoms: C_2  and  C_4
REMARK    4  A    between atoms: C_2  and  N_6
REMARK    5  A    between atoms: C_4  and  O_5
REMARK    6  A    between atoms: N_9  and  S_10
REMARK    7  A    between atoms: S_10  and  C_13
REMARK    8  A    between atoms: C_13  and  C_14
REMARK    9  A    between atoms: C_14  and  C_15
REMARK                            x       y       z     vdW  Elec       q    Type
REMARK                         _______ _______ _______ _____ _____    ______ ____
ROOT
ATOM      1  N   UNL     1       5.479   5.963  18.025  0.00  0.00    +0.000 NA
ATOM      2  C   UNL     1       4.686   5.573  16.846  0.00  0.00    +0.000 C 
ATOM      3  C   UNL     1       4.532   4.059  16.615  0.00  0.00    +0.000 C 
ATOM      4  N   UNL     1       4.040   3.332  17.819  0.00  0.00    +0.000 NA
ATOM      5  C   UNL     1       4.819   3.710  19.043  0.00  0.00    +0.000 C 
ATOM      6  C   UNL     1       4.959   5.236  19.203  0.00  0.00    +0.000 C 
ENDROOT
BRANCH   1   8
ATOM      7  C   UNL     1       7.696   5.876  19.183  0.00  0.00    +0.000 C 
ATOM      8  C   UNL     1       6.951   6.093  17.842  0.00  0.00    +0.000 C 
ATOM      9  C   UNL     1       7.252   7.564  17.443  0.00  0.00    +0.000 C 
BRANCH   8  10
ATOM     10  C   UNL     1       7.582   5.152  16.773  0.00  0.00    +0.000 C 
BRANCH  10  11
ATOM     11  O   UNL     1       8.218   4.007  17.337  0.00  0.00    +0.000 OA
ATOM     12  H   UNL     1       7.617   3.252  17.215  0.00  0.00    +0.000 HD
ENDBRANCH  10  11
ENDBRANCH   8  10
ENDBRANCH   1   8
BRANCH   4  13
ATOM     13  S   UNL     1       2.356   3.231  18.014  0.00  0.00    +0.000 S 
ATOM     14  O   UNL     1       1.809   4.553  17.792  0.00  0.00    +0.000 OA
ATOM     15  O   UNL     1       1.890   2.092  17.256  0.00  0.00    +0.000 OA
BRANCH  13  16
ATOM     16  C   UNL     1       2.212   2.868  19.760  0.00  0.00    +0.000 C 
BRANCH  16  17
ATOM     17  C   UNL     1       1.207   3.797  20.424  0.00  0.00    +0.000 C 
BRANCH  17  18
ATOM     18  C   UNL     1       1.920   4.929  21.137  0.00  0.00    +0.000 C 
ATOM     19  F   UNL     1       1.298   6.100  20.834  0.00  0.00    +0.000 F 
ENDBRANCH  17  18
ENDBRANCH  16  17
ENDBRANCH  13  16
ENDBRANCH   4  13
TORSDOF 7
ENDMDL
MODEL 5
REMARK VINA RESULT:      -6.5      2.828      3.579
REMARK  Name = 
REMARK  9 active torsions:
REMARK  status: ('A' for Active; 'I' for Inactive)
REMARK    1  A    between atoms: C_1  and  C_2
REMARK    2  A    between atoms: C_2  and  C_3
REMARK    3  A    between atoms: C_2  and  C_4
REMARK    4  A    between atoms: C_2  and  N_6
REMARK    5  A    between atoms: C_4  and  O_5
REMARK    6  A    between atoms: N_9  and  S_10
REMARK    7  A    between atoms: S_10  and  C_13
REMARK    8  A    between atoms: C_13  and  C_14
REMARK    9  A    between atoms: C_14  and  C_15
REMARK                            x       y       z     vdW  Elec       q    Type
REMARK                         _______ _______ _______ _____ _____    ______ ____
ROOT
ATOM      1  N   UNL     1       2.938   4.509  18.744  0.00  0.00    +0.000 NA
ATOM      2  C   UNL     1       4.039   5.301  19.321  0.00  0.00    +0.000 C 
ATOM      3  C   UNL     1       5.446   4.695  19.172  0.00  0.00    +0.000 C 
ATOM      4  N   UNL     1       5.774   4.319  17.768  0.00  0.00    +0.000 NA
ATOM      5  C   UNL     1       4.671   3.519  17.143  0.00  0.00    +0.000 C 
ATOM      6  C   UNL     1       3.286   4.164  17.349  0.00  0.00    +0.000 C 
ENDROOT
BRANCH   1   8
ATOM      7  C   UNL     1       1.548   2.427  18.769  0.00  0.00    +0.000 C 
ATOM      8  C   UNL     1       2.314   3.475  19.616  0.00  0.00    +0.000 C 
ATOM      9  C   UNL     1       1.227   4.173  20.478  0.00  0.00    +0.000 C 
BRANCH   8  10
ATOM     10  C   UNL     1       3.289   2.719  20.566  0.00  0.00    +0.000 C 
BRANCH  10  11
ATOM     11  O   UNL     1       2.767   2.541  21.881  0.00  0.00    +0.000 OA
ATOM     12  H   UNL     1       1.996   1.953  21.810  0.00  0.00    +0.000 HD
ENDBRANCH  10  11
ENDBRANCH   8  10
ENDBRANCH   1   8
BRANCH   4  13
ATOM     13  S   UNL     1       6.453   5.532  16.792  0.00  0.00    +0.000 S 
ATOM     14  O   UNL     1       7.402   4.899  15.902  0.00  0.00    +0.000 OA
ATOM     15  O   UNL     1       5.372   6.344  16.278  0.00  0.00    +0.000 OA
BRANCH  13  16
ATOM     16  C   UNL     1       7.380   6.486  17.988  0.00  0.00    +0.000 C 
BRANCH  16  17
ATOM     17  C   UNL     1       7.640   7.893  17.472  0.00  0.00    +0.000 C 
BRANCH  17  18
ATOM     18  C   UNL     1       8.447   8.688  18.478  0.00  0.00    +0.000 C 
ATOM     19  F   UNL     1       8.984   9.771  17.855  0.00  0.00    +0.000 F 
ENDBRANCH  17  18
ENDBRANCH  16  17
ENDBRANCH  13  16
ENDBRANCH   4  13
TORSDOF 7
ENDMDL
MODEL 6
REMARK VINA RESULT:      -6.5      1.362      1.982
REMARK  Name = 
REMARK  9 active torsions:
REMARK  status: ('A' for Active; 'I' for Inactive)
REMARK    1  A    between atoms: C_1  and  C_2
REMARK    2  A    between atoms: C_2  and  C_3
REMARK    3  A    between atoms: C_2  and  C_4
REMARK    4  A    between atoms: C_2  and  N_6
REMARK    5  A    between atoms: C_4  and  O_5
REMARK    6  A    between atoms: N_9  and  S_10
REMARK    7  A    between atoms: S_10  and  C_13
REMARK    8  A    between atoms: C_13  and  C_14
REMARK    9  A    between atoms: C_14  and  C_15
REMARK                            x       y       z     vdW  Elec       q    Type
REMARK                         _______ _______ _______ _____ _____    ______ ____
ROOT
ATOM      1  N   UNL     1       2.719   4.519  18.802  0.00  0.00    +0.000 NA
ATOM      2  C   UNL     1       3.780   5.355  19.393  0.00  0.00    +0.000 C 
ATOM      3  C   UNL     1       5.202   4.769  19.335  0.00  0.00    +0.000 C 
ATOM      4  N   UNL     1       5.600   4.337  17.965  0.00  0.00    +0.000 NA
ATOM      5  C   UNL     1       4.540   3.490  17.328  0.00  0.00    +0.000 C 
ATOM      6  C   UNL     1       3.137   4.119  17.442  0.00  0.00    +0.000 C 
ENDROOT
BRANCH   1   8
ATOM      7  C   UNL     1       1.242   2.499  18.864  0.00  0.00    +0.000 C 
ATOM      8  C   UNL     1       2.073   3.513  19.691  0.00  0.00    +0.000 C 
ATOM      9  C   UNL     1       1.040   4.259  20.579  0.00  0.00    +0.000 C 
BRANCH   8  10
ATOM     10  C   UNL     1       3.038   2.716  20.618  0.00  0.00    +0.000 C 
BRANCH  10  11
ATOM     11  O   UNL     1       2.659   2.758  21.992  0.00  0.00    +0.000 OA
ATOM     12  H   UNL     1       2.347   1.869  22.234  0.00  0.00    +0.000 HD
ENDBRANCH  10  11
ENDBRANCH   8  10
ENDBRANCH   1   8
BRANCH   4  13
ATOM     13  S   UNL     1       6.304   5.518  16.968  0.00  0.00    +0.000 S 
ATOM     14  O   UNL     1       5.232   6.315  16.408  0.00  0.00    +0.000 OA
ATOM     15  O   UNL     1       7.386   6.133  17.704  0.00  0.00    +0.000 OA
BRANCH  13  16
ATOM     16  C   UNL     1       6.988   4.522  15.649  0.00  0.00    +0.000 C 
BRANCH  16  17
ATOM     17  C   UNL     1       6.444   4.964  14.299  0.00  0.00    +0.000 C 
BRANCH  17  18
ATOM     18  C   UNL     1       6.190   3.765  13.409  0.00  0.00    +0.000 C 
ATOM     19  F   UNL     1       4.905   3.810  12.967  0.00  0.00    +0.000 F 
ENDBRANCH  17  18
ENDBRANCH  16  17
ENDBRANCH  13  16
ENDBRANCH   4  13
TORSDOF 7
ENDMDL
MODEL 7
REMARK VINA RESULT:      -6.5      3.272      6.133
REMARK  Name = 
REMARK  9 active torsions:
REMARK  status: ('A' for Active; 'I' for Inactive)
REMARK    1  A    between atoms: C_1  and  C_2
REMARK    2  A    between atoms: C_2  and  C_3
REMARK    3  A    between atoms: C_2  and  C_4
REMARK    4  A    between atoms: C_2  and  N_6
REMARK    5  A    between atoms: C_4  and  O_5
REMARK    6  A    between atoms: N_9  and  S_10
REMARK    7  A    between atoms: S_10  and  C_13
REMARK    8  A    between atoms: C_13  and  C_14
REMARK    9  A    between atoms: C_14  and  C_15
REMARK                            x       y       z     vdW  Elec       q    Type
REMARK                         _______ _______ _______ _____ _____    ______ ____
ROOT
ATOM      1  N   UNL     1       5.349   5.875  17.154  0.00  0.00    +0.000 NA
ATOM      2  C   UNL     1       4.672   4.781  16.434  0.00  0.00    +0.000 C 
ATOM      3  C   UNL     1       4.416   3.502  17.252  0.00  0.00    +0.000 C 
ATOM      4  N   UNL     1       3.723   3.765  18.544  0.00  0.00    +0.000 NA
ATOM      5  C   UNL     1       4.378   4.879  19.302  0.00  0.00    +0.000 C 
ATOM      6  C   UNL     1       4.631   6.120  18.422  0.00  0.00    +0.000 C 
ENDROOT
BRANCH   1   8
ATOM      7  C   UNL     1       7.394   7.314  17.263  0.00  0.00    +0.000 C 
ATOM      8  C   UNL     1       6.838   5.872  17.150  0.00  0.00    +0.000 C 
ATOM      9  C   UNL     1       7.309   5.363  15.759  0.00  0.00    +0.000 C 
BRANCH   8  10
ATOM     10  C   UNL     1       7.513   4.999  18.249  0.00  0.00    +0.000 C 
BRANCH  10  11
ATOM     11  O   UNL     1       8.351   3.974  17.718  0.00  0.00    +0.000 OA
ATOM     12  H   UNL     1       8.887   4.376  17.013  0.00  0.00    +0.000 HD
ENDBRANCH  10  11
ENDBRANCH   8  10
ENDBRANCH   1   8
BRANCH   4  13
ATOM     13  S   UNL     1       2.025   3.793  18.506  0.00  0.00    +0.000 S 
ATOM     14  O   UNL     1       1.592   5.002  19.174  0.00  0.00    +0.000 OA
ATOM     15  O   UNL     1       1.607   3.496  17.154  0.00  0.00    +0.000 OA
BRANCH  13  16
ATOM     16  C   UNL     1       1.612   2.410  19.561  0.00  0.00    +0.000 C 
BRANCH  16  17
ATOM     17  C   UNL     1       1.105   2.892  20.912  0.00  0.00    +0.000 C 
BRANCH  17  18
ATOM     18  C   UNL     1       2.251   3.024  21.894  0.00  0.00    +0.000 C 
ATOM     19  F   UNL     1       3.320   2.329  21.419  0.00  0.00    +0.000 F 
ENDBRANCH  17  18
ENDBRANCH  16  17
ENDBRANCH  13  16
ENDBRANCH   4  13
TORSDOF 7
ENDMDL
MODEL 8
REMARK VINA RESULT:      -6.4      1.242      1.794
REMARK  Name = 
REMARK  9 active torsions:
REMARK  status: ('A' for Active; 'I' for Inactive)
REMARK    1  A    between atoms: C_1  and  C_2
REMARK    2  A    between atoms: C_2  and  C_3
REMARK    3  A    between atoms: C_2  and  C_4
REMARK    4  A    between atoms: C_2  and  N_6
REMARK    5  A    between atoms: C_4  and  O_5
REMARK    6  A    between atoms: N_9  and  S_10
REMARK    7  A    between atoms: S_10  and  C_13
REMARK    8  A    between atoms: C_13  and  C_14
REMARK    9  A    between atoms: C_14  and  C_15
REMARK                            x       y       z     vdW  Elec       q    Type
REMARK                         _______ _______ _______ _____ _____    ______ ____
ROOT
ATOM      1  N   UNL     1       2.926   4.556  18.979  0.00  0.00    +0.000 NA
ATOM      2  C   UNL     1       4.110   5.280  19.475  0.00  0.00    +0.000 C 
ATOM      3  C   UNL     1       5.472   4.708  19.044  0.00  0.00    +0.000 C 
ATOM      4  N   UNL     1       5.581   4.507  17.571  0.00  0.00    +0.000 NA
ATOM      5  C   UNL     1       4.388   3.780  17.027  0.00  0.00    +0.000 C 
ATOM      6  C   UNL     1       3.057   4.385  17.516  0.00  0.00    +0.000 C 
ENDROOT
BRANCH   1   8
ATOM      7  C   UNL     1       3.578   2.430  20.129  0.00  0.00    +0.000 C 
ATOM      8  C   UNL     1       2.430   3.419  19.802  0.00  0.00    +0.000 C 
ATOM      9  C   UNL     1       1.429   2.606  18.936  0.00  0.00    +0.000 C 
BRANCH   8  10
ATOM     10  C   UNL     1       1.726   3.809  21.135  0.00  0.00    +0.000 C 
BRANCH  10  11
ATOM     11  O   UNL     1       2.158   3.029  22.249  0.00  0.00    +0.000 OA
ATOM     12  H   UNL     1       3.126   2.954  22.191  0.00  0.00    +0.000 HD
ENDBRANCH  10  11
ENDBRANCH   8  10
ENDBRANCH   1   8
BRANCH   4  13
ATOM     13  S   UNL     1       6.118   5.835  16.659  0.00  0.00    +0.000 S 
ATOM     14  O   UNL     1       5.333   6.986  17.054  0.00  0.00    +0.000 OA
ATOM     15  O   UNL     1       7.563   5.859  16.720  0.00  0.00    +0.000 OA
BRANCH  13  16
ATOM     16  C   UNL     1       5.613   5.372  15.007  0.00  0.00    +0.000 C 
BRANCH  16  17
ATOM     17  C   UNL     1       6.732   4.637  14.285  0.00  0.00    +0.000 C 
BRANCH  17  18
ATOM     18  C   UNL     1       6.165   3.691  13.247  0.00  0.00    +0.000 C 
ATOM     19  F   UNL     1       6.840   3.864  12.078  0.00  0.00    +0.000 F 
ENDBRANCH  17  18
ENDBRANCH  16  17
ENDBRANCH  13  16
ENDBRANCH   4  13
TORSDOF 7
ENDMDL
MODEL 9
REMARK VINA RESULT:      -6.4      0.646      1.257
REMARK  Name = 
REMARK  9 active torsions:
REMARK  status: ('A' for Active; 'I' for Inactive)
REMARK    1  A    between atoms: C_1  and  C_2
REMARK    2  A    between atoms: C_2  and  C_3
REMARK    3  A    between atoms: C_2  and  C_4
REMARK    4  A    between atoms: C_2  and  N_6
REMARK    5  A    between atoms: C_4  and  O_5
REMARK    6  A    between atoms: N_9  and  S_10
REMARK    7  A    between atoms: S_10  and  C_13
REMARK    8  A    between atoms: C_13  and  C_14
REMARK    9  A    between atoms: C_14  and  C_15
REMARK                            x       y       z     vdW  Elec       q    Type
REMARK                         _______ _______ _______ _____ _____    ______ ____
ROOT
ATOM      1  N   UNL     1       3.696   3.340  18.795  0.00  0.00    +0.000 NA
ATOM      2  C   UNL     1       3.822   3.694  17.370  0.00  0.00    +0.000 C 
ATOM      3  C   UNL     1       4.285   5.133  17.076  0.00  0.00    +0.000 C 
ATOM      4  N   UNL     1       5.531   5.504  17.803  0.00  0.00    +0.000 NA
ATOM      5  C   UNL     1       5.444   5.151  19.257  0.00  0.00    +0.000 C 
ATOM      6  C   UNL     1       4.951   3.708  19.484  0.00  0.00    +0.000 C 
ENDROOT
BRANCH   1   8
ATOM      7  C   UNL     1       1.255   3.735  18.407  0.00  0.00    +0.000 C 
ATOM      8  C   UNL     1       2.392   3.630  19.454  0.00  0.00    +0.000 C 
ATOM      9  C   UNL     1       2.487   5.042  20.095  0.00  0.00    +0.000 C 
BRANCH   8  10
ATOM     10  C   UNL     1       1.954   2.617  20.553  0.00  0.00    +0.000 C 
BRANCH  10  11
ATOM     11  O   UNL     1       2.388   2.985  21.862  0.00  0.00    +0.000 OA
ATOM     12  H   UNL     1       1.626   3.381  22.318  0.00  0.00    +0.000 HD
ENDBRANCH  10  11
ENDBRANCH   8  10
ENDBRANCH   1   8
BRANCH   4  13
ATOM     13  S   UNL     1       7.000   5.130  17.037  0.00  0.00    +0.000 S 
ATOM     14  O   UNL     1       7.486   6.339  16.406  0.00  0.00    +0.000 OA
ATOM     15  O   UNL     1       7.818   4.398  17.979  0.00  0.00    +0.000 OA
BRANCH  13  16
ATOM     16  C   UNL     1       6.464   4.017  15.743  0.00  0.00    +0.000 C 
BRANCH  16  17
ATOM     17  C   UNL     1       6.777   4.594  14.371  0.00  0.00    +0.000 C 
BRANCH  17  18
ATOM     18  C   UNL     1       6.006   3.855  13.295  0.00  0.00    +0.000 C 
ATOM     19  F   UNL     1       6.876   3.450  12.331  0.00  0.00    +0.000 F 
ENDBRANCH  17  18
ENDBRANCH  16  17
ENDBRANCH  13  16
ENDBRANCH   4  13
TORSDOF 7
ENDMDL
