MODEL 1
REMARK VINA RESULT:      -6.9      0.000      0.000
REMARK  Name = 
REMARK  0 active torsions:
REMARK  status: ('A' for Active; 'I' for Inactive)
REMARK                            x       y       z     vdW  Elec       q    Type
REMARK                         _______ _______ _______ _____ _____    ______ ____
ROOT
ATOM      1  C   UNL     1      -7.078  13.300  17.855  0.00  0.00    +0.000 A 
ATOM      2  C   UNL     1      -6.090  12.538  17.188  0.00  0.00    +0.000 A 
ATOM      3  C   UNL     1      -5.194  11.717  17.882  0.00  0.00    +0.000 A 
ATOM      4  C   UNL     1      -5.375  11.632  19.259  0.00  0.00    +0.000 A 
ATOM      5  C   UNL     1      -6.247  12.532  19.962  0.00  0.00    +0.000 A 
ATOM      6  C   UNL     1      -7.125  13.318  19.248  0.00  0.00    +0.000 A 
ATOM      7  C   UNL     1      -6.000  12.761  21.403  0.00  0.00    +0.000 A 
ATOM      8  C   UNL     1      -6.732  13.103  22.530  0.00  0.00    +0.000 A 
ATOM      9  N   UNL     1      -5.941  13.037  23.679  0.00  0.00    +0.000 NA
ATOM     10  C   UNL     1      -4.736  12.768  23.236  0.00  0.00    +0.000 A 
ATOM     11  C   UNL     1      -3.494  12.464  23.887  0.00  0.00    +0.000 A 
ATOM     12  C   UNL     1      -2.401  12.263  23.134  0.00  0.00    +0.000 A 
ATOM     13  C   UNL     1      -2.489  12.518  21.679  0.00  0.00    +0.000 A 
ATOM     14  N   UNL     1      -3.603  12.776  21.068  0.00  0.00    +0.000 NA
ATOM     15  N   UNL     1      -4.700  12.788  21.871  0.00  0.00    +0.000 N 
ATOM     16  N   UNL     1      -1.397  12.600  20.854  0.00  0.00    +0.000 N 
ATOM     17  C   UNL     1      -0.586  11.435  20.431  0.00  0.00    +0.000 C 
ATOM     18  C   UNL     1      -1.238  10.963  19.142  0.00  0.00    +0.000 C 
ATOM     19  C   UNL     1      -0.729  10.060  18.044  0.00  0.00    +0.000 C 
ATOM     20  C   UNL     1      -1.889  10.029  16.969  0.00  0.00    +0.000 C 
ATOM     21  C   UNL     1      -3.402  10.035  17.482  0.00  0.00    +0.000 C 
ATOM     22  O   UNL     1      -4.104  11.259  17.161  0.00  0.00    +0.000 OA
ATOM     23  H   UNL     1      -1.808  13.013  20.008  0.00  0.00    +0.000 HD
ENDROOT
TORSDOF 0
ENDMDL
MODEL 2
REMARK VINA RESULT:      -6.8      1.371      4.847
REMARK  Name = 
REMARK  0 active torsions:
REMARK  status: ('A' for Active; 'I' for Inactive)
REMARK                            x       y       z     vdW  Elec       q    Type
REMARK                         _______ _______ _______ _____ _____    ______ ____
ROOT
ATOM      1  C   UNL     1      -1.679   9.817  17.546  0.00  0.00    +0.000 A 
ATOM      2  C   UNL     1      -3.062  10.116  17.515  0.00  0.00    +0.000 A 
ATOM      3  C   UNL     1      -3.596  11.218  18.193  0.00  0.00    +0.000 A 
ATOM      4  C   UNL     1      -2.684  12.049  18.836  0.00  0.00    +0.000 A 
ATOM      5  C   UNL     1      -1.313  11.659  19.026  0.00  0.00    +0.000 A 
ATOM      6  C   UNL     1      -0.816  10.576  18.335  0.00  0.00    +0.000 A 
ATOM      7  C   UNL     1      -0.558  12.281  20.136  0.00  0.00    +0.000 A 
ATOM      8  C   UNL     1       0.759  12.597  20.433  0.00  0.00    +0.000 A 
ATOM      9  N   UNL     1       0.843  13.322  21.624  0.00  0.00    +0.000 NA
ATOM     10  C   UNL     1      -0.385  13.345  22.085  0.00  0.00    +0.000 A 
ATOM     11  C   UNL     1      -1.006  14.008  23.195  0.00  0.00    +0.000 A 
ATOM     12  C   UNL     1      -2.312  13.797  23.425  0.00  0.00    +0.000 A 
ATOM     13  C   UNL     1      -3.015  12.772  22.622  0.00  0.00    +0.000 A 
ATOM     14  N   UNL     1      -2.479  12.174  21.605  0.00  0.00    +0.000 NA
ATOM     15  N   UNL     1      -1.209  12.570  21.320  0.00  0.00    +0.000 N 
ATOM     16  N   UNL     1      -4.260  12.286  22.931  0.00  0.00    +0.000 N 
ATOM     17  C   UNL     1      -5.516  13.048  22.750  0.00  0.00    +0.000 C 
ATOM     18  C   UNL     1      -5.979  12.697  21.346  0.00  0.00    +0.000 C 
ATOM     19  C   UNL     1      -7.321  12.854  20.673  0.00  0.00    +0.000 C 
ATOM     20  C   UNL     1      -7.130  12.237  19.230  0.00  0.00    +0.000 C 
ATOM     21  C   UNL     1      -5.735  12.459  18.485  0.00  0.00    +0.000 C 
ATOM     22  O   UNL     1      -4.974  11.238  18.332  0.00  0.00    +0.000 OA
ATOM     23  H   UNL     1      -4.313  11.457  22.328  0.00  0.00    +0.000 HD
ENDROOT
TORSDOF 0
ENDMDL
MODEL 3
REMARK VINA RESULT:      -6.7      1.622      4.339
REMARK  Name = 
REMARK  0 active torsions:
REMARK  status: ('A' for Active; 'I' for Inactive)
REMARK                            x       y       z     vdW  Elec       q    Type
REMARK                         _______ _______ _______ _____ _____    ______ ____
ROOT
ATOM      1  C   UNL     1      -0.747  11.191  22.596  0.00  0.00    +0.000 A 
ATOM      2  C   UNL     1      -0.688  10.958  21.202  0.00  0.00    +0.000 A 
ATOM      3  C   UNL     1      -1.568  11.582  20.309  0.00  0.00    +0.000 A 
ATOM      4  C   UNL     1      -2.455  12.502  20.859  0.00  0.00    +0.000 A 
ATOM      5  C   UNL     1      -2.646  12.610  22.279  0.00  0.00    +0.000 A 
ATOM      6  C   UNL     1      -1.755  11.993  23.130  0.00  0.00    +0.000 A 
ATOM      7  C   UNL     1      -3.924  13.170  22.771  0.00  0.00    +0.000 A 
ATOM      8  C   UNL     1      -4.383  13.864  23.881  0.00  0.00    +0.000 A 
ATOM      9  N   UNL     1      -5.715  14.249  23.714  0.00  0.00    +0.000 NA
ATOM     10  C   UNL     1      -6.077  13.705  22.577  0.00  0.00    +0.000 A 
ATOM     11  C   UNL     1      -7.265  13.795  21.777  0.00  0.00    +0.000 A 
ATOM     12  C   UNL     1      -7.342  13.070  20.650  0.00  0.00    +0.000 A 
ATOM     13  C   UNL     1      -6.269  12.091  20.365  0.00  0.00    +0.000 A 
ATOM     14  N   UNL     1      -5.181  12.005  21.062  0.00  0.00    +0.000 NA
ATOM     15  N   UNL     1      -5.092  12.896  22.086  0.00  0.00    +0.000 N 
ATOM     16  N   UNL     1      -6.363  11.122  19.398  0.00  0.00    +0.000 N 
ATOM     17  C   UNL     1      -6.277  11.388  17.945  0.00  0.00    +0.000 C 
ATOM     18  C   UNL     1      -4.800  11.251  17.617  0.00  0.00    +0.000 C 
ATOM     19  C   UNL     1      -4.087  11.065  16.298  0.00  0.00    +0.000 C 
ATOM     20  C   UNL     1      -2.556  10.940  16.674  0.00  0.00    +0.000 C 
ATOM     21  C   UNL     1      -1.990  11.836  17.869  0.00  0.00    +0.000 C 
ATOM     22  O   UNL     1      -1.606  11.059  19.028  0.00  0.00    +0.000 OA
ATOM     23  H   UNL     1      -5.577  10.508  19.647  0.00  0.00    +0.000 HD
ENDROOT
TORSDOF 0
ENDMDL
MODEL 4
REMARK VINA RESULT:      -6.7      2.096      4.567
REMARK  Name = 
REMARK  0 active torsions:
REMARK  status: ('A' for Active; 'I' for Inactive)
REMARK                            x       y       z     vdW  Elec       q    Type
REMARK                         _______ _______ _______ _____ _____    ______ ____
ROOT
ATOM      1  C   UNL     1      -3.475  12.390  23.699  0.00  0.00    +0.000 A 
ATOM      2  C   UNL     1      -2.238  11.919  23.200  0.00  0.00    +0.000 A 
ATOM      3  C   UNL     1      -1.884  12.052  21.852  0.00  0.00    +0.000 A 
ATOM      4  C   UNL     1      -2.783  12.741  21.043  0.00  0.00    +0.000 A 
ATOM      5  C   UNL     1      -4.110  13.059  21.492  0.00  0.00    +0.000 A 
ATOM      6  C   UNL     1      -4.422  12.928  22.828  0.00  0.00    +0.000 A 
ATOM      7  C   UNL     1      -5.158  13.280  20.472  0.00  0.00    +0.000 A 
ATOM      8  C   UNL     1      -6.337  14.000  20.348  0.00  0.00    +0.000 A 
ATOM      9  N   UNL     1      -6.842  13.912  19.048  0.00  0.00    +0.000 NA
ATOM     10  C   UNL     1      -6.042  13.071  18.438  0.00  0.00    +0.000 A 
ATOM     11  C   UNL     1      -5.931  12.631  17.077  0.00  0.00    +0.000 A 
ATOM     12  C   UNL     1      -5.002  11.711  16.769  0.00  0.00    +0.000 A 
ATOM     13  C   UNL     1      -4.242  11.078  17.870  0.00  0.00    +0.000 A 
ATOM     14  N   UNL     1      -4.313  11.472  19.102  0.00  0.00    +0.000 NA
ATOM     15  N   UNL     1      -5.143  12.529  19.312  0.00  0.00    +0.000 N 
ATOM     16  N   UNL     1      -3.465   9.959  17.711  0.00  0.00    +0.000 N 
ATOM     17  C   UNL     1      -2.154   9.949  17.024  0.00  0.00    +0.000 C 
ATOM     18  C   UNL     1      -1.142  10.216  18.126  0.00  0.00    +0.000 C 
ATOM     19  C   UNL     1       0.352  10.006  18.176  0.00  0.00    +0.000 C 
ATOM     20  C   UNL     1       0.778  10.438  19.636  0.00  0.00    +0.000 C 
ATOM     21  C   UNL     1       0.035  11.681  20.310  0.00  0.00    +0.000 C 
ATOM     22  O   UNL     1      -0.798  11.303  21.431  0.00  0.00    +0.000 OA
ATOM     23  H   UNL     1      -3.305   9.680  18.687  0.00  0.00    +0.000 HD
ENDROOT
TORSDOF 0
ENDMDL
MODEL 5
REMARK VINA RESULT:      -6.6      1.239      1.820
REMARK  Name = 
REMARK  0 active torsions:
REMARK  status: ('A' for Active; 'I' for Inactive)
REMARK                            x       y       z     vdW  Elec       q    Type
REMARK                         _______ _______ _______ _____ _____    ______ ____
ROOT
ATOM      1  C   UNL     1      -7.142  14.533  19.835  0.00  0.00    +0.000 A 
ATOM      2  C   UNL     1      -6.762  13.856  18.652  0.00  0.00    +0.000 A 
ATOM      3  C   UNL     1      -5.892  12.760  18.673  0.00  0.00    +0.000 A 
ATOM      4  C   UNL     1      -5.480  12.323  19.928  0.00  0.00    +0.000 A 
ATOM      5  C   UNL     1      -5.711  13.105  21.111  0.00  0.00    +0.000 A 
ATOM      6  C   UNL     1      -6.582  14.171  21.059  0.00  0.00    +0.000 A 
ATOM      7  C   UNL     1      -4.821  12.890  22.274  0.00  0.00    +0.000 A 
ATOM      8  C   UNL     1      -4.888  13.004  23.655  0.00  0.00    +0.000 A 
ATOM      9  N   UNL     1      -3.725  12.515  24.254  0.00  0.00    +0.000 NA
ATOM     10  C   UNL     1      -2.936  12.215  23.249  0.00  0.00    +0.000 A 
ATOM     11  C   UNL     1      -1.656  11.574  23.162  0.00  0.00    +0.000 A 
ATOM     12  C   UNL     1      -1.080  11.441  21.956  0.00  0.00    +0.000 A 
ATOM     13  C   UNL     1      -1.717  12.098  20.793  0.00  0.00    +0.000 A 
ATOM     14  N   UNL     1      -2.880  12.666  20.845  0.00  0.00    +0.000 NA
ATOM     15  N   UNL     1      -3.485  12.606  22.062  0.00  0.00    +0.000 N 
ATOM     16  N   UNL     1      -1.101  12.254  19.578  0.00  0.00    +0.000 N 
ATOM     17  C   UNL     1      -0.871  11.152  18.616  0.00  0.00    +0.000 C 
ATOM     18  C   UNL     1      -2.107  11.149  17.733  0.00  0.00    +0.000 C 
ATOM     19  C   UNL     1      -2.362  10.524  16.383  0.00  0.00    +0.000 C 
ATOM     20  C   UNL     1      -3.838  10.952  16.006  0.00  0.00    +0.000 C 
ATOM     21  C   UNL     1      -4.930  11.024  17.169  0.00  0.00    +0.000 C 
ATOM     22  O   UNL     1      -5.370  12.374  17.450  0.00  0.00    +0.000 OA
ATOM     23  H   UNL     1      -1.717  12.937  19.121  0.00  0.00    +0.000 HD
ENDROOT
TORSDOF 0
ENDMDL
MODEL 6
REMARK VINA RESULT:      -6.6      2.238      5.495
REMARK  Name = 
REMARK  0 active torsions:
REMARK  status: ('A' for Active; 'I' for Inactive)
REMARK                            x       y       z     vdW  Elec       q    Type
REMARK                         _______ _______ _______ _____ _____    ______ ____
ROOT
ATOM      1  C   UNL     1      -2.894  14.860  22.963  0.00  0.00    +0.000 A 
ATOM      2  C   UNL     1      -4.199  14.587  22.487  0.00  0.00    +0.000 A 
ATOM      3  C   UNL     1      -4.493  13.431  21.756  0.00  0.00    +0.000 A 
ATOM      4  C   UNL     1      -3.451  12.525  21.586  0.00  0.00    +0.000 A 
ATOM      5  C   UNL     1      -2.092  12.872  21.903  0.00  0.00    +0.000 A 
ATOM      6  C   UNL     1      -1.837  14.012  22.635  0.00  0.00    +0.000 A 
ATOM      7  C   UNL     1      -1.006  12.129  21.226  0.00  0.00    +0.000 A 
ATOM      8  C   UNL     1       0.306  11.764  21.485  0.00  0.00    +0.000 A 
ATOM      9  N   UNL     1       0.797  10.922  20.485  0.00  0.00    +0.000 NA
ATOM     10  C   UNL     1      -0.163  10.872  19.593  0.00  0.00    +0.000 A 
ATOM     11  C   UNL     1      -0.350  10.110  18.392  0.00  0.00    +0.000 A 
ATOM     12  C   UNL     1      -1.458  10.317  17.661  0.00  0.00    +0.000 A 
ATOM     13  C   UNL     1      -2.357  11.429  18.041  0.00  0.00    +0.000 A 
ATOM     14  N   UNL     1      -2.217  12.117  19.130  0.00  0.00    +0.000 NA
ATOM     15  N   UNL     1      -1.173  11.733  19.912  0.00  0.00    +0.000 N 
ATOM     16  N   UNL     1      -3.364  11.900  17.238  0.00  0.00    +0.000 N 
ATOM     17  C   UNL     1      -4.634  11.180  16.989  0.00  0.00    +0.000 C 
ATOM     18  C   UNL     1      -5.575  11.679  18.073  0.00  0.00    +0.000 C 
ATOM     19  C   UNL     1      -7.079  11.611  18.191  0.00  0.00    +0.000 C 
ATOM     20  C   UNL     1      -7.418  12.368  19.538  0.00  0.00    +0.000 C 
ATOM     21  C   UNL     1      -6.423  12.200  20.776  0.00  0.00    +0.000 C 
ATOM     22  O   UNL     1      -5.714  13.419  21.102  0.00  0.00    +0.000 OA
ATOM     23  H   UNL     1      -3.598  12.787  17.700  0.00  0.00    +0.000 HD
ENDROOT
TORSDOF 0
ENDMDL
MODEL 7
REMARK VINA RESULT:      -6.5      1.511      4.700
REMARK  Name = 
REMARK  0 active torsions:
REMARK  status: ('A' for Active; 'I' for Inactive)
REMARK                            x       y       z     vdW  Elec       q    Type
REMARK                         _______ _______ _______ _____ _____    ______ ____
ROOT
ATOM      1  C   UNL     1      -0.542  10.223  18.606  0.00  0.00    +0.000 A 
ATOM      2  C   UNL     1      -1.858  10.206  18.089  0.00  0.00    +0.000 A 
ATOM      3  C   UNL     1      -2.798  11.188  18.424  0.00  0.00    +0.000 A 
ATOM      4  C   UNL     1      -2.346  12.225  19.234  0.00  0.00    +0.000 A 
ATOM      5  C   UNL     1      -1.077  12.157  19.907  0.00  0.00    +0.000 A 
ATOM      6  C   UNL     1      -0.170  11.185  19.545  0.00  0.00    +0.000 A 
ATOM      7  C   UNL     1      -0.889  12.974  21.126  0.00  0.00    +0.000 A 
ATOM      8  C   UNL     1       0.155  13.586  21.803  0.00  0.00    +0.000 A 
ATOM      9  N   UNL     1      -0.322  14.356  22.866  0.00  0.00    +0.000 NA
ATOM     10  C   UNL     1      -1.612  14.124  22.891  0.00  0.00    +0.000 A 
ATOM     11  C   UNL     1      -2.696  14.675  23.653  0.00  0.00    +0.000 A 
ATOM     12  C   UNL     1      -3.933  14.189  23.462  0.00  0.00    +0.000 A 
ATOM     13  C   UNL     1      -4.100  13.003  22.593  0.00  0.00    +0.000 A 
ATOM     14  N   UNL     1      -3.140  12.500  21.883  0.00  0.00    +0.000 NA
ATOM     15  N   UNL     1      -1.953  13.157  21.990  0.00  0.00    +0.000 N 
ATOM     16  N   UNL     1      -5.255  12.266  22.527  0.00  0.00    +0.000 N 
ATOM     17  C   UNL     1      -6.494  12.722  21.858  0.00  0.00    +0.000 C 
ATOM     18  C   UNL     1      -6.364  12.223  20.429  0.00  0.00    +0.000 C 
ATOM     19  C   UNL     1      -7.394  12.052  19.339  0.00  0.00    +0.000 C 
ATOM     20  C   UNL     1      -6.599  11.437  18.117  0.00  0.00    +0.000 C 
ATOM     21  C   UNL     1      -5.104  11.934  17.854  0.00  0.00    +0.000 C 
ATOM     22  O   UNL     1      -4.115  10.907  18.098  0.00  0.00    +0.000 OA
ATOM     23  H   UNL     1      -4.933  11.422  22.038  0.00  0.00    +0.000 HD
ENDROOT
TORSDOF 0
ENDMDL
MODEL 8
REMARK VINA RESULT:      -6.5      1.977      4.970
REMARK  Name = 
REMARK  0 active torsions:
REMARK  status: ('A' for Active; 'I' for Inactive)
REMARK                            x       y       z     vdW  Elec       q    Type
REMARK                         _______ _______ _______ _____ _____    ______ ____
ROOT
ATOM      1  C   UNL     1      -4.268  14.896  23.495  0.00  0.00    +0.000 A 
ATOM      2  C   UNL     1      -5.372  14.685  22.635  0.00  0.00    +0.000 A 
ATOM      3  C   UNL     1      -5.454  13.566  21.798  0.00  0.00    +0.000 A 
ATOM      4  C   UNL     1      -4.429  12.632  21.913  0.00  0.00    +0.000 A 
ATOM      5  C   UNL     1      -3.224  12.922  22.641  0.00  0.00    +0.000 A 
ATOM      6  C   UNL     1      -3.180  14.025  23.465  0.00  0.00    +0.000 A 
ATOM      7  C   UNL     1      -1.999  12.168  22.293  0.00  0.00    +0.000 A 
ATOM      8  C   UNL     1      -0.836  11.750  22.920  0.00  0.00    +0.000 A 
ATOM      9  N   UNL     1      -0.082  10.928  22.080  0.00  0.00    +0.000 NA
ATOM     10  C   UNL     1      -0.726  10.941  20.937  0.00  0.00    +0.000 A 
ATOM     11  C   UNL     1      -0.556  10.230  19.704  0.00  0.00    +0.000 A 
ATOM     12  C   UNL     1      -1.384  10.500  18.682  0.00  0.00    +0.000 A 
ATOM     13  C   UNL     1      -2.333  11.627  18.820  0.00  0.00    +0.000 A 
ATOM     14  N   UNL     1      -2.516  12.271  19.930  0.00  0.00    +0.000 NA
ATOM     15  N   UNL     1      -1.768  11.824  20.974  0.00  0.00    +0.000 N 
ATOM     16  N   UNL     1      -3.038  12.160  17.771  0.00  0.00    +0.000 N 
ATOM     17  C   UNL     1      -4.187  11.492  17.119  0.00  0.00    +0.000 C 
ATOM     18  C   UNL     1      -5.402  11.983  17.887  0.00  0.00    +0.000 C 
ATOM     19  C   UNL     1      -6.872  11.962  17.541  0.00  0.00    +0.000 C 
ATOM     20  C   UNL     1      -7.588  12.681  18.754  0.00  0.00    +0.000 C 
ATOM     21  C   UNL     1      -7.021  12.436  20.227  0.00  0.00    +0.000 C 
ATOM     22  O   UNL     1      -6.419  13.618  20.806  0.00  0.00    +0.000 OA
ATOM     23  H   UNL     1      -3.382  13.037  18.180  0.00  0.00    +0.000 HD
ENDROOT
TORSDOF 0
ENDMDL
MODEL 9
REMARK VINA RESULT:      -6.4      4.489      5.727
REMARK  Name = 
REMARK  0 active torsions:
REMARK  status: ('A' for Active; 'I' for Inactive)
REMARK                            x       y       z     vdW  Elec       q    Type
REMARK                         _______ _______ _______ _____ _____    ______ ____
ROOT
ATOM      1  C   UNL     1       2.442  14.316  18.456  0.00  0.00    +0.000 A 
ATOM      2  C   UNL     1       2.782  13.040  17.948  0.00  0.00    +0.000 A 
ATOM      3  C   UNL     1       2.023  11.901  18.242  0.00  0.00    +0.000 A 
ATOM      4  C   UNL     1       0.872  12.103  18.997  0.00  0.00    +0.000 A 
ATOM      5  C   UNL     1       0.618  13.350  19.665  0.00  0.00    +0.000 A 
ATOM      6  C   UNL     1       1.376  14.456  19.344  0.00  0.00    +0.000 A 
ATOM      7  C   UNL     1      -0.278  13.343  20.842  0.00  0.00    +0.000 A 
ATOM      8  C   UNL     1      -1.142  14.218  21.481  0.00  0.00    +0.000 A 
ATOM      9  N   UNL     1      -1.836  13.574  22.508  0.00  0.00    +0.000 NA
ATOM     10  C   UNL     1      -1.320  12.369  22.553  0.00  0.00    +0.000 A 
ATOM     11  C   UNL     1      -1.648  11.186  23.294  0.00  0.00    +0.000 A 
ATOM     12  C   UNL     1      -0.885  10.092  23.135  0.00  0.00    +0.000 A 
ATOM     13  C   UNL     1       0.349  10.202  22.326  0.00  0.00    +0.000 A 
ATOM     14  N   UNL     1       0.655  11.254  21.634  0.00  0.00    +0.000 NA
ATOM     15  N   UNL     1      -0.257  12.261  21.702  0.00  0.00    +0.000 N 
ATOM     16  N   UNL     1       1.330   9.244  22.303  0.00  0.00    +0.000 N 
ATOM     17  C   UNL     1       1.200   7.937  21.620  0.00  0.00    +0.000 C 
ATOM     18  C   UNL     1       1.725   8.184  20.216  0.00  0.00    +0.000 C 
ATOM     19  C   UNL     1       2.178   7.224  19.142  0.00  0.00    +0.000 C 
ATOM     20  C   UNL     1       2.656   8.144  17.947  0.00  0.00    +0.000 C 
ATOM     21  C   UNL     1       1.847   9.488  17.651  0.00  0.00    +0.000 C 
ATOM     22  O   UNL     1       2.610  10.684  17.938  0.00  0.00    +0.000 OA
ATOM     23  H   UNL     1       2.102   9.751  21.853  0.00  0.00    +0.000 HD
ENDROOT
TORSDOF 0
ENDMDL
