MODEL 1
REMARK VINA RESULT:      -7.7      0.000      0.000
REMARK  Name = 
REMARK  5 active torsions:
REMARK  status: ('A' for Active; 'I' for Inactive)
REMARK    1  A    between atoms: C_2  and  C_21
REMARK    2  A    between atoms: N_3  and  C_4
REMARK    3  A    between atoms: N_13  and  C_14
REMARK    4  A    between atoms: C_14  and  C_15
REMARK    5  A    between atoms: C_15  and  N_16
REMARK                            x       y       z     vdW  Elec       q    Type
REMARK                         _______ _______ _______ _____ _____    ______ ____
ROOT
ATOM      1  C   UNL     1       2.456   8.014  18.235  0.00  0.00    +0.000 A 
ATOM      2  C   UNL     1       2.352   7.101  19.284  0.00  0.00    +0.000 A 
ATOM      3  C   UNL     1       3.158   5.986  19.382  0.00  0.00    +0.000 A 
ATOM      4  C   UNL     1       4.200   5.760  18.481  0.00  0.00    +0.000 A 
ATOM      5  C   UNL     1       4.337   6.711  17.435  0.00  0.00    +0.000 A 
ATOM      6  C   UNL     1       3.499   7.827  17.327  0.00  0.00    +0.000 A 
ATOM      7  O   UNL     1       5.307   6.611  16.450  0.00  0.00    +0.000 OA
ATOM      8  C   UNL     1       5.940   5.331  16.441  0.00  0.00    +0.000 C 
ATOM      9  C   UNL     1       6.327   4.904  17.851  0.00  0.00    +0.000 C 
ATOM     10  N   UNL     1       5.123   4.733  18.656  0.00  0.00    +0.000 N 
ENDROOT
BRANCH   1  13
ATOM     11  N   UNL     1       1.111   9.282  20.410  0.00  0.00    +0.000 N 
ATOM     12  C   UNL     1       0.988   9.682  19.090  0.00  0.00    +0.000 C 
ATOM     13  N   UNL     1       1.565   9.102  18.085  0.00  0.00    +0.000 NA
ATOM     14  H   UNL     1       1.406   8.346  20.569  0.00  0.00    +0.000 HD
ATOM     15  H   UNL     1       0.304   9.521  20.980  0.00  0.00    +0.000 HD
BRANCH  12  16
ATOM     16  C   UNL     1       0.131  10.822  18.759  0.00  0.00    +0.000 A 
ATOM     17  C   UNL     1      -1.168  10.814  18.291  0.00  0.00    +0.000 A 
ATOM     18  C   UNL     1      -1.674  12.126  18.056  0.00  0.00    +0.000 A 
ATOM     19  C   UNL     1      -0.741  13.096  18.347  0.00  0.00    +0.000 A 
ATOM     20  S   UNL     1       0.722  12.429  18.918  0.00  0.00    +0.000 S 
ENDBRANCH  12  16
ENDBRANCH   1  13
BRANCH  10  21
ATOM     21  C   UNL     1       4.793   3.491  19.362  0.00  0.00    +0.000 C 
BRANCH  21  22
ATOM     22  C   UNL     1       3.675   2.671  18.676  0.00  0.00    +0.000 C 
BRANCH  22  23
ATOM     23  N   UNL     1       2.758   1.947  19.583  0.00  0.00    +0.000 NA
ATOM     24  C   UNL     1       1.351   2.004  19.157  0.00  0.00    +0.000 C 
ATOM     25  C   UNL     1       0.839   3.321  19.698  0.00  0.00    +0.000 C 
ATOM     26  C   UNL     1       1.480   3.373  21.069  0.00  0.00    +0.000 C 
ATOM     27  C   UNL     1       2.780   2.585  20.921  0.00  0.00    +0.000 C 
ENDBRANCH  22  23
ENDBRANCH  21  22
ENDBRANCH  10  21
TORSDOF 5
ENDMDL
MODEL 2
REMARK VINA RESULT:      -7.6      2.516      4.462
REMARK  Name = 
REMARK  5 active torsions:
REMARK  status: ('A' for Active; 'I' for Inactive)
REMARK    1  A    between atoms: C_2  and  C_21
REMARK    2  A    between atoms: N_3  and  C_4
REMARK    3  A    between atoms: N_13  and  C_14
REMARK    4  A    between atoms: C_14  and  C_15
REMARK    5  A    between atoms: C_15  and  N_16
REMARK                            x       y       z     vdW  Elec       q    Type
REMARK                         _______ _______ _______ _____ _____    ______ ____
ROOT
ATOM      1  C   UNL     1       1.511   7.561  20.124  0.00  0.00    +0.000 A 
ATOM      2  C   UNL     1       2.440   7.532  19.084  0.00  0.00    +0.000 A 
ATOM      3  C   UNL     1       3.187   6.411  18.786  0.00  0.00    +0.000 A 
ATOM      4  C   UNL     1       2.981   5.201  19.451  0.00  0.00    +0.000 A 
ATOM      5  C   UNL     1       2.005   5.216  20.483  0.00  0.00    +0.000 A 
ATOM      6  C   UNL     1       1.269   6.363  20.797  0.00  0.00    +0.000 A 
ATOM      7  O   UNL     1       1.705   4.100  21.249  0.00  0.00    +0.000 OA
ATOM      8  C   UNL     1       2.665   3.055  21.084  0.00  0.00    +0.000 C 
ATOM      9  C   UNL     1       2.977   2.829  19.610  0.00  0.00    +0.000 C 
ATOM     10  N   UNL     1       3.607   4.022  19.056  0.00  0.00    +0.000 N 
ENDROOT
BRANCH   1  13
ATOM     11  N   UNL     1       1.929   8.962  22.576  0.00  0.00    +0.000 N 
ATOM     12  C   UNL     1       1.045   9.375  21.594  0.00  0.00    +0.000 C 
ATOM     13  N   UNL     1       0.818   8.739  20.489  0.00  0.00    +0.000 NA
ATOM     14  H   UNL     1       2.178   7.999  22.579  0.00  0.00    +0.000 HD
ATOM     15  H   UNL     1       1.677   9.284  23.507  0.00  0.00    +0.000 HD
BRANCH  12  16
ATOM     16  C   UNL     1       0.269  10.600  21.792  0.00  0.00    +0.000 A 
ATOM     17  C   UNL     1       0.366  11.799  21.114  0.00  0.00    +0.000 A 
ATOM     18  C   UNL     1      -0.543  12.782  21.605  0.00  0.00    +0.000 A 
ATOM     19  C   UNL     1      -1.303  12.302  22.649  0.00  0.00    +0.000 A 
ATOM     20  S   UNL     1      -0.936  10.678  23.017  0.00  0.00    +0.000 S 
ENDBRANCH  12  16
ENDBRANCH   1  13
BRANCH  10  21
ATOM     21  C   UNL     1       4.911   4.010  18.386  0.00  0.00    +0.000 C 
BRANCH  21  22
ATOM     22  C   UNL     1       6.046   4.629  19.235  0.00  0.00    +0.000 C 
BRANCH  22  23
ATOM     23  N   UNL     1       7.330   4.847  18.533  0.00  0.00    +0.000 NA
ATOM     24  C   UNL     1       7.818   6.231  18.627  0.00  0.00    +0.000 C 
ATOM     25  C   UNL     1       7.094   6.969  17.523  0.00  0.00    +0.000 C 
ATOM     26  C   UNL     1       7.129   5.963  16.391  0.00  0.00    +0.000 C 
ATOM     27  C   UNL     1       7.148   4.601  17.082  0.00  0.00    +0.000 C 
ENDBRANCH  22  23
ENDBRANCH  21  22
ENDBRANCH  10  21
TORSDOF 5
ENDMDL
MODEL 3
REMARK VINA RESULT:      -7.6      2.553      4.260
REMARK  Name = 
REMARK  5 active torsions:
REMARK  status: ('A' for Active; 'I' for Inactive)
REMARK    1  A    between atoms: C_2  and  C_21
REMARK    2  A    between atoms: N_3  and  C_4
REMARK    3  A    between atoms: N_13  and  C_14
REMARK    4  A    between atoms: C_14  and  C_15
REMARK    5  A    between atoms: C_15  and  N_16
REMARK                            x       y       z     vdW  Elec       q    Type
REMARK                         _______ _______ _______ _____ _____    ______ ____
ROOT
ATOM      1  C   UNL     1       1.521   8.397  19.514  0.00  0.00    +0.000 A 
ATOM      2  C   UNL     1       2.071   8.607  18.249  0.00  0.00    +0.000 A 
ATOM      3  C   UNL     1       2.902   7.691  17.638  0.00  0.00    +0.000 A 
ATOM      4  C   UNL     1       3.162   6.447  18.214  0.00  0.00    +0.000 A 
ATOM      5  C   UNL     1       2.569   6.212  19.484  0.00  0.00    +0.000 A 
ATOM      6  C   UNL     1       1.748   7.156  20.109  0.00  0.00    +0.000 A 
ATOM      7  O   UNL     1       2.754   5.035  20.193  0.00  0.00    +0.000 OA
ATOM      8  C   UNL     1       3.809   4.237  19.654  0.00  0.00    +0.000 C 
ATOM      9  C   UNL     1       3.691   4.130  18.139  0.00  0.00    +0.000 C 
ATOM     10  N   UNL     1       3.863   5.449  17.542  0.00  0.00    +0.000 N 
ENDROOT
BRANCH   1  13
ATOM     11  N   UNL     1       1.732   8.974  22.301  0.00  0.00    +0.000 N 
ATOM     12  C   UNL     1       0.882   9.644  21.438  0.00  0.00    +0.000 C 
ATOM     13  N   UNL     1       0.749   9.378  20.177  0.00  0.00    +0.000 NA
ATOM     14  H   UNL     1       2.030   8.067  22.022  0.00  0.00    +0.000 HD
ATOM     15  H   UNL     1       1.413   8.981  23.267  0.00  0.00    +0.000 HD
BRANCH  12  16
ATOM     16  C   UNL     1       0.034  10.720  21.953  0.00  0.00    +0.000 A 
ATOM     17  C   UNL     1      -0.955  10.651  22.914  0.00  0.00    +0.000 A 
ATOM     18  C   UNL     1      -1.590  11.908  23.139  0.00  0.00    +0.000 A 
ATOM     19  C   UNL     1      -1.066  12.898  22.337  0.00  0.00    +0.000 A 
ATOM     20  S   UNL     1       0.190  12.320  21.339  0.00  0.00    +0.000 S 
ENDBRANCH  12  16
ENDBRANCH   1  13
BRANCH  10  21
ATOM     21  C   UNL     1       4.871   5.749  16.520  0.00  0.00    +0.000 C 
BRANCH  21  22
ATOM     22  C   UNL     1       5.961   4.659  16.391  0.00  0.00    +0.000 C 
BRANCH  22  23
ATOM     23  N   UNL     1       7.351   5.105  16.633  0.00  0.00    +0.000 NA
ATOM     24  C   UNL     1       7.960   4.496  17.824  0.00  0.00    +0.000 C 
ATOM     25  C   UNL     1       7.489   5.354  18.978  0.00  0.00    +0.000 C 
ATOM     26  C   UNL     1       7.587   6.750  18.397  0.00  0.00    +0.000 C 
ATOM     27  C   UNL     1       7.362   6.564  16.898  0.00  0.00    +0.000 C 
ENDBRANCH  22  23
ENDBRANCH  21  22
ENDBRANCH  10  21
TORSDOF 5
ENDMDL
MODEL 4
REMARK VINA RESULT:      -7.6      2.471      4.371
REMARK  Name = 
REMARK  5 active torsions:
REMARK  status: ('A' for Active; 'I' for Inactive)
REMARK    1  A    between atoms: C_2  and  C_21
REMARK    2  A    between atoms: N_3  and  C_4
REMARK    3  A    between atoms: N_13  and  C_14
REMARK    4  A    between atoms: C_14  and  C_15
REMARK    5  A    between atoms: C_15  and  N_16
REMARK                            x       y       z     vdW  Elec       q    Type
REMARK                         _______ _______ _______ _____ _____    ______ ____
ROOT
ATOM      1  C   UNL     1       1.447   8.136  20.355  0.00  0.00    +0.000 A 
ATOM      2  C   UNL     1       2.062   8.175  19.104  0.00  0.00    +0.000 A 
ATOM      3  C   UNL     1       2.583   7.051  18.497  0.00  0.00    +0.000 A 
ATOM      4  C   UNL     1       2.434   5.783  19.061  0.00  0.00    +0.000 A 
ATOM      5  C   UNL     1       1.769   5.734  20.315  0.00  0.00    +0.000 A 
ATOM      6  C   UNL     1       1.265   6.881  20.938  0.00  0.00    +0.000 A 
ATOM      7  O   UNL     1       1.565   4.554  21.012  0.00  0.00    +0.000 OA
ATOM      8  C   UNL     1       2.333   3.472  20.483  0.00  0.00    +0.000 C 
ATOM      9  C   UNL     1       2.222   3.417  18.964  0.00  0.00    +0.000 C 
ATOM     10  N   UNL     1       2.807   4.623  18.389  0.00  0.00    +0.000 N 
ENDROOT
BRANCH   1  13
ATOM     11  N   UNL     1      -0.397  10.001  19.227  0.00  0.00    +0.000 N 
ATOM     12  C   UNL     1       0.140  10.121  20.498  0.00  0.00    +0.000 C 
ATOM     13  N   UNL     1       1.000   9.303  21.017  0.00  0.00    +0.000 NA
ATOM     14  H   UNL     1       0.110   9.446  18.577  0.00  0.00    +0.000 HD
ATOM     15  H   UNL     1      -0.674  10.891  18.821  0.00  0.00    +0.000 HD
BRANCH  12  16
ATOM     16  C   UNL     1      -0.245  11.256  21.339  0.00  0.00    +0.000 A 
ATOM     17  C   UNL     1      -0.960  11.248  22.520  0.00  0.00    +0.000 A 
ATOM     18  C   UNL     1      -1.165  12.558  23.044  0.00  0.00    +0.000 A 
ATOM     19  C   UNL     1      -0.603  13.527  22.243  0.00  0.00    +0.000 A 
ATOM     20  S   UNL     1       0.180  12.859  20.883  0.00  0.00    +0.000 S 
ENDBRANCH  12  16
ENDBRANCH   1  13
BRANCH  10  21
ATOM     21  C   UNL     1       3.881   4.603  17.391  0.00  0.00    +0.000 C 
BRANCH  21  22
ATOM     22  C   UNL     1       5.283   4.359  17.999  0.00  0.00    +0.000 C 
BRANCH  22  23
ATOM     23  N   UNL     1       6.429   4.772  17.160  0.00  0.00    +0.000 NA
ATOM     24  C   UNL     1       7.722   4.684  17.856  0.00  0.00    +0.000 C 
ATOM     25  C   UNL     1       7.830   5.978  18.632  0.00  0.00    +0.000 C 
ATOM     26  C   UNL     1       7.284   6.988  17.644  0.00  0.00    +0.000 C 
ATOM     27  C   UNL     1       6.286   6.202  16.796  0.00  0.00    +0.000 C 
ENDBRANCH  22  23
ENDBRANCH  21  22
ENDBRANCH  10  21
TORSDOF 5
ENDMDL
MODEL 5
REMARK VINA RESULT:      -7.5      1.875      4.015
REMARK  Name = 
REMARK  5 active torsions:
REMARK  status: ('A' for Active; 'I' for Inactive)
REMARK    1  A    between atoms: C_2  and  C_21
REMARK    2  A    between atoms: N_3  and  C_4
REMARK    3  A    between atoms: N_13  and  C_14
REMARK    4  A    between atoms: C_14  and  C_15
REMARK    5  A    between atoms: C_15  and  N_16
REMARK                            x       y       z     vdW  Elec       q    Type
REMARK                         _______ _______ _______ _____ _____    ______ ____
ROOT
ATOM      1  C   UNL     1       1.908   8.726  19.080  0.00  0.00    +0.000 A 
ATOM      2  C   UNL     1       2.509   8.225  17.925  0.00  0.00    +0.000 A 
ATOM      3  C   UNL     1       2.903   6.908  17.804  0.00  0.00    +0.000 A 
ATOM      4  C   UNL     1       2.630   5.971  18.801  0.00  0.00    +0.000 A 
ATOM      5  C   UNL     1       1.979   6.469  19.962  0.00  0.00    +0.000 A 
ATOM      6  C   UNL     1       1.605   7.811  20.090  0.00  0.00    +0.000 A 
ATOM      7  O   UNL     1       1.663   5.668  21.048  0.00  0.00    +0.000 OA
ATOM      8  C   UNL     1       2.308   4.395  20.989  0.00  0.00    +0.000 C 
ATOM      9  C   UNL     1       2.173   3.780  19.602  0.00  0.00    +0.000 C 
ATOM     10  N   UNL     1       2.872   4.612  18.629  0.00  0.00    +0.000 N 
ENDROOT
BRANCH   1  13
ATOM     11  N   UNL     1      -0.262  10.025  17.758  0.00  0.00    +0.000 N 
ATOM     12  C   UNL     1       0.586  10.659  18.651  0.00  0.00    +0.000 C 
ATOM     13  N   UNL     1       1.594  10.095  19.238  0.00  0.00    +0.000 NA
ATOM     14  H   UNL     1       0.083   9.202  17.319  0.00  0.00    +0.000 HD
ATOM     15  H   UNL     1      -0.683  10.659  17.083  0.00  0.00    +0.000 HD
BRANCH  12  16
ATOM     16  C   UNL     1       0.379  12.074  18.960  0.00  0.00    +0.000 A 
ATOM     17  C   UNL     1      -0.586  12.930  18.469  0.00  0.00    +0.000 A 
ATOM     18  C   UNL     1      -0.457  14.254  18.984  0.00  0.00    +0.000 A 
ATOM     19  C   UNL     1       0.608  14.368  19.849  0.00  0.00    +0.000 A 
ATOM     20  S   UNL     1       1.430  12.887  20.053  0.00  0.00    +0.000 S 
ENDBRANCH  12  16
ENDBRANCH   1  13
BRANCH  10  21
ATOM     21  C   UNL     1       3.926   4.107  17.743  0.00  0.00    +0.000 C 
BRANCH  21  22
ATOM     22  C   UNL     1       5.349   4.248  18.334  0.00  0.00    +0.000 C 
BRANCH  22  23
ATOM     23  N   UNL     1       6.414   4.601  17.371  0.00  0.00    +0.000 NA
ATOM     24  C   UNL     1       7.734   4.769  17.997  0.00  0.00    +0.000 C 
ATOM     25  C   UNL     1       7.737   6.191  18.513  0.00  0.00    +0.000 C 
ATOM     26  C   UNL     1       7.053   6.939  17.387  0.00  0.00    +0.000 C 
ATOM     27  C   UNL     1       6.111   5.916  16.756  0.00  0.00    +0.000 C 
ENDBRANCH  22  23
ENDBRANCH  21  22
ENDBRANCH  10  21
TORSDOF 5
ENDMDL
MODEL 6
REMARK VINA RESULT:      -7.5      2.549      4.505
REMARK  Name = 
REMARK  5 active torsions:
REMARK  status: ('A' for Active; 'I' for Inactive)
REMARK    1  A    between atoms: C_2  and  C_21
REMARK    2  A    between atoms: N_3  and  C_4
REMARK    3  A    between atoms: N_13  and  C_14
REMARK    4  A    between atoms: C_14  and  C_15
REMARK    5  A    between atoms: C_15  and  N_16
REMARK                            x       y       z     vdW  Elec       q    Type
REMARK                         _______ _______ _______ _____ _____    ______ ____
ROOT
ATOM      1  C   UNL     1       1.482   7.253  20.437  0.00  0.00    +0.000 A 
ATOM      2  C   UNL     1       2.477   7.287  19.460  0.00  0.00    +0.000 A 
ATOM      3  C   UNL     1       3.277   6.199  19.176  0.00  0.00    +0.000 A 
ATOM      4  C   UNL     1       3.067   4.962  19.787  0.00  0.00    +0.000 A 
ATOM      5  C   UNL     1       2.026   4.912  20.753  0.00  0.00    +0.000 A 
ATOM      6  C   UNL     1       1.235   6.026  21.054  0.00  0.00    +0.000 A 
ATOM      7  O   UNL     1       1.712   3.763  21.462  0.00  0.00    +0.000 OA
ATOM      8  C   UNL     1       2.713   2.753  21.327  0.00  0.00    +0.000 C 
ATOM      9  C   UNL     1       3.127   2.586  19.871  0.00  0.00    +0.000 C 
ATOM     10  N   UNL     1       3.754   3.815  19.398  0.00  0.00    +0.000 N 
ENDROOT
BRANCH   1  13
ATOM     11  N   UNL     1       2.085   8.927  22.670  0.00  0.00    +0.000 N 
ATOM     12  C   UNL     1       1.039   9.160  21.793  0.00  0.00    +0.000 C 
ATOM     13  N   UNL     1       0.730   8.397  20.792  0.00  0.00    +0.000 NA
ATOM     14  H   UNL     1       2.427   7.994  22.722  0.00  0.00    +0.000 HD
ATOM     15  H   UNL     1       1.930   9.319  23.595  0.00  0.00    +0.000 HD
BRANCH  12  16
ATOM     16  C   UNL     1       0.178  10.326  21.992  0.00  0.00    +0.000 A 
ATOM     17  C   UNL     1      -0.787  10.528  22.958  0.00  0.00    +0.000 A 
ATOM     18  C   UNL     1      -1.445  11.786  22.820  0.00  0.00    +0.000 A 
ATOM     19  C   UNL     1      -0.963  12.504  21.748  0.00  0.00    +0.000 A 
ATOM     20  S   UNL     1       0.283  11.676  20.930  0.00  0.00    +0.000 S 
ENDBRANCH  12  16
ENDBRANCH   1  13
BRANCH  10  21
ATOM     21  C   UNL     1       5.099   3.864  18.815  0.00  0.00    +0.000 C 
BRANCH  21  22
ATOM     22  C   UNL     1       5.098   4.026  17.277  0.00  0.00    +0.000 C 
BRANCH  22  23
ATOM     23  N   UNL     1       5.897   5.153  16.747  0.00  0.00    +0.000 NA
ATOM     24  C   UNL     1       5.271   5.821  15.597  0.00  0.00    +0.000 C 
ATOM     25  C   UNL     1       5.670   4.983  14.402  0.00  0.00    +0.000 C 
ATOM     26  C   UNL     1       7.115   4.654  14.712  0.00  0.00    +0.000 C 
ATOM     27  C   UNL     1       7.193   4.643  16.237  0.00  0.00    +0.000 C 
ENDBRANCH  22  23
ENDBRANCH  21  22
ENDBRANCH  10  21
TORSDOF 5
ENDMDL
MODEL 7
REMARK VINA RESULT:      -7.5      2.427      4.335
REMARK  Name = 
REMARK  5 active torsions:
REMARK  status: ('A' for Active; 'I' for Inactive)
REMARK    1  A    between atoms: C_2  and  C_21
REMARK    2  A    between atoms: N_3  and  C_4
REMARK    3  A    between atoms: N_13  and  C_14
REMARK    4  A    between atoms: C_14  and  C_15
REMARK    5  A    between atoms: C_15  and  N_16
REMARK                            x       y       z     vdW  Elec       q    Type
REMARK                         _______ _______ _______ _____ _____    ______ ____
ROOT
ATOM      1  C   UNL     1       2.125   7.146  19.792  0.00  0.00    +0.000 A 
ATOM      2  C   UNL     1       2.491   7.495  18.492  0.00  0.00    +0.000 A 
ATOM      3  C   UNL     1       3.216   6.654  17.672  0.00  0.00    +0.000 A 
ATOM      4  C   UNL     1       3.541   5.356  18.066  0.00  0.00    +0.000 A 
ATOM      5  C   UNL     1       3.132   4.981  19.375  0.00  0.00    +0.000 A 
ATOM      6  C   UNL     1       2.420   5.847  20.210  0.00  0.00    +0.000 A 
ATOM      7  O   UNL     1       3.402   3.735  19.918  0.00  0.00    +0.000 OA
ATOM      8  C   UNL     1       4.360   3.004  19.150  0.00  0.00    +0.000 C 
ATOM      9  C   UNL     1       4.026   3.063  17.664  0.00  0.00    +0.000 C 
ATOM     10  N   UNL     1       4.127   4.441  17.197  0.00  0.00    +0.000 N 
ENDROOT
BRANCH   1  13
ATOM     11  N   UNL     1       0.924   9.592  18.943  0.00  0.00    +0.000 N 
ATOM     12  C   UNL     1       0.903   9.136  20.251  0.00  0.00    +0.000 C 
ATOM     13  N   UNL     1       1.467   8.045  20.662  0.00  0.00    +0.000 NA
ATOM     14  H   UNL     1       1.643   9.235  18.356  0.00  0.00    +0.000 HD
ATOM     15  H   UNL     1       0.848  10.603  18.867  0.00  0.00    +0.000 HD
BRANCH  12  16
ATOM     16  C   UNL     1       0.228   9.929  21.279  0.00  0.00    +0.000 A 
ATOM     17  C   UNL     1      -0.361   9.497  22.450  0.00  0.00    +0.000 A 
ATOM     18  C   UNL     1      -0.946  10.562  23.196  0.00  0.00    +0.000 A 
ATOM     19  C   UNL     1      -0.790  11.777  22.565  0.00  0.00    +0.000 A 
ATOM     20  S   UNL     1       0.072  11.633  21.100  0.00  0.00    +0.000 S 
ENDBRANCH  12  16
ENDBRANCH   1  13
BRANCH  10  21
ATOM     21  C   UNL     1       4.983   4.854  16.080  0.00  0.00    +0.000 C 
BRANCH  21  22
ATOM     22  C   UNL     1       5.754   6.169  16.348  0.00  0.00    +0.000 C 
BRANCH  22  23
ATOM     23  N   UNL     1       7.209   6.027  16.577  0.00  0.00    +0.000 NA
ATOM     24  C   UNL     1       7.556   4.881  17.430  0.00  0.00    +0.000 C 
ATOM     25  C   UNL     1       7.388   5.389  18.844  0.00  0.00    +0.000 C 
ATOM     26  C   UNL     1       7.964   6.787  18.751  0.00  0.00    +0.000 C 
ATOM     27  C   UNL     1       7.712   7.216  17.307  0.00  0.00    +0.000 C 
ENDBRANCH  22  23
ENDBRANCH  21  22
ENDBRANCH  10  21
TORSDOF 5
ENDMDL
MODEL 8
REMARK VINA RESULT:      -7.5      1.109      1.189
REMARK  Name = 
REMARK  5 active torsions:
REMARK  status: ('A' for Active; 'I' for Inactive)
REMARK    1  A    between atoms: C_2  and  C_21
REMARK    2  A    between atoms: N_3  and  C_4
REMARK    3  A    between atoms: N_13  and  C_14
REMARK    4  A    between atoms: C_14  and  C_15
REMARK    5  A    between atoms: C_15  and  N_16
REMARK                            x       y       z     vdW  Elec       q    Type
REMARK                         _______ _______ _______ _____ _____    ______ ____
ROOT
ATOM      1  C   UNL     1       2.014   8.194  18.881  0.00  0.00    +0.000 A 
ATOM      2  C   UNL     1       2.152   7.184  19.832  0.00  0.00    +0.000 A 
ATOM      3  C   UNL     1       3.015   6.120  19.667  0.00  0.00    +0.000 A 
ATOM      4  C   UNL     1       3.879   6.047  18.574  0.00  0.00    +0.000 A 
ATOM      5  C   UNL     1       3.772   7.097  17.624  0.00  0.00    +0.000 A 
ATOM      6  C   UNL     1       2.876   8.160  17.784  0.00  0.00    +0.000 A 
ATOM      7  O   UNL     1       4.544   7.152  16.474  0.00  0.00    +0.000 OA
ATOM      8  C   UNL     1       5.225   5.922  16.219  0.00  0.00    +0.000 C 
ATOM      9  C   UNL     1       5.889   5.394  17.484  0.00  0.00    +0.000 C 
ATOM     10  N   UNL     1       4.867   5.071  18.473  0.00  0.00    +0.000 N 
ENDROOT
BRANCH   1  13
ATOM     11  N   UNL     1       1.204   9.316  21.377  0.00  0.00    +0.000 N 
ATOM     12  C   UNL     1       0.728   9.746  20.149  0.00  0.00    +0.000 C 
ATOM     13  N   UNL     1       1.060   9.230  19.008  0.00  0.00    +0.000 NA
ATOM     14  H   UNL     1       1.577   8.395  21.417  0.00  0.00    +0.000 HD
ATOM     15  H   UNL     1       0.557   9.490  22.143  0.00  0.00    +0.000 HD
BRANCH  12  16
ATOM     16  C   UNL     1      -0.242  10.840  20.095  0.00  0.00    +0.000 A 
ATOM     17  C   UNL     1      -0.569  11.749  21.081  0.00  0.00    +0.000 A 
ATOM     18  C   UNL     1      -1.585  12.662  20.669  0.00  0.00    +0.000 A 
ATOM     19  C   UNL     1      -2.004  12.417  19.380  0.00  0.00    +0.000 A 
ATOM     20  S   UNL     1      -1.167  11.112  18.670  0.00  0.00    +0.000 S 
ENDBRANCH  12  16
ENDBRANCH   1  13
BRANCH  10  21
ATOM     21  C   UNL     1       4.734   3.750  19.096  0.00  0.00    +0.000 C 
BRANCH  21  22
ATOM     22  C   UNL     1       3.623   2.879  18.463  0.00  0.00    +0.000 C 
BRANCH  22  23
ATOM     23  N   UNL     1       2.869   2.017  19.399  0.00  0.00    +0.000 NA
ATOM     24  C   UNL     1       1.426   1.972  19.117  0.00  0.00    +0.000 C 
ATOM     25  C   UNL     1       0.862   3.198  19.800  0.00  0.00    +0.000 C 
ATOM     26  C   UNL     1       1.634   3.220  21.103  0.00  0.00    +0.000 C 
ATOM     27  C   UNL     1       2.975   2.567  20.772  0.00  0.00    +0.000 C 
ENDBRANCH  22  23
ENDBRANCH  21  22
ENDBRANCH  10  21
TORSDOF 5
ENDMDL
MODEL 9
REMARK VINA RESULT:      -7.4      2.489      4.444
REMARK  Name = 
REMARK  5 active torsions:
REMARK  status: ('A' for Active; 'I' for Inactive)
REMARK    1  A    between atoms: C_2  and  C_21
REMARK    2  A    between atoms: N_3  and  C_4
REMARK    3  A    between atoms: N_13  and  C_14
REMARK    4  A    between atoms: C_14  and  C_15
REMARK    5  A    between atoms: C_15  and  N_16
REMARK                            x       y       z     vdW  Elec       q    Type
REMARK                         _______ _______ _______ _____ _____    ______ ____
ROOT
ATOM      1  C   UNL     1       1.582   7.409  20.357  0.00  0.00    +0.000 A 
ATOM      2  C   UNL     1       2.630   7.437  19.437  0.00  0.00    +0.000 A 
ATOM      3  C   UNL     1       3.422   6.336  19.180  0.00  0.00    +0.000 A 
ATOM      4  C   UNL     1       3.154   5.095  19.758  0.00  0.00    +0.000 A 
ATOM      5  C   UNL     1       2.059   5.053  20.663  0.00  0.00    +0.000 A 
ATOM      6  C   UNL     1       1.276   6.178  20.939  0.00  0.00    +0.000 A 
ATOM      7  O   UNL     1       1.683   3.900  21.334  0.00  0.00    +0.000 OA
ATOM      8  C   UNL     1       2.669   2.871  21.238  0.00  0.00    +0.000 C 
ATOM      9  C   UNL     1       3.160   2.718  19.804  0.00  0.00    +0.000 C 
ATOM     10  N   UNL     1       3.837   3.940  19.388  0.00  0.00    +0.000 N 
ENDROOT
BRANCH   1  13
ATOM     11  N   UNL     1       2.042   8.989  22.689  0.00  0.00    +0.000 N 
ATOM     12  C   UNL     1       1.080   9.283  21.738  0.00  0.00    +0.000 C 
ATOM     13  N   UNL     1       0.835   8.563  20.689  0.00  0.00    +0.000 NA
ATOM     14  H   UNL     1       2.353   8.045  22.737  0.00  0.00    +0.000 HD
ATOM     15  H   UNL     1       1.822   9.355  23.612  0.00  0.00    +0.000 HD
BRANCH  12  16
ATOM     16  C   UNL     1       0.238  10.468  21.906  0.00  0.00    +0.000 A 
ATOM     17  C   UNL     1      -0.662  10.747  22.915  0.00  0.00    +0.000 A 
ATOM     18  C   UNL     1      -1.323  11.998  22.729  0.00  0.00    +0.000 A 
ATOM     19  C   UNL     1      -0.909  12.631  21.579  0.00  0.00    +0.000 A 
ATOM     20  S   UNL     1       0.279  11.736  20.744  0.00  0.00    +0.000 S 
ENDBRANCH  12  16
ENDBRANCH   1  13
BRANCH  10  21
ATOM     21  C   UNL     1       5.213   3.970  18.881  0.00  0.00    +0.000 C 
BRANCH  21  22
ATOM     22  C   UNL     1       5.315   4.400  17.399  0.00  0.00    +0.000 C 
BRANCH  22  23
ATOM     23  N   UNL     1       6.673   4.736  16.917  0.00  0.00    +0.000 NA
ATOM     24  C   UNL     1       7.691   4.704  17.977  0.00  0.00    +0.000 C 
ATOM     25  C   UNL     1       7.597   6.060  18.642  0.00  0.00    +0.000 C 
ATOM     26  C   UNL     1       7.404   6.983  17.457  0.00  0.00    +0.000 C 
ATOM     27  C   UNL     1       6.687   6.130  16.412  0.00  0.00    +0.000 C 
ENDBRANCH  22  23
ENDBRANCH  21  22
ENDBRANCH  10  21
TORSDOF 5
ENDMDL
