MODEL 1
REMARK VINA RESULT:      -8.1      0.000      0.000
REMARK  Name = 
REMARK  9 active torsions:
REMARK  status: ('A' for Active; 'I' for Inactive)
REMARK    1  A    between atoms: C_1  and  C_2
REMARK    2  A    between atoms: C_4  and  N_5
REMARK    3  A    between atoms: N_5  and  S_6
REMARK    4  A    between atoms: S_6  and  C_9
REMARK    5  A    between atoms: C_16  and  O_17
REMARK    6  A    between atoms: O_17  and  C_18
REMARK    7  A    between atoms: C_18  and  C_19
REMARK    8  A    between atoms: C_19  and  C_20
REMARK    9  A    between atoms: C_20  and  N_21
REMARK                            x       y       z     vdW  Elec       q    Type
REMARK                         _______ _______ _______ _____ _____    ______ ____
ROOT
ATOM      1  C   UNL     1       1.698   9.038  17.836  0.00  0.00    +0.000 C 
ATOM      2  C   UNL     1       2.608   7.863  18.027  0.00  0.00    +0.000 A 
ATOM      3  C   UNL     1       3.623   7.591  17.106  0.00  0.00    +0.000 A 
ATOM      4  C   UNL     1       4.466   6.495  17.294  0.00  0.00    +0.000 A 
ATOM      5  C   UNL     1       4.311   5.663  18.406  0.00  0.00    +0.000 A 
ATOM      6  C   UNL     1       3.290   5.917  19.325  0.00  0.00    +0.000 A 
ATOM      7  C   UNL     1       2.449   7.020  19.136  0.00  0.00    +0.000 A 
ENDROOT
BRANCH   4   8
ATOM      8  N   UNL     1       5.483   6.260  16.329  0.00  0.00    +0.000 N 
ATOM      9  H   UNL     1       6.070   7.036  16.033  0.00  0.00    +0.000 HD
BRANCH   8  10
ATOM     10  S   UNL     1       6.249   4.766  16.277  0.00  0.00    +0.000 S 
ATOM     11  O   UNL     1       7.524   4.951  16.943  0.00  0.00    +0.000 OA
ATOM     12  O   UNL     1       5.333   3.729  16.698  0.00  0.00    +0.000 OA
BRANCH  10  13
ATOM     13  C   UNL     1       6.581   4.557  14.541  0.00  0.00    +0.000 A 
ATOM     14  C   UNL     1       5.829   3.648  13.789  0.00  0.00    +0.000 A 
ATOM     15  C   UNL     1       6.101   3.492  12.431  0.00  0.00    +0.000 A 
ATOM     16  C   UNL     1       7.113   4.239  11.828  0.00  0.00    +0.000 A 
ATOM     17  C   UNL     1       7.847   5.163  12.576  0.00  0.00    +0.000 A 
ATOM     18  C   UNL     1       7.579   5.329  13.934  0.00  0.00    +0.000 A 
ENDBRANCH  10  13
ENDBRANCH   8  10
ENDBRANCH   4   8
BRANCH   6  19
ATOM     19  O   UNL     1       3.225   5.060  20.396  0.00  0.00    +0.000 OA
BRANCH  19  20
ATOM     20  C   UNL     1       1.935   4.917  20.998  0.00  0.00    +0.000 C 
BRANCH  20  21
ATOM     21  C   UNL     1       1.203   3.726  20.377  0.00  0.00    +0.000 C 
BRANCH  21  22
ATOM     22  C   UNL     1       1.990   2.437  20.611  0.00  0.00    +0.000 C 
BRANCH  22  23
ATOM     23  N   UNL     1       2.384   1.859  19.327  0.00  0.00    +0.000 NA
ATOM     24  C   UNL     1       3.624   1.895  19.007  0.00  0.00    +0.000 C 
ATOM     25  N   UNL     1       4.680   2.364  19.709  0.00  0.00    +0.000 N 
ATOM     26  N   UNL     1       4.024   1.425  17.805  0.00  0.00    +0.000 N 
ATOM     27  H   UNL     1       4.453   2.996  20.466  0.00  0.00    +0.000 HD
ATOM     28  H   UNL     1       5.459   2.691  19.156  0.00  0.00    +0.000 HD
ATOM     29  H   UNL     1       3.323   0.814  17.397  0.00  0.00    +0.000 HD
ATOM     30  H   UNL     1       4.953   1.032  17.765  0.00  0.00    +0.000 HD
ENDBRANCH  22  23
ENDBRANCH  21  22
ENDBRANCH  20  21
ENDBRANCH  19  20
ENDBRANCH   6  19
TORSDOF 8
ENDMDL
MODEL 2
REMARK VINA RESULT:      -7.3      3.707      7.878
REMARK  Name = 
REMARK  9 active torsions:
REMARK  status: ('A' for Active; 'I' for Inactive)
REMARK    1  A    between atoms: C_1  and  C_2
REMARK    2  A    between atoms: C_4  and  N_5
REMARK    3  A    between atoms: N_5  and  S_6
REMARK    4  A    between atoms: S_6  and  C_9
REMARK    5  A    between atoms: C_16  and  O_17
REMARK    6  A    between atoms: O_17  and  C_18
REMARK    7  A    between atoms: C_18  and  C_19
REMARK    8  A    between atoms: C_19  and  C_20
REMARK    9  A    between atoms: C_20  and  N_21
REMARK                            x       y       z     vdW  Elec       q    Type
REMARK                         _______ _______ _______ _____ _____    ______ ____
ROOT
ATOM      1  C   UNL     1       5.946   3.708  12.927  0.00  0.00    +0.000 C 
ATOM      2  C   UNL     1       6.037   4.175  14.347  0.00  0.00    +0.000 A 
ATOM      3  C   UNL     1       5.265   3.576  15.345  0.00  0.00    +0.000 A 
ATOM      4  C   UNL     1       5.357   4.018  16.666  0.00  0.00    +0.000 A 
ATOM      5  C   UNL     1       6.228   5.058  17.006  0.00  0.00    +0.000 A 
ATOM      6  C   UNL     1       6.993   5.673  16.014  0.00  0.00    +0.000 A 
ATOM      7  C   UNL     1       6.901   5.224  14.692  0.00  0.00    +0.000 A 
ENDROOT
BRANCH   4   8
ATOM      8  N   UNL     1       4.550   3.376  17.644  0.00  0.00    +0.000 N 
ATOM      9  H   UNL     1       4.954   3.165  18.554  0.00  0.00    +0.000 HD
BRANCH   8  10
ATOM     10  S   UNL     1       2.898   3.676  17.683  0.00  0.00    +0.000 S 
ATOM     11  O   UNL     1       2.751   5.113  17.554  0.00  0.00    +0.000 OA
ATOM     12  O   UNL     1       2.214   2.773  16.784  0.00  0.00    +0.000 OA
BRANCH  10  13
ATOM     13  C   UNL     1       2.462   3.245  19.355  0.00  0.00    +0.000 A 
ATOM     14  C   UNL     1       1.165   3.480  19.823  0.00  0.00    +0.000 A 
ATOM     15  C   UNL     1       0.838   3.140  21.135  0.00  0.00    +0.000 A 
ATOM     16  C   UNL     1       1.797   2.569  21.971  0.00  0.00    +0.000 A 
ATOM     17  C   UNL     1       3.086   2.315  21.494  0.00  0.00    +0.000 A 
ATOM     18  C   UNL     1       3.420   2.647  20.182  0.00  0.00    +0.000 A 
ENDBRANCH  10  13
ENDBRANCH   8  10
ENDBRANCH   4   8
BRANCH   6  19
ATOM     19  O   UNL     1       7.834   6.671  16.443  0.00  0.00    +0.000 OA
BRANCH  19  20
ATOM     20  C   UNL     1       7.266   7.604  17.368  0.00  0.00    +0.000 C 
BRANCH  20  21
ATOM     21  C   UNL     1       8.326   8.036  18.383  0.00  0.00    +0.000 C 
BRANCH  21  22
ATOM     22  C   UNL     1       8.547   9.547  18.312  0.00  0.00    +0.000 C 
BRANCH  22  23
ATOM     23  N   UNL     1       9.228  10.005  19.522  0.00  0.00    +0.000 NA
ATOM     24  C   UNL     1       9.550  11.243  19.598  0.00  0.00    +0.000 C 
ATOM     25  N   UNL     1       9.319  12.247  18.723  0.00  0.00    +0.000 N 
ATOM     26  N   UNL     1      10.232  11.697  20.672  0.00  0.00    +0.000 N 
ATOM     27  H   UNL     1       9.095  11.959  17.779  0.00  0.00    +0.000 HD
ATOM     28  H   UNL     1       9.986  13.004  18.745  0.00  0.00    +0.000 HD
ATOM     29  H   UNL     1      10.158  11.053  21.454  0.00  0.00    +0.000 HD
ATOM     30  H   UNL     1      10.060  12.655  20.940  0.00  0.00    +0.000 HD
ENDBRANCH  22  23
ENDBRANCH  21  22
ENDBRANCH  20  21
ENDBRANCH  19  20
ENDBRANCH   6  19
TORSDOF 8
ENDMDL
MODEL 3
REMARK VINA RESULT:      -7.2      2.498      5.981
REMARK  Name = 
REMARK  9 active torsions:
REMARK  status: ('A' for Active; 'I' for Inactive)
REMARK    1  A    between atoms: C_1  and  C_2
REMARK    2  A    between atoms: C_4  and  N_5
REMARK    3  A    between atoms: N_5  and  S_6
REMARK    4  A    between atoms: S_6  and  C_9
REMARK    5  A    between atoms: C_16  and  O_17
REMARK    6  A    between atoms: O_17  and  C_18
REMARK    7  A    between atoms: C_18  and  C_19
REMARK    8  A    between atoms: C_19  and  C_20
REMARK    9  A    between atoms: C_20  and  N_21
REMARK                            x       y       z     vdW  Elec       q    Type
REMARK                         _______ _______ _______ _____ _____    ______ ____
ROOT
ATOM      1  C   UNL     1       1.874   8.516  17.501  0.00  0.00    +0.000 C 
ATOM      2  C   UNL     1       2.766   7.495  18.138  0.00  0.00    +0.000 A 
ATOM      3  C   UNL     1       2.379   6.841  19.310  0.00  0.00    +0.000 A 
ATOM      4  C   UNL     1       3.217   5.892  19.895  0.00  0.00    +0.000 A 
ATOM      5  C   UNL     1       4.449   5.578  19.313  0.00  0.00    +0.000 A 
ATOM      6  C   UNL     1       4.852   6.236  18.149  0.00  0.00    +0.000 A 
ATOM      7  C   UNL     1       4.007   7.185  17.563  0.00  0.00    +0.000 A 
ENDROOT
BRANCH   4   8
ATOM      8  N   UNL     1       2.777   5.255  21.087  0.00  0.00    +0.000 N 
ATOM      9  H   UNL     1       2.636   5.817  21.923  0.00  0.00    +0.000 HD
BRANCH   8  10
ATOM     10  S   UNL     1       1.771   3.913  20.988  0.00  0.00    +0.000 S 
ATOM     11  O   UNL     1       1.960   3.183  22.227  0.00  0.00    +0.000 OA
ATOM     12  O   UNL     1       0.451   4.320  20.558  0.00  0.00    +0.000 OA
BRANCH  10  13
ATOM     13  C   UNL     1       2.520   2.958  19.687  0.00  0.00    +0.000 A 
ATOM     14  C   UNL     1       1.974   2.978  18.399  0.00  0.00    +0.000 A 
ATOM     15  C   UNL     1       2.569   2.223  17.390  0.00  0.00    +0.000 A 
ATOM     16  C   UNL     1       3.702   1.457  17.664  0.00  0.00    +0.000 A 
ATOM     17  C   UNL     1       4.259   1.456  18.945  0.00  0.00    +0.000 A 
ATOM     18  C   UNL     1       3.673   2.212  19.960  0.00  0.00    +0.000 A 
ENDBRANCH  10  13
ENDBRANCH   8  10
ENDBRANCH   4   8
BRANCH   6  19
ATOM     19  O   UNL     1       6.067   5.851  17.638  0.00  0.00    +0.000 OA
BRANCH  19  20
ATOM     20  C   UNL     1       6.127   4.518  17.120  0.00  0.00    +0.000 C 
BRANCH  20  21
ATOM     21  C   UNL     1       5.250   4.408  15.871  0.00  0.00    +0.000 C 
BRANCH  21  22
ATOM     22  C   UNL     1       6.102   4.065  14.650  0.00  0.00    +0.000 C 
BRANCH  22  23
ATOM     23  N   UNL     1       7.192   5.030  14.521  0.00  0.00    +0.000 NA
ATOM     24  C   UNL     1       7.739   5.169  13.370  0.00  0.00    +0.000 C 
ATOM     25  N   UNL     1       7.433   4.573  12.195  0.00  0.00    +0.000 N 
ATOM     26  N   UNL     1       8.788   6.006  13.218  0.00  0.00    +0.000 N 
ATOM     27  H   UNL     1       6.883   3.727  12.267  0.00  0.00    +0.000 HD
ATOM     28  H   UNL     1       8.200   4.477  11.545  0.00  0.00    +0.000 HD
ATOM     29  H   UNL     1       8.844   6.669  13.986  0.00  0.00    +0.000 HD
ATOM     30  H   UNL     1       8.881   6.449  12.316  0.00  0.00    +0.000 HD
ENDBRANCH  22  23
ENDBRANCH  21  22
ENDBRANCH  20  21
ENDBRANCH  19  20
ENDBRANCH   6  19
TORSDOF 8
ENDMDL
MODEL 4
REMARK VINA RESULT:      -7.1      2.070      3.032
REMARK  Name = 
REMARK  9 active torsions:
REMARK  status: ('A' for Active; 'I' for Inactive)
REMARK    1  A    between atoms: C_1  and  C_2
REMARK    2  A    between atoms: C_4  and  N_5
REMARK    3  A    between atoms: N_5  and  S_6
REMARK    4  A    between atoms: S_6  and  C_9
REMARK    5  A    between atoms: C_16  and  O_17
REMARK    6  A    between atoms: O_17  and  C_18
REMARK    7  A    between atoms: C_18  and  C_19
REMARK    8  A    between atoms: C_19  and  C_20
REMARK    9  A    between atoms: C_20  and  N_21
REMARK                            x       y       z     vdW  Elec       q    Type
REMARK                         _______ _______ _______ _____ _____    ______ ____
ROOT
ATOM      1  C   UNL     1       8.125   5.865  19.790  0.00  0.00    +0.000 C 
ATOM      2  C   UNL     1       7.033   5.405  18.874  0.00  0.00    +0.000 A 
ATOM      3  C   UNL     1       7.334   4.858  17.624  0.00  0.00    +0.000 A 
ATOM      4  C   UNL     1       6.309   4.432  16.778  0.00  0.00    +0.000 A 
ATOM      5  C   UNL     1       4.973   4.542  17.172  0.00  0.00    +0.000 A 
ATOM      6  C   UNL     1       4.660   5.102  18.412  0.00  0.00    +0.000 A 
ATOM      7  C   UNL     1       5.691   5.523  19.260  0.00  0.00    +0.000 A 
ENDROOT
BRANCH   4   8
ATOM      8  N   UNL     1       6.668   3.882  15.517  0.00  0.00    +0.000 N 
ATOM      9  H   UNL     1       6.435   2.912  15.319  0.00  0.00    +0.000 HD
BRANCH   8  10
ATOM     10  S   UNL     1       6.694   4.870  14.158  0.00  0.00    +0.000 S 
ATOM     11  O   UNL     1       5.629   5.836  14.349  0.00  0.00    +0.000 OA
ATOM     12  O   UNL     1       8.049   5.298  13.889  0.00  0.00    +0.000 OA
BRANCH  10  13
ATOM     13  C   UNL     1       6.183   3.762  12.862  0.00  0.00    +0.000 A 
ATOM     14  C   UNL     1       7.125   2.947  12.225  0.00  0.00    +0.000 A 
ATOM     15  C   UNL     1       6.712   2.087  11.209  0.00  0.00    +0.000 A 
ATOM     16  C   UNL     1       5.369   2.039  10.835  0.00  0.00    +0.000 A 
ATOM     17  C   UNL     1       4.427   2.837  11.487  0.00  0.00    +0.000 A 
ATOM     18  C   UNL     1       4.830   3.697  12.508  0.00  0.00    +0.000 A 
ENDBRANCH  10  13
ENDBRANCH   8  10
ENDBRANCH   4   8
BRANCH   6  19
ATOM     19  O   UNL     1       3.323   5.151  18.724  0.00  0.00    +0.000 OA
BRANCH  19  20
ATOM     20  C   UNL     1       3.012   5.173  20.121  0.00  0.00    +0.000 C 
BRANCH  20  21
ATOM     21  C   UNL     1       1.861   4.208  20.410  0.00  0.00    +0.000 C 
BRANCH  21  22
ATOM     22  C   UNL     1       2.404   2.822  20.758  0.00  0.00    +0.000 C 
BRANCH  22  23
ATOM     23  N   UNL     1       2.572   2.036  19.537  0.00  0.00    +0.000 NA
ATOM     24  C   UNL     1       3.754   1.649  19.228  0.00  0.00    +0.000 C 
ATOM     25  N   UNL     1       4.917   1.822  19.897  0.00  0.00    +0.000 N 
ATOM     26  N   UNL     1       3.964   0.971  18.079  0.00  0.00    +0.000 N 
ATOM     27  H   UNL     1       4.914   2.559  20.590  0.00  0.00    +0.000 HD
ATOM     28  H   UNL     1       5.749   1.836  19.325  0.00  0.00    +0.000 HD
ATOM     29  H   UNL     1       3.098   0.578  17.721  0.00  0.00    +0.000 HD
ATOM     30  H   UNL     1       4.720   0.302  18.085  0.00  0.00    +0.000 HD
ENDBRANCH  22  23
ENDBRANCH  21  22
ENDBRANCH  20  21
ENDBRANCH  19  20
ENDBRANCH   6  19
TORSDOF 8
ENDMDL
MODEL 5
REMARK VINA RESULT:      -7.1      3.154      6.838
REMARK  Name = 
REMARK  9 active torsions:
REMARK  status: ('A' for Active; 'I' for Inactive)
REMARK    1  A    between atoms: C_1  and  C_2
REMARK    2  A    between atoms: C_4  and  N_5
REMARK    3  A    between atoms: N_5  and  S_6
REMARK    4  A    between atoms: S_6  and  C_9
REMARK    5  A    between atoms: C_16  and  O_17
REMARK    6  A    between atoms: O_17  and  C_18
REMARK    7  A    between atoms: C_18  and  C_19
REMARK    8  A    between atoms: C_19  and  C_20
REMARK    9  A    between atoms: C_20  and  N_21
REMARK                            x       y       z     vdW  Elec       q    Type
REMARK                         _______ _______ _______ _____ _____    ______ ____
ROOT
ATOM      1  C   UNL     1       8.050   7.150  18.649  0.00  0.00    +0.000 C 
ATOM      2  C   UNL     1       7.206   6.169  17.895  0.00  0.00    +0.000 A 
ATOM      3  C   UNL     1       6.437   5.221  18.574  0.00  0.00    +0.000 A 
ATOM      4  C   UNL     1       5.653   4.311  17.862  0.00  0.00    +0.000 A 
ATOM      5  C   UNL     1       5.623   4.343  16.465  0.00  0.00    +0.000 A 
ATOM      6  C   UNL     1       6.399   5.277  15.776  0.00  0.00    +0.000 A 
ATOM      7  C   UNL     1       7.180   6.190  16.494  0.00  0.00    +0.000 A 
ENDROOT
BRANCH   4   8
ATOM      8  N   UNL     1       4.889   3.366  18.599  0.00  0.00    +0.000 N 
ATOM      9  H   UNL     1       5.224   3.066  19.511  0.00  0.00    +0.000 HD
BRANCH   8  10
ATOM     10  S   UNL     1       3.215   3.354  18.448  0.00  0.00    +0.000 S 
ATOM     11  O   UNL     1       2.946   3.246  17.027  0.00  0.00    +0.000 OA
ATOM     12  O   UNL     1       2.644   2.414  19.388  0.00  0.00    +0.000 OA
BRANCH  10  13
ATOM     13  C   UNL     1       2.766   5.001  18.951  0.00  0.00    +0.000 A 
ATOM     14  C   UNL     1       2.878   6.064  18.048  0.00  0.00    +0.000 A 
ATOM     15  C   UNL     1       2.525   7.349  18.456  0.00  0.00    +0.000 A 
ATOM     16  C   UNL     1       2.061   7.570  19.753  0.00  0.00    +0.000 A 
ATOM     17  C   UNL     1       1.929   6.504  20.645  0.00  0.00    +0.000 A 
ATOM     18  C   UNL     1       2.275   5.214  20.244  0.00  0.00    +0.000 A 
ENDBRANCH  10  13
ENDBRANCH   8  10
ENDBRANCH   4   8
BRANCH   6  19
ATOM     19  O   UNL     1       6.291   5.248  14.407  0.00  0.00    +0.000 OA
BRANCH  19  20
ATOM     20  C   UNL     1       6.245   3.944  13.817  0.00  0.00    +0.000 C 
BRANCH  20  21
ATOM     21  C   UNL     1       5.013   3.827  12.918  0.00  0.00    +0.000 C 
BRANCH  21  22
ATOM     22  C   UNL     1       5.409   3.307  11.537  0.00  0.00    +0.000 C 
BRANCH  22  23
ATOM     23  N   UNL     1       5.213   1.859  11.479  0.00  0.00    +0.000 NA
ATOM     24  C   UNL     1       6.249   1.118  11.332  0.00  0.00    +0.000 C 
ATOM     25  N   UNL     1       7.553   1.468  11.259  0.00  0.00    +0.000 N 
ATOM     26  N   UNL     1       6.110  -0.220  11.215  0.00  0.00    +0.000 N 
ATOM     27  H   UNL     1       7.731   2.438  11.033  0.00  0.00    +0.000 HD
ATOM     28  H   UNL     1       8.143   0.838  10.734  0.00  0.00    +0.000 HD
ATOM     29  H   UNL     1       5.203  -0.527  11.558  0.00  0.00    +0.000 HD
ATOM     30  H   UNL     1       6.869  -0.782  11.570  0.00  0.00    +0.000 HD
ENDBRANCH  22  23
ENDBRANCH  21  22
ENDBRANCH  20  21
ENDBRANCH  19  20
ENDBRANCH   6  19
TORSDOF 8
ENDMDL
MODEL 6
REMARK VINA RESULT:      -7.0      2.747      5.914
REMARK  Name = 
REMARK  9 active torsions:
REMARK  status: ('A' for Active; 'I' for Inactive)
REMARK    1  A    between atoms: C_1  and  C_2
REMARK    2  A    between atoms: C_4  and  N_5
REMARK    3  A    between atoms: N_5  and  S_6
REMARK    4  A    between atoms: S_6  and  C_9
REMARK    5  A    between atoms: C_16  and  O_17
REMARK    6  A    between atoms: O_17  and  C_18
REMARK    7  A    between atoms: C_18  and  C_19
REMARK    8  A    between atoms: C_19  and  C_20
REMARK    9  A    between atoms: C_20  and  N_21
REMARK                            x       y       z     vdW  Elec       q    Type
REMARK                         _______ _______ _______ _____ _____    ______ ____
ROOT
ATOM      1  C   UNL     1       2.129   8.587  17.443  0.00  0.00    +0.000 C 
ATOM      2  C   UNL     1       2.951   7.501  18.068  0.00  0.00    +0.000 A 
ATOM      3  C   UNL     1       2.529   6.876  19.244  0.00  0.00    +0.000 A 
ATOM      4  C   UNL     1       3.302   5.865  19.817  0.00  0.00    +0.000 A 
ATOM      5  C   UNL     1       4.499   5.461  19.219  0.00  0.00    +0.000 A 
ATOM      6  C   UNL     1       4.936   6.089  18.052  0.00  0.00    +0.000 A 
ATOM      7  C   UNL     1       4.157   7.100  17.477  0.00  0.00    +0.000 A 
ENDROOT
BRANCH   4   8
ATOM      8  N   UNL     1       2.830   5.260  21.014  0.00  0.00    +0.000 N 
ATOM      9  H   UNL     1       2.689   5.841  21.837  0.00  0.00    +0.000 HD
BRANCH   8  10
ATOM     10  S   UNL     1       1.794   3.940  20.925  0.00  0.00    +0.000 S 
ATOM     11  O   UNL     1       1.966   3.215  22.169  0.00  0.00    +0.000 OA
ATOM     12  O   UNL     1       0.484   4.372  20.490  0.00  0.00    +0.000 OA
BRANCH  10  13
ATOM     13  C   UNL     1       2.524   2.959  19.631  0.00  0.00    +0.000 A 
ATOM     14  C   UNL     1       2.009   3.019  18.331  0.00  0.00    +0.000 A 
ATOM     15  C   UNL     1       2.588   2.243  17.329  0.00  0.00    +0.000 A 
ATOM     16  C   UNL     1       3.673   1.416  17.621  0.00  0.00    +0.000 A 
ATOM     17  C   UNL     1       4.199   1.375  18.914  0.00  0.00    +0.000 A 
ATOM     18  C   UNL     1       3.630   2.151  19.922  0.00  0.00    +0.000 A 
ENDBRANCH  10  13
ENDBRANCH   8  10
ENDBRANCH   4   8
BRANCH   6  19
ATOM     19  O   UNL     1       6.112   5.614  17.525  0.00  0.00    +0.000 OA
BRANCH  19  20
ATOM     20  C   UNL     1       6.218   5.668  16.098  0.00  0.00    +0.000 C 
BRANCH  20  21
ATOM     21  C   UNL     1       5.534   4.446  15.483  0.00  0.00    +0.000 C 
BRANCH  21  22
ATOM     22  C   UNL     1       6.167   4.104  14.134  0.00  0.00    +0.000 C 
BRANCH  22  23
ATOM     23  N   UNL     1       5.120   3.858  13.145  0.00  0.00    +0.000 NA
ATOM     24  C   UNL     1       5.383   3.059  12.177  0.00  0.00    +0.000 C 
ATOM     25  N   UNL     1       6.504   2.344  11.933  0.00  0.00    +0.000 N 
ATOM     26  N   UNL     1       4.465   2.848  11.209  0.00  0.00    +0.000 N 
ATOM     27  H   UNL     1       7.335   2.661  12.415  0.00  0.00    +0.000 HD
ATOM     28  H   UNL     1       6.682   2.134  10.961  0.00  0.00    +0.000 HD
ATOM     29  H   UNL     1       3.537   3.126  11.515  0.00  0.00    +0.000 HD
ATOM     30  H   UNL     1       4.474   1.938  10.774  0.00  0.00    +0.000 HD
ENDBRANCH  22  23
ENDBRANCH  21  22
ENDBRANCH  20  21
ENDBRANCH  19  20
ENDBRANCH   6  19
TORSDOF 8
ENDMDL
MODEL 7
REMARK VINA RESULT:      -6.9      2.954      4.665
REMARK  Name = 
REMARK  9 active torsions:
REMARK  status: ('A' for Active; 'I' for Inactive)
REMARK    1  A    between atoms: C_1  and  C_2
REMARK    2  A    between atoms: C_4  and  N_5
REMARK    3  A    between atoms: N_5  and  S_6
REMARK    4  A    between atoms: S_6  and  C_9
REMARK    5  A    between atoms: C_16  and  O_17
REMARK    6  A    between atoms: O_17  and  C_18
REMARK    7  A    between atoms: C_18  and  C_19
REMARK    8  A    between atoms: C_19  and  C_20
REMARK    9  A    between atoms: C_20  and  N_21
REMARK                            x       y       z     vdW  Elec       q    Type
REMARK                         _______ _______ _______ _____ _____    ______ ____
ROOT
ATOM      1  C   UNL     1       2.176   3.035  18.462  0.00  0.00    +0.000 C 
ATOM      2  C   UNL     1       2.677   4.437  18.290  0.00  0.00    +0.000 A 
ATOM      3  C   UNL     1       3.624   4.740  17.309  0.00  0.00    +0.000 A 
ATOM      4  C   UNL     1       4.083   6.049  17.157  0.00  0.00    +0.000 A 
ATOM      5  C   UNL     1       3.597   7.071  17.977  0.00  0.00    +0.000 A 
ATOM      6  C   UNL     1       2.661   6.776  18.970  0.00  0.00    +0.000 A 
ATOM      7  C   UNL     1       2.200   5.463  19.117  0.00  0.00    +0.000 A 
ENDROOT
BRANCH   4   8
ATOM      8  N   UNL     1       5.047   6.306  16.144  0.00  0.00    +0.000 N 
ATOM      9  H   UNL     1       5.092   7.235  15.731  0.00  0.00    +0.000 HD
BRANCH   8  10
ATOM     10  S   UNL     1       6.522   5.503  16.179  0.00  0.00    +0.000 S 
ATOM     11  O   UNL     1       7.532   6.533  16.329  0.00  0.00    +0.000 OA
ATOM     12  O   UNL     1       6.453   4.389  17.099  0.00  0.00    +0.000 OA
BRANCH  10  13
ATOM     13  C   UNL     1       6.657   4.862  14.524  0.00  0.00    +0.000 A 
ATOM     14  C   UNL     1       5.752   3.894  14.072  0.00  0.00    +0.000 A 
ATOM     15  C   UNL     1       5.870   3.399  12.775  0.00  0.00    +0.000 A 
ATOM     16  C   UNL     1       6.881   3.867  11.936  0.00  0.00    +0.000 A 
ATOM     17  C   UNL     1       7.769   4.849  12.381  0.00  0.00    +0.000 A 
ATOM     18  C   UNL     1       7.655   5.354  13.676  0.00  0.00    +0.000 A 
ENDBRANCH  10  13
ENDBRANCH   8  10
ENDBRANCH   4   8
BRANCH   6  19
ATOM     19  O   UNL     1       2.225   7.845  19.715  0.00  0.00    +0.000 OA
BRANCH  19  20
ATOM     20  C   UNL     1       1.474   7.518  20.888  0.00  0.00    +0.000 C 
BRANCH  20  21
ATOM     21  C   UNL     1       0.994   8.800  21.569  0.00  0.00    +0.000 C 
BRANCH  21  22
ATOM     22  C   UNL     1       0.024   9.555  20.660  0.00  0.00    +0.000 C 
BRANCH  22  23
ATOM     23  N   UNL     1       0.677  10.749  20.124  0.00  0.00    +0.000 NA
ATOM     24  C   UNL     1       0.677  10.914  18.853  0.00  0.00    +0.000 C 
ATOM     25  N   UNL     1       0.114  10.155  17.887  0.00  0.00    +0.000 N 
ATOM     26  N   UNL     1       1.319  11.972  18.311  0.00  0.00    +0.000 N 
ATOM     27  H   UNL     1      -0.117   9.207  18.158  0.00  0.00    +0.000 HD
ATOM     28  H   UNL     1       0.564  10.196  16.984  0.00  0.00    +0.000 HD
ATOM     29  H   UNL     1       1.486  12.696  19.005  0.00  0.00    +0.000 HD
ATOM     30  H   UNL     1       0.933  12.338  17.453  0.00  0.00    +0.000 HD
ENDBRANCH  22  23
ENDBRANCH  21  22
ENDBRANCH  20  21
ENDBRANCH  19  20
ENDBRANCH   6  19
TORSDOF 8
ENDMDL
MODEL 8
REMARK VINA RESULT:      -6.8      2.553      3.127
REMARK  Name = 
REMARK  9 active torsions:
REMARK  status: ('A' for Active; 'I' for Inactive)
REMARK    1  A    between atoms: C_1  and  C_2
REMARK    2  A    between atoms: C_4  and  N_5
REMARK    3  A    between atoms: N_5  and  S_6
REMARK    4  A    between atoms: S_6  and  C_9
REMARK    5  A    between atoms: C_16  and  O_17
REMARK    6  A    between atoms: O_17  and  C_18
REMARK    7  A    between atoms: C_18  and  C_19
REMARK    8  A    between atoms: C_19  and  C_20
REMARK    9  A    between atoms: C_20  and  N_21
REMARK                            x       y       z     vdW  Elec       q    Type
REMARK                         _______ _______ _______ _____ _____    ______ ____
ROOT
ATOM      1  C   UNL     1       2.192   9.623  18.110  0.00  0.00    +0.000 C 
ATOM      2  C   UNL     1       2.457   8.172  18.372  0.00  0.00    +0.000 A 
ATOM      3  C   UNL     1       3.187   7.405  17.461  0.00  0.00    +0.000 A 
ATOM      4  C   UNL     1       3.429   6.054  17.715  0.00  0.00    +0.000 A 
ATOM      5  C   UNL     1       2.952   5.456  18.885  0.00  0.00    +0.000 A 
ATOM      6  C   UNL     1       2.209   6.210  19.795  0.00  0.00    +0.000 A 
ATOM      7  C   UNL     1       1.972   7.565  19.539  0.00  0.00    +0.000 A 
ENDROOT
BRANCH   4   8
ATOM      8  N   UNL     1       4.177   5.317  16.757  0.00  0.00    +0.000 N 
ATOM      9  H   UNL     1       4.215   5.653  15.798  0.00  0.00    +0.000 HD
BRANCH   8  10
ATOM     10  S   UNL     1       5.548   4.477  17.242  0.00  0.00    +0.000 S 
ATOM     11  O   UNL     1       5.165   3.744  18.434  0.00  0.00    +0.000 OA
ATOM     12  O   UNL     1       6.136   3.799  16.108  0.00  0.00    +0.000 OA
BRANCH  10  13
ATOM     13  C   UNL     1       6.646   5.783  17.751  0.00  0.00    +0.000 A 
ATOM     14  C   UNL     1       7.440   5.626  18.893  0.00  0.00    +0.000 A 
ATOM     15  C   UNL     1       8.293   6.657  19.281  0.00  0.00    +0.000 A 
ATOM     16  C   UNL     1       8.354   7.834  18.535  0.00  0.00    +0.000 A 
ATOM     17  C   UNL     1       7.578   7.980  17.383  0.00  0.00    +0.000 A 
ATOM     18  C   UNL     1       6.725   6.951  16.984  0.00  0.00    +0.000 A 
ENDBRANCH  10  13
ENDBRANCH   8  10
ENDBRANCH   4   8
BRANCH   6  19
ATOM     19  O   UNL     1       1.798   5.545  20.925  0.00  0.00    +0.000 OA
BRANCH  19  20
ATOM     20  C   UNL     1       2.573   4.397  21.285  0.00  0.00    +0.000 C 
BRANCH  20  21
ATOM     21  C   UNL     1       1.646   3.215  21.571  0.00  0.00    +0.000 C 
BRANCH  21  22
ATOM     22  C   UNL     1       2.056   2.001  20.737  0.00  0.00    +0.000 C 
BRANCH  22  23
ATOM     23  N   UNL     1       1.877   2.294  19.316  0.00  0.00    +0.000 NA
ATOM     24  C   UNL     1       2.708   1.781  18.487  0.00  0.00    +0.000 C 
ATOM     25  N   UNL     1       3.745   0.943  18.716  0.00  0.00    +0.000 N 
ATOM     26  N   UNL     1       2.615   2.072  17.171  0.00  0.00    +0.000 N 
ATOM     27  H   UNL     1       4.076   0.913  19.671  0.00  0.00    +0.000 HD
ATOM     28  H   UNL     1       4.501   0.997  18.049  0.00  0.00    +0.000 HD
ATOM     29  H   UNL     1       1.697   2.442  16.940  0.00  0.00    +0.000 HD
ATOM     30  H   UNL     1       2.915   1.352  16.531  0.00  0.00    +0.000 HD
ENDBRANCH  22  23
ENDBRANCH  21  22
ENDBRANCH  20  21
ENDBRANCH  19  20
ENDBRANCH   6  19
TORSDOF 8
ENDMDL
MODEL 9
REMARK VINA RESULT:      -6.7      3.199      4.788
REMARK  Name = 
REMARK  9 active torsions:
REMARK  status: ('A' for Active; 'I' for Inactive)
REMARK    1  A    between atoms: C_1  and  C_2
REMARK    2  A    between atoms: C_4  and  N_5
REMARK    3  A    between atoms: N_5  and  S_6
REMARK    4  A    between atoms: S_6  and  C_9
REMARK    5  A    between atoms: C_16  and  O_17
REMARK    6  A    between atoms: O_17  and  C_18
REMARK    7  A    between atoms: C_18  and  C_19
REMARK    8  A    between atoms: C_19  and  C_20
REMARK    9  A    between atoms: C_20  and  N_21
REMARK                            x       y       z     vdW  Elec       q    Type
REMARK                         _______ _______ _______ _____ _____    ______ ____
ROOT
ATOM      1  C   UNL     1       1.701   2.968  17.994  0.00  0.00    +0.000 C 
ATOM      2  C   UNL     1       2.613   4.082  18.410  0.00  0.00    +0.000 A 
ATOM      3  C   UNL     1       3.958   3.833  18.693  0.00  0.00    +0.000 A 
ATOM      4  C   UNL     1       4.799   4.878  19.080  0.00  0.00    +0.000 A 
ATOM      5  C   UNL     1       4.308   6.183  19.182  0.00  0.00    +0.000 A 
ATOM      6  C   UNL     1       2.962   6.439  18.916  0.00  0.00    +0.000 A 
ATOM      7  C   UNL     1       2.123   5.390  18.524  0.00  0.00    +0.000 A 
ENDROOT
BRANCH   4   8
ATOM      8  N   UNL     1       6.160   4.573  19.357  0.00  0.00    +0.000 N 
ATOM      9  H   UNL     1       6.386   3.686  19.800  0.00  0.00    +0.000 HD
BRANCH   8  10
ATOM     10  S   UNL     1       7.364   5.156  18.340  0.00  0.00    +0.000 S 
ATOM     11  O   UNL     1       7.512   6.561  18.664  0.00  0.00    +0.000 OA
ATOM     12  O   UNL     1       8.501   4.262  18.363  0.00  0.00    +0.000 OA
BRANCH  10  13
ATOM     13  C   UNL     1       6.600   5.057  16.735  0.00  0.00    +0.000 A 
ATOM     14  C   UNL     1       6.639   3.859  16.013  0.00  0.00    +0.000 A 
ATOM     15  C   UNL     1       6.039   3.797  14.756  0.00  0.00    +0.000 A 
ATOM     16  C   UNL     1       5.404   4.919  14.226  0.00  0.00    +0.000 A 
ATOM     17  C   UNL     1       5.346   6.108  14.959  0.00  0.00    +0.000 A 
ATOM     18  C   UNL     1       5.939   6.178  16.219  0.00  0.00    +0.000 A 
ENDBRANCH  10  13
ENDBRANCH   8  10
ENDBRANCH   4   8
BRANCH   6  19
ATOM     19  O   UNL     1       2.573   7.752  19.023  0.00  0.00    +0.000 OA
BRANCH  19  20
ATOM     20  C   UNL     1       2.232   8.400  17.793  0.00  0.00    +0.000 C 
BRANCH  20  21
ATOM     21  C   UNL     1       0.996   9.278  17.996  0.00  0.00    +0.000 C 
BRANCH  21  22
ATOM     22  C   UNL     1       1.126  10.089  19.285  0.00  0.00    +0.000 C 
BRANCH  22  23
ATOM     23  N   UNL     1       0.041   9.739  20.200  0.00  0.00    +0.000 NA
ATOM     24  C   UNL     1       0.335   9.065  21.250  0.00  0.00    +0.000 C 
ATOM     25  N   UNL     1       1.541   8.641  21.691  0.00  0.00    +0.000 N 
ATOM     26  N   UNL     1      -0.644   8.670  22.094  0.00  0.00    +0.000 N 
ATOM     27  H   UNL     1       2.275   8.620  20.995  0.00  0.00    +0.000 HD
ATOM     28  H   UNL     1       1.527   7.806  22.258  0.00  0.00    +0.000 HD
ATOM     29  H   UNL     1      -1.492   9.213  21.953  0.00  0.00    +0.000 HD
ATOM     30  H   UNL     1      -0.391   8.590  23.067  0.00  0.00    +0.000 HD
ENDBRANCH  22  23
ENDBRANCH  21  22
ENDBRANCH  20  21
ENDBRANCH  19  20
ENDBRANCH   6  19
TORSDOF 8
ENDMDL
