MODEL 1
REMARK VINA RESULT:      -8.4      0.000      0.000
REMARK  Name = 
REMARK  5 active torsions:
REMARK  status: ('A' for Active; 'I' for Inactive)
REMARK    1  A    between atoms: C_1  and  N_2
REMARK    2  A    between atoms: N_2  and  C_3
REMARK    3  A    between atoms: N_2  and  C_4
REMARK    4  A    between atoms: C_4  and  C_5
REMARK    5  A    between atoms: C_5  and  N_6
REMARK                            x       y       z     vdW  Elec       q    Type
REMARK                         _______ _______ _______ _____ _____    ______ ____
ROOT
ATOM      1  N   UNL     1       4.090   5.981  18.288  0.00  0.00    +0.000 N 
ATOM      2  C   UNL     1       4.423   5.006  19.232  0.00  0.00    +0.000 C 
ATOM      3  O   UNL     1       5.545   4.646  19.530  0.00  0.00    +0.000 OA
ATOM      4  C   UNL     1       3.292   4.141  19.597  0.00  0.00    +0.000 A 
ATOM      5  C   UNL     1       3.291   2.809  19.161  0.00  0.00    +0.000 A 
ATOM      6  C   UNL     1       2.211   1.990  19.472  0.00  0.00    +0.000 A 
ATOM      7  C   UNL     1       1.158   2.507  20.225  0.00  0.00    +0.000 A 
ATOM      8  C   UNL     1       1.187   3.834  20.675  0.00  0.00    +0.000 A 
ATOM      9  C   UNL     1       2.264   4.670  20.364  0.00  0.00    +0.000 A 
ATOM     10  N   UNL     1       2.244   6.031  20.698  0.00  0.00    +0.000 N 
ATOM     11  C   UNL     1       2.342   7.081  19.749  0.00  0.00    +0.000 A 
ATOM     12  C   UNL     1       1.500   8.192  19.982  0.00  0.00    +0.000 A 
ATOM     13  C   UNL     1       1.384   9.219  19.052  0.00  0.00    +0.000 A 
ATOM     14 CL   UNL     1       0.326  10.539  19.353  0.00  0.00    +0.000 Cl
ATOM     15  C   UNL     1       2.105   9.166  17.873  0.00  0.00    +0.000 A 
ATOM     16  C   UNL     1       2.966   8.090  17.637  0.00  0.00    +0.000 A 
ATOM     17  C   UNL     1       3.123   7.028  18.560  0.00  0.00    +0.000 A 
ATOM     18  H   UNL     1       1.670   6.246  21.506  0.00  0.00    +0.000 HD
ENDROOT
BRANCH   1  19
ATOM     19  C   UNL     1       4.801   5.926  16.999  0.00  0.00    +0.000 C 
BRANCH  19  20
ATOM     20  C   UNL     1       4.714   4.560  16.269  0.00  0.00    +0.000 C 
BRANCH  20  22
ATOM     21  C   UNL     1       6.139   3.955  14.445  0.00  0.00    +0.000 C 
ATOM     22  N   UNL     1       6.007   3.938  15.907  0.00  0.00    +0.000 NA
ATOM     23  C   UNL     1       7.145   4.633  16.508  0.00  0.00    +0.000 C 
ENDBRANCH  20  22
ENDBRANCH  19  20
ENDBRANCH   1  19
TORSDOF 3
ENDMDL
MODEL 2
REMARK VINA RESULT:      -8.2      0.933      1.359
REMARK  Name = 
REMARK  5 active torsions:
REMARK  status: ('A' for Active; 'I' for Inactive)
REMARK    1  A    between atoms: C_1  and  N_2
REMARK    2  A    between atoms: N_2  and  C_3
REMARK    3  A    between atoms: N_2  and  C_4
REMARK    4  A    between atoms: C_4  and  C_5
REMARK    5  A    between atoms: C_5  and  N_6
REMARK                            x       y       z     vdW  Elec       q    Type
REMARK                         _______ _______ _______ _____ _____    ______ ____
ROOT
ATOM      1  N   UNL     1       3.886   6.150  18.277  0.00  0.00    +0.000 N 
ATOM      2  C   UNL     1       4.264   5.163  19.193  0.00  0.00    +0.000 C 
ATOM      3  O   UNL     1       5.400   4.806  19.439  0.00  0.00    +0.000 OA
ATOM      4  C   UNL     1       3.155   4.287  19.593  0.00  0.00    +0.000 A 
ATOM      5  C   UNL     1       3.142   2.960  19.139  0.00  0.00    +0.000 A 
ATOM      6  C   UNL     1       2.081   2.131  19.483  0.00  0.00    +0.000 A 
ATOM      7  C   UNL     1       1.058   2.631  20.287  0.00  0.00    +0.000 A 
ATOM      8  C   UNL     1       1.098   3.952  20.754  0.00  0.00    +0.000 A 
ATOM      9  C   UNL     1       2.157   4.798  20.409  0.00  0.00    +0.000 A 
ATOM     10  N   UNL     1       2.143   6.155  20.764  0.00  0.00    +0.000 N 
ATOM     11  C   UNL     1       2.195   7.218  19.826  0.00  0.00    +0.000 A 
ATOM     12  C   UNL     1       1.358   8.321  20.110  0.00  0.00    +0.000 A 
ATOM     13  C   UNL     1       1.197   9.360  19.200  0.00  0.00    +0.000 A 
ATOM     14 CL   UNL     1       0.146  10.669  19.564  0.00  0.00    +0.000 Cl
ATOM     15  C   UNL     1       1.868   9.328  17.991  0.00  0.00    +0.000 A 
ATOM     16  C   UNL     1       2.725   8.260  17.705  0.00  0.00    +0.000 A 
ATOM     17  C   UNL     1       2.926   7.186  18.604  0.00  0.00    +0.000 A 
ATOM     18  H   UNL     1       1.603   6.355  21.598  0.00  0.00    +0.000 HD
ENDROOT
BRANCH   1  19
ATOM     19  C   UNL     1       4.543   6.117  16.959  0.00  0.00    +0.000 C 
BRANCH  19  20
ATOM     20  C   UNL     1       5.718   7.116  16.795  0.00  0.00    +0.000 C 
BRANCH  20  22
ATOM     21  C   UNL     1       7.752   6.760  18.002  0.00  0.00    +0.000 C 
ATOM     22  N   UNL     1       7.069   6.517  16.726  0.00  0.00    +0.000 NA
ATOM     23  C   UNL     1       7.027   5.080  16.460  0.00  0.00    +0.000 C 
ENDBRANCH  20  22
ENDBRANCH  19  20
ENDBRANCH   1  19
TORSDOF 3
ENDMDL
MODEL 3
REMARK VINA RESULT:      -7.6      1.257      1.675
REMARK  Name = 
REMARK  5 active torsions:
REMARK  status: ('A' for Active; 'I' for Inactive)
REMARK    1  A    between atoms: C_1  and  N_2
REMARK    2  A    between atoms: N_2  and  C_3
REMARK    3  A    between atoms: N_2  and  C_4
REMARK    4  A    between atoms: C_4  and  C_5
REMARK    5  A    between atoms: C_5  and  N_6
REMARK                            x       y       z     vdW  Elec       q    Type
REMARK                         _______ _______ _______ _____ _____    ______ ____
ROOT
ATOM      1  N   UNL     1       4.206   5.480  18.122  0.00  0.00    +0.000 N 
ATOM      2  C   UNL     1       4.402   4.439  19.034  0.00  0.00    +0.000 C 
ATOM      3  O   UNL     1       5.469   3.950  19.350  0.00  0.00    +0.000 OA
ATOM      4  C   UNL     1       3.175   3.688  19.331  0.00  0.00    +0.000 A 
ATOM      5  C   UNL     1       3.046   2.380  18.840  0.00  0.00    +0.000 A 
ATOM      6  C   UNL     1       1.877   1.671  19.085  0.00  0.00    +0.000 A 
ATOM      7  C   UNL     1       0.860   2.268  19.829  0.00  0.00    +0.000 A 
ATOM      8  C   UNL     1       1.014   3.567  20.334  0.00  0.00    +0.000 A 
ATOM      9  C   UNL     1       2.184   4.294  20.088  0.00  0.00    +0.000 A 
ATOM     10  N   UNL     1       2.296   5.636  20.478  0.00  0.00    +0.000 N 
ATOM     11  C   UNL     1       2.537   6.704  19.576  0.00  0.00    +0.000 A 
ATOM     12  C   UNL     1       1.810   7.890  19.831  0.00  0.00    +0.000 A 
ATOM     13  C   UNL     1       1.834   8.958  18.941  0.00  0.00    +0.000 A 
ATOM     14 CL   UNL     1       0.913  10.371  19.266  0.00  0.00    +0.000 Cl
ATOM     15  C   UNL     1       2.584   8.872  17.782  0.00  0.00    +0.000 A 
ATOM     16  C   UNL     1       3.334   7.720  17.527  0.00  0.00    +0.000 A 
ATOM     17  C   UNL     1       3.347   6.613  18.409  0.00  0.00    +0.000 A 
ATOM     18  H   UNL     1       1.723   5.880  21.277  0.00  0.00    +0.000 HD
ENDROOT
BRANCH   1  19
ATOM     19  C   UNL     1       4.949   5.398  16.853  0.00  0.00    +0.000 C 
BRANCH  19  20
ATOM     20  C   UNL     1       6.467   5.694  16.971  0.00  0.00    +0.000 C 
BRANCH  20  22
ATOM     21  C   UNL     1       7.821   6.103  18.901  0.00  0.00    +0.000 C 
ATOM     22  N   UNL     1       6.851   6.707  17.980  0.00  0.00    +0.000 NA
ATOM     23  C   UNL     1       7.433   7.903  17.372  0.00  0.00    +0.000 C 
ENDBRANCH  20  22
ENDBRANCH  19  20
ENDBRANCH   1  19
TORSDOF 3
ENDMDL
MODEL 4
REMARK VINA RESULT:      -7.2      1.815      4.547
REMARK  Name = 
REMARK  5 active torsions:
REMARK  status: ('A' for Active; 'I' for Inactive)
REMARK    1  A    between atoms: C_1  and  N_2
REMARK    2  A    between atoms: N_2  and  C_3
REMARK    3  A    between atoms: N_2  and  C_4
REMARK    4  A    between atoms: C_4  and  C_5
REMARK    5  A    between atoms: C_5  and  N_6
REMARK                            x       y       z     vdW  Elec       q    Type
REMARK                         _______ _______ _______ _____ _____    ______ ____
ROOT
ATOM      1  N   UNL     1       2.924   5.709  19.397  0.00  0.00    +0.000 N 
ATOM      2  C   UNL     1       3.635   4.991  18.431  0.00  0.00    +0.000 C 
ATOM      3  O   UNL     1       3.406   3.855  18.064  0.00  0.00    +0.000 OA
ATOM      4  C   UNL     1       4.951   5.571  18.128  0.00  0.00    +0.000 A 
ATOM      5  C   UNL     1       6.102   4.895  18.557  0.00  0.00    +0.000 A 
ATOM      6  C   UNL     1       7.352   5.450  18.307  0.00  0.00    +0.000 A 
ATOM      7  C   UNL     1       7.436   6.660  17.619  0.00  0.00    +0.000 A 
ATOM      8  C   UNL     1       6.276   7.310  17.175  0.00  0.00    +0.000 A 
ATOM      9  C   UNL     1       5.012   6.765  17.426  0.00  0.00    +0.000 A 
ATOM     10  N   UNL     1       3.844   7.469  17.100  0.00  0.00    +0.000 N 
ATOM     11  C   UNL     1       2.857   7.847  18.047  0.00  0.00    +0.000 A 
ATOM     12  C   UNL     1       2.307   9.137  17.869  0.00  0.00    +0.000 A 
ATOM     13  C   UNL     1       1.446   9.691  18.809  0.00  0.00    +0.000 A 
ATOM     14 CL   UNL     1       0.821  11.274  18.577  0.00  0.00    +0.000 Cl
ATOM     15  C   UNL     1       1.110   8.974  19.944  0.00  0.00    +0.000 A 
ATOM     16  C   UNL     1       1.620   7.685  20.123  0.00  0.00    +0.000 A 
ATOM     17  C   UNL     1       2.492   7.077  19.188  0.00  0.00    +0.000 A 
ATOM     18  H   UNL     1       3.957   8.116  16.328  0.00  0.00    +0.000 HD
ENDROOT
BRANCH   1  19
ATOM     19  C   UNL     1       2.592   4.993  20.642  0.00  0.00    +0.000 C 
BRANCH  19  20
ATOM     20  C   UNL     1       1.197   4.316  20.647  0.00  0.00    +0.000 C 
BRANCH  20  22
ATOM     21  C   UNL     1       1.079   2.202  19.533  0.00  0.00    +0.000 C 
ATOM     22  N   UNL     1       1.192   2.850  20.846  0.00  0.00    +0.000 NA
ATOM     23  C   UNL     1       2.400   2.377  21.522  0.00  0.00    +0.000 C 
ENDBRANCH  20  22
ENDBRANCH  19  20
ENDBRANCH   1  19
TORSDOF 3
ENDMDL
MODEL 5
REMARK VINA RESULT:      -6.7      1.744      4.634
REMARK  Name = 
REMARK  5 active torsions:
REMARK  status: ('A' for Active; 'I' for Inactive)
REMARK    1  A    between atoms: C_1  and  N_2
REMARK    2  A    between atoms: N_2  and  C_3
REMARK    3  A    between atoms: N_2  and  C_4
REMARK    4  A    between atoms: C_4  and  C_5
REMARK    5  A    between atoms: C_5  and  N_6
REMARK                            x       y       z     vdW  Elec       q    Type
REMARK                         _______ _______ _______ _____ _____    ______ ____
ROOT
ATOM      1  N   UNL     1       3.485   4.816  19.229  0.00  0.00    +0.000 N 
ATOM      2  C   UNL     1       4.164   4.474  18.055  0.00  0.00    +0.000 C 
ATOM      3  O   UNL     1       4.059   3.430  17.441  0.00  0.00    +0.000 OA
ATOM      4  C   UNL     1       5.331   5.326  17.789  0.00  0.00    +0.000 A 
ATOM      5  C   UNL     1       6.614   4.780  17.933  0.00  0.00    +0.000 A 
ATOM      6  C   UNL     1       7.727   5.585  17.717  0.00  0.00    +0.000 A 
ATOM      7  C   UNL     1       7.544   6.916  17.346  0.00  0.00    +0.000 A 
ATOM      8  C   UNL     1       6.254   7.440  17.182  0.00  0.00    +0.000 A 
ATOM      9  C   UNL     1       5.126   6.642  17.402  0.00  0.00    +0.000 A 
ATOM     10  N   UNL     1       3.835   7.189  17.366  0.00  0.00    +0.000 N 
ATOM     11  C   UNL     1       2.934   7.163  18.461  0.00  0.00    +0.000 A 
ATOM     12  C   UNL     1       2.182   8.344  18.658  0.00  0.00    +0.000 A 
ATOM     13  C   UNL     1       1.377   8.510  19.779  0.00  0.00    +0.000 A 
ATOM     14 CL   UNL     1       0.503   9.971  20.003  0.00  0.00    +0.000 Cl
ATOM     15  C   UNL     1       1.298   7.504  20.726  0.00  0.00    +0.000 A 
ATOM     16  C   UNL     1       2.011   6.317  20.534  0.00  0.00    +0.000 A 
ATOM     17  C   UNL     1       2.835   6.101  19.404  0.00  0.00    +0.000 A 
ATOM     18  H   UNL     1       3.753   8.006  16.772  0.00  0.00    +0.000 HD
ENDROOT
BRANCH   1  19
ATOM     19  C   UNL     1       3.425   3.788  20.282  0.00  0.00    +0.000 C 
BRANCH  19  20
ATOM     20  C   UNL     1       2.939   2.396  19.800  0.00  0.00    +0.000 C 
BRANCH  20  22
ATOM     21  C   UNL     1       1.024   2.843  21.163  0.00  0.00    +0.000 C 
ATOM     22  N   UNL     1       1.496   2.119  19.976  0.00  0.00    +0.000 NA
ATOM     23  C   UNL     1       0.708   2.523  18.812  0.00  0.00    +0.000 C 
ENDBRANCH  20  22
ENDBRANCH  19  20
ENDBRANCH   1  19
TORSDOF 3
ENDMDL
MODEL 6
REMARK VINA RESULT:      -6.6      1.951      4.207
REMARK  Name = 
REMARK  5 active torsions:
REMARK  status: ('A' for Active; 'I' for Inactive)
REMARK    1  A    between atoms: C_1  and  N_2
REMARK    2  A    between atoms: N_2  and  C_3
REMARK    3  A    between atoms: N_2  and  C_4
REMARK    4  A    between atoms: C_4  and  C_5
REMARK    5  A    between atoms: C_5  and  N_6
REMARK                            x       y       z     vdW  Elec       q    Type
REMARK                         _______ _______ _______ _____ _____    ______ ____
ROOT
ATOM      1  N   UNL     1       2.464   4.608  18.808  0.00  0.00    +0.000 N 
ATOM      2  C   UNL     1       2.939   4.405  17.509  0.00  0.00    +0.000 C 
ATOM      3  O   UNL     1       2.518   3.593  16.707  0.00  0.00    +0.000 OA
ATOM      4  C   UNL     1       4.265   4.992  17.276  0.00  0.00    +0.000 A 
ATOM      5  C   UNL     1       5.367   4.138  17.128  0.00  0.00    +0.000 A 
ATOM      6  C   UNL     1       6.632   4.682  16.941  0.00  0.00    +0.000 A 
ATOM      7  C   UNL     1       6.777   6.068  16.888  0.00  0.00    +0.000 A 
ATOM      8  C   UNL     1       5.662   6.907  17.012  0.00  0.00    +0.000 A 
ATOM      9  C   UNL     1       4.384   6.372  17.207  0.00  0.00    +0.000 A 
ATOM     10  N   UNL     1       3.283   7.203  17.460  0.00  0.00    +0.000 N 
ATOM     11  C   UNL     1       2.492   7.132  18.635  0.00  0.00    +0.000 A 
ATOM     12  C   UNL     1       2.093   8.375  19.176  0.00  0.00    +0.000 A 
ATOM     13  C   UNL     1       1.447   8.456  20.404  0.00  0.00    +0.000 A 
ATOM     14 CL   UNL     1       1.006   9.987  21.046  0.00  0.00    +0.000 Cl
ATOM     15  C   UNL     1       1.178   7.302  21.119  0.00  0.00    +0.000 A 
ATOM     16  C   UNL     1       1.538   6.060  20.587  0.00  0.00    +0.000 A 
ATOM     17  C   UNL     1       2.188   5.930  19.336  0.00  0.00    +0.000 A 
ATOM     18  H   UNL     1       3.374   8.133  17.068  0.00  0.00    +0.000 HD
ENDROOT
BRANCH   1  19
ATOM     19  C   UNL     1       2.215   3.403  19.618  0.00  0.00    +0.000 C 
BRANCH  19  20
ATOM     20  C   UNL     1       3.414   2.951  20.492  0.00  0.00    +0.000 C 
BRANCH  20  22
ATOM     21  C   UNL     1       5.115   1.308  20.848  0.00  0.00    +0.000 C 
ATOM     22  N   UNL     1       4.412   2.088  19.823  0.00  0.00    +0.000 NA
ATOM     23  C   UNL     1       3.800   1.181  18.853  0.00  0.00    +0.000 C 
ENDBRANCH  20  22
ENDBRANCH  19  20
ENDBRANCH   1  19
TORSDOF 3
ENDMDL
MODEL 7
REMARK VINA RESULT:      -6.3      2.980      5.366
REMARK  Name = 
REMARK  5 active torsions:
REMARK  status: ('A' for Active; 'I' for Inactive)
REMARK    1  A    between atoms: C_1  and  N_2
REMARK    2  A    between atoms: N_2  and  C_3
REMARK    3  A    between atoms: N_2  and  C_4
REMARK    4  A    between atoms: C_4  and  C_5
REMARK    5  A    between atoms: C_5  and  N_6
REMARK                            x       y       z     vdW  Elec       q    Type
REMARK                         _______ _______ _______ _____ _____    ______ ____
ROOT
ATOM      1  N   UNL     1       6.382   5.040  18.416  0.00  0.00    +0.000 N 
ATOM      2  C   UNL     1       7.257   4.345  17.576  0.00  0.00    +0.000 C 
ATOM      3  O   UNL     1       8.404   4.031  17.833  0.00  0.00    +0.000 OA
ATOM      4  C   UNL     1       6.828   4.331  16.172  0.00  0.00    +0.000 A 
ATOM      5  C   UNL     1       7.547   5.088  15.236  0.00  0.00    +0.000 A 
ATOM      6  C   UNL     1       7.130   5.111  13.911  0.00  0.00    +0.000 A 
ATOM      7  C   UNL     1       6.014   4.365  13.534  0.00  0.00    +0.000 A 
ATOM      8  C   UNL     1       5.321   3.593  14.477  0.00  0.00    +0.000 A 
ATOM      9  C   UNL     1       5.726   3.567  15.815  0.00  0.00    +0.000 A 
ATOM     10  N   UNL     1       4.967   2.902  16.788  0.00  0.00    +0.000 N 
ATOM     11  C   UNL     1       4.406   3.539  17.925  0.00  0.00    +0.000 A 
ATOM     12  C   UNL     1       3.101   3.121  18.274  0.00  0.00    +0.000 A 
ATOM     13  C   UNL     1       2.377   3.766  19.269  0.00  0.00    +0.000 A 
ATOM     14 CL   UNL     1       0.782   3.252  19.645  0.00  0.00    +0.000 Cl
ATOM     15  C   UNL     1       2.935   4.838  19.943  0.00  0.00    +0.000 A 
ATOM     16  C   UNL     1       4.236   5.248  19.633  0.00  0.00    +0.000 A 
ATOM     17  C   UNL     1       5.013   4.614  18.634  0.00  0.00    +0.000 A 
ATOM     18  H   UNL     1       4.419   2.131  16.423  0.00  0.00    +0.000 HD
ENDROOT
BRANCH   1  19
ATOM     19  C   UNL     1       6.927   6.219  19.111  0.00  0.00    +0.000 C 
BRANCH  19  20
ATOM     20  C   UNL     1       8.109   6.910  18.384  0.00  0.00    +0.000 C 
BRANCH  20  22
ATOM     21  C   UNL     1       6.288   7.954  17.237  0.00  0.00    +0.000 C 
ATOM     22  N   UNL     1       7.743   7.978  17.428  0.00  0.00    +0.000 NA
ATOM     23  C   UNL     1       8.153   9.303  17.892  0.00  0.00    +0.000 C 
ENDBRANCH  20  22
ENDBRANCH  19  20
ENDBRANCH   1  19
TORSDOF 3
ENDMDL
MODEL 8
REMARK VINA RESULT:      -6.2      2.454      5.641
REMARK  Name = 
REMARK  5 active torsions:
REMARK  status: ('A' for Active; 'I' for Inactive)
REMARK    1  A    between atoms: C_1  and  N_2
REMARK    2  A    between atoms: N_2  and  C_3
REMARK    3  A    between atoms: N_2  and  C_4
REMARK    4  A    between atoms: C_4  and  C_5
REMARK    5  A    between atoms: C_5  and  N_6
REMARK                            x       y       z     vdW  Elec       q    Type
REMARK                         _______ _______ _______ _____ _____    ______ ____
ROOT
ATOM      1  N   UNL     1       3.387   6.653  17.968  0.00  0.00    +0.000 N 
ATOM      2  C   UNL     1       4.693   6.821  17.497  0.00  0.00    +0.000 C 
ATOM      3  O   UNL     1       5.330   7.856  17.494  0.00  0.00    +0.000 OA
ATOM      4  C   UNL     1       5.146   5.721  16.635  0.00  0.00    +0.000 A 
ATOM      5  C   UNL     1       5.301   5.957  15.262  0.00  0.00    +0.000 A 
ATOM      6  C   UNL     1       5.696   4.916  14.430  0.00  0.00    +0.000 A 
ATOM      7  C   UNL     1       5.947   3.660  14.982  0.00  0.00    +0.000 A 
ATOM      8  C   UNL     1       5.811   3.447  16.360  0.00  0.00    +0.000 A 
ATOM      9  C   UNL     1       5.407   4.485  17.207  0.00  0.00    +0.000 A 
ATOM     10  N   UNL     1       5.145   4.250  18.564  0.00  0.00    +0.000 N 
ATOM     11  C   UNL     1       3.891   4.491  19.181  0.00  0.00    +0.000 A 
ATOM     12  C   UNL     1       3.477   3.517  20.118  0.00  0.00    +0.000 A 
ATOM     13  C   UNL     1       2.206   3.549  20.681  0.00  0.00    +0.000 A 
ATOM     14 CL   UNL     1       1.725   2.330  21.791  0.00  0.00    +0.000 Cl
ATOM     15  C   UNL     1       1.321   4.553  20.328  0.00  0.00    +0.000 A 
ATOM     16  C   UNL     1       1.723   5.542  19.426  0.00  0.00    +0.000 A 
ATOM     17  C   UNL     1       3.009   5.555  18.836  0.00  0.00    +0.000 A 
ATOM     18  H   UNL     1       5.663   3.470  18.952  0.00  0.00    +0.000 HD
ENDROOT
BRANCH   1  19
ATOM     19  C   UNL     1       2.404   7.675  17.570  0.00  0.00    +0.000 C 
BRANCH  19  20
ATOM     20  C   UNL     1       2.388   8.942  18.465  0.00  0.00    +0.000 C 
BRANCH  20  22
ATOM     21  C   UNL     1       1.019   9.054  20.423  0.00  0.00    +0.000 C 
ATOM     22  N   UNL     1       1.065   9.349  18.985  0.00  0.00    +0.000 NA
ATOM     23  C   UNL     1       0.796  10.770  18.769  0.00  0.00    +0.000 C 
ENDBRANCH  20  22
ENDBRANCH  19  20
ENDBRANCH   1  19
TORSDOF 3
ENDMDL
MODEL 9
REMARK VINA RESULT:      -6.2      2.843      5.274
REMARK  Name = 
REMARK  5 active torsions:
REMARK  status: ('A' for Active; 'I' for Inactive)
REMARK    1  A    between atoms: C_1  and  N_2
REMARK    2  A    between atoms: N_2  and  C_3
REMARK    3  A    between atoms: N_2  and  C_4
REMARK    4  A    between atoms: C_4  and  C_5
REMARK    5  A    between atoms: C_5  and  N_6
REMARK                            x       y       z     vdW  Elec       q    Type
REMARK                         _______ _______ _______ _____ _____    ______ ____
ROOT
ATOM      1  N   UNL     1       2.761   5.421  17.903  0.00  0.00    +0.000 N 
ATOM      2  C   UNL     1       2.004   4.319  18.313  0.00  0.00    +0.000 C 
ATOM      3  O   UNL     1       0.799   4.195  18.210  0.00  0.00    +0.000 OA
ATOM      4  C   UNL     1       2.720   3.436  19.244  0.00  0.00    +0.000 A 
ATOM      5  C   UNL     1       2.320   3.403  20.587  0.00  0.00    +0.000 A 
ATOM      6  C   UNL     1       3.010   2.597  21.485  0.00  0.00    +0.000 A 
ATOM      7  C   UNL     1       4.077   1.824  21.027  0.00  0.00    +0.000 A 
ATOM      8  C   UNL     1       4.447   1.849  19.676  0.00  0.00    +0.000 A 
ATOM      9  C   UNL     1       3.765   2.661  18.764  0.00  0.00    +0.000 A 
ATOM     10  N   UNL     1       4.207   2.791  17.439  0.00  0.00    +0.000 N 
ATOM     11  C   UNL     1       4.588   4.024  16.850  0.00  0.00    +0.000 A 
ATOM     12  C   UNL     1       5.723   3.970  16.009  0.00  0.00    +0.000 A 
ATOM     13  C   UNL     1       6.294   5.127  15.490  0.00  0.00    +0.000 A 
ATOM     14 CL   UNL     1       7.693   5.027  14.498  0.00  0.00    +0.000 Cl
ATOM     15  C   UNL     1       5.746   6.361  15.792  0.00  0.00    +0.000 A 
ATOM     16  C   UNL     1       4.606   6.432  16.598  0.00  0.00    +0.000 A 
ATOM     17  C   UNL     1       3.986   5.281  17.139  0.00  0.00    +0.000 A 
ATOM     18  H   UNL     1       4.717   1.984  17.097  0.00  0.00    +0.000 HD
ENDROOT
BRANCH   1  19
ATOM     19  C   UNL     1       2.235   6.752  18.252  0.00  0.00    +0.000 C 
BRANCH  19  20
ATOM     20  C   UNL     1       2.217   7.063  19.771  0.00  0.00    +0.000 C 
BRANCH  20  22
ATOM     21  C   UNL     1       1.346   9.132  18.942  0.00  0.00    +0.000 C 
ATOM     22  N   UNL     1       1.842   8.446  20.142  0.00  0.00    +0.000 NA
ATOM     23  C   UNL     1       0.817   8.482  21.184  0.00  0.00    +0.000 C 
ENDBRANCH  20  22
ENDBRANCH  19  20
ENDBRANCH   1  19
TORSDOF 3
ENDMDL
