MODEL 1
REMARK VINA RESULT:      -8.1      0.000      0.000
REMARK  Name = 
REMARK  10 active torsions:
REMARK  status: ('A' for Active; 'I' for Inactive)
REMARK    1  A    between atoms: C_1  and  C_2
REMARK    2  A    between atoms: C_2  and  C_3
REMARK    3  A    between atoms: C_2  and  O_4
REMARK    4  A    between atoms: C_2  and  C_5
REMARK    5  A    between atoms: C_5  and  C_6
REMARK    6  A    between atoms: C_6  and  N_7
REMARK    7  A    between atoms: C_8  and  C_10
REMARK    8  A    between atoms: C_13  and  N_14
REMARK    9  A    between atoms: C_25  and  N_26
REMARK   10  A    between atoms: N_26  and  C_27
REMARK                            x       y       z     vdW  Elec       q    Type
REMARK                         _______ _______ _______ _____ _____    ______ ____
ROOT
ATOM      1  C   UNL     1       1.858   6.463  20.134  0.00  0.00    +0.000 A 
ATOM      2  C   UNL     1       1.120   7.257  20.988  0.00  0.00    +0.000 A 
ATOM      3  N   UNL     1       0.833   8.557  20.751  0.00  0.00    +0.000 NA
ATOM      4  C   UNL     1       1.350   9.112  19.624  0.00  0.00    +0.000 A 
ATOM      5  C   UNL     1       2.254   8.461  18.805  0.00  0.00    +0.000 A 
ATOM      6  C   UNL     1       2.410   7.053  18.982  0.00  0.00    +0.000 A 
ENDROOT
BRANCH   4   7
ATOM      7  N   UNL     1       0.733  10.315  19.189  0.00  0.00    +0.000 N 
ATOM      8  C   UNL     1       0.939  11.518  19.845  0.00  0.00    +0.000 A 
ATOM      9  C   UNL     1       0.349  12.466  19.056  0.00  0.00    +0.000 A 
ATOM     10  C   UNL     1      -0.796  11.805  18.593  0.00  0.00    +0.000 A 
ATOM     11  C   UNL     1      -2.128  12.128  18.305  0.00  0.00    +0.000 A 
ATOM     12  C   UNL     1      -2.849  11.197  17.569  0.00  0.00    +0.000 A 
ATOM     13 CL   UNL     1      -4.519  11.445  17.265  0.00  0.00    +0.000 Cl
ATOM     14  C   UNL     1      -2.196  10.063  17.100  0.00  0.00    +0.000 A 
ATOM     15  N   UNL     1      -0.959   9.638  17.481  0.00  0.00    +0.000 NA
ATOM     16  C   UNL     1      -0.343  10.516  18.311  0.00  0.00    +0.000 A 
ENDBRANCH   4   7
BRANCH   1  18
ATOM     17  N   UNL     1       1.335   4.096  19.769  0.00  0.00    +0.000 N 
ATOM     18  C   UNL     1       1.949   5.046  20.561  0.00  0.00    +0.000 C 
ATOM     19  O   UNL     1       2.584   4.762  21.603  0.00  0.00    +0.000 OA
ATOM     20  H   UNL     1       0.817   4.413  18.952  0.00  0.00    +0.000 HD
BRANCH  17  21
ATOM     21  C   UNL     1       1.401   2.687  20.079  0.00  0.00    +0.000 C 
BRANCH  21  22
ATOM     22  C   UNL     1       1.997   1.824  18.968  0.00  0.00    +0.000 C 
BRANCH  22  24
ATOM     23  C   UNL     1       4.299   2.290  19.968  0.00  0.00    +0.000 C 
ATOM     24  C   UNL     1       3.513   1.897  18.713  0.00  0.00    +0.000 C 
ATOM     25  C   UNL     1       3.897   2.800  17.541  0.00  0.00    +0.000 C 
BRANCH  24  26
ATOM     26  O   UNL     1       3.912   0.558  18.364  0.00  0.00    +0.000 OA
ATOM     27  H   UNL     1       4.829   0.589  18.037  0.00  0.00    +0.000 HD
ENDBRANCH  24  26
ENDBRANCH  22  24
ENDBRANCH  21  22
ENDBRANCH  17  21
ENDBRANCH   1  18
BRANCH   6  28
ATOM     28  N   UNL     1       3.046   6.301  17.967  0.00  0.00    +0.000 N 
ATOM     29  H   UNL     1       2.562   6.446  17.079  0.00  0.00    +0.000 HD
BRANCH  28  30
ATOM     30  C   UNL     1       4.510   6.459  17.797  0.00  0.00    +0.000 C 
ATOM     31  C   UNL     1       4.972   6.019  16.394  0.00  0.00    +0.000 C 
ATOM     32  C   UNL     1       6.477   5.814  16.313  0.00  0.00    +0.000 C 
ATOM     33  O   UNL     1       6.938   4.980  17.370  0.00  0.00    +0.000 OA
ATOM     34  C   UNL     1       6.701   5.569  18.645  0.00  0.00    +0.000 C 
ATOM     35  C   UNL     1       5.207   5.661  18.904  0.00  0.00    +0.000 C 
ENDBRANCH  28  30
ENDBRANCH   6  28
TORSDOF 8
ENDMDL
MODEL 2
REMARK VINA RESULT:      -8.0      2.438      4.850
REMARK  Name = 
REMARK  10 active torsions:
REMARK  status: ('A' for Active; 'I' for Inactive)
REMARK    1  A    between atoms: C_1  and  C_2
REMARK    2  A    between atoms: C_2  and  C_3
REMARK    3  A    between atoms: C_2  and  O_4
REMARK    4  A    between atoms: C_2  and  C_5
REMARK    5  A    between atoms: C_5  and  C_6
REMARK    6  A    between atoms: C_6  and  N_7
REMARK    7  A    between atoms: C_8  and  C_10
REMARK    8  A    between atoms: C_13  and  N_14
REMARK    9  A    between atoms: C_25  and  N_26
REMARK   10  A    between atoms: N_26  and  C_27
REMARK                            x       y       z     vdW  Elec       q    Type
REMARK                         _______ _______ _______ _____ _____    ______ ____
ROOT
ATOM      1  C   UNL     1       4.361   6.139  17.697  0.00  0.00    +0.000 A 
ATOM      2  C   UNL     1       3.910   7.367  17.260  0.00  0.00    +0.000 A 
ATOM      3  N   UNL     1       2.968   8.096  17.899  0.00  0.00    +0.000 NA
ATOM      4  C   UNL     1       2.408   7.551  19.011  0.00  0.00    +0.000 A 
ATOM      5  C   UNL     1       2.651   6.253  19.422  0.00  0.00    +0.000 A 
ATOM      6  C   UNL     1       3.758   5.571  18.835  0.00  0.00    +0.000 A 
ENDROOT
BRANCH   4   7
ATOM      7  N   UNL     1       1.740   8.459  19.875  0.00  0.00    +0.000 N 
ATOM      8  C   UNL     1       1.462   8.138  21.194  0.00  0.00    +0.000 A 
ATOM      9  C   UNL     1       0.990   9.293  21.755  0.00  0.00    +0.000 A 
ATOM     10  C   UNL     1       0.229   9.845  20.716  0.00  0.00    +0.000 A 
ATOM     11  C   UNL     1      -0.964  10.565  20.583  0.00  0.00    +0.000 A 
ATOM     12  C   UNL     1      -1.188  11.176  19.356  0.00  0.00    +0.000 A 
ATOM     13 CL   UNL     1      -2.673  11.982  19.053  0.00  0.00    +0.000 Cl
ATOM     14  C   UNL     1      -0.199  11.109  18.383  0.00  0.00    +0.000 A 
ATOM     15  N   UNL     1       0.898  10.300  18.414  0.00  0.00    +0.000 NA
ATOM     16  C   UNL     1       1.005   9.616  19.579  0.00  0.00    +0.000 A 
ENDBRANCH   4   7
BRANCH   1  18
ATOM     17  N   UNL     1       5.287   5.491  15.521  0.00  0.00    +0.000 N 
ATOM     18  C   UNL     1       5.472   5.583  16.886  0.00  0.00    +0.000 C 
ATOM     19  O   UNL     1       6.531   5.236  17.459  0.00  0.00    +0.000 OA
ATOM     20  H   UNL     1       4.386   5.770  15.138  0.00  0.00    +0.000 HD
BRANCH  17  21
ATOM     21  C   UNL     1       6.323   5.000  14.642  0.00  0.00    +0.000 C 
BRANCH  21  22
ATOM     22  C   UNL     1       6.017   3.648  14.001  0.00  0.00    +0.000 C 
BRANCH  22  24
ATOM     23  C   UNL     1       7.105   4.483  11.849  0.00  0.00    +0.000 C 
ATOM     24  C   UNL     1       6.079   3.530  12.467  0.00  0.00    +0.000 C 
ATOM     25  C   UNL     1       4.722   3.692  11.783  0.00  0.00    +0.000 C 
BRANCH  24  26
ATOM     26  O   UNL     1       6.530   2.189  12.200  0.00  0.00    +0.000 OA
ATOM     27  H   UNL     1       5.747   1.621  12.088  0.00  0.00    +0.000 HD
ENDBRANCH  24  26
ENDBRANCH  22  24
ENDBRANCH  21  22
ENDBRANCH  17  21
ENDBRANCH   1  18
BRANCH   6  28
ATOM     28  N   UNL     1       4.247   4.398  19.456  0.00  0.00    +0.000 N 
ATOM     29  H   UNL     1       4.716   4.642  20.329  0.00  0.00    +0.000 HD
BRANCH  28  30
ATOM     30  C   UNL     1       3.303   3.275  19.664  0.00  0.00    +0.000 C 
ATOM     31  C   UNL     1       2.358   3.094  18.460  0.00  0.00    +0.000 C 
ATOM     32  C   UNL     1       1.157   2.219  18.787  0.00  0.00    +0.000 C 
ATOM     33  O   UNL     1       0.513   2.658  19.978  0.00  0.00    +0.000 OA
ATOM     34  C   UNL     1       1.375   2.562  21.107  0.00  0.00    +0.000 C 
ATOM     35  C   UNL     1       2.531   3.535  20.961  0.00  0.00    +0.000 C 
ENDBRANCH  28  30
ENDBRANCH   6  28
TORSDOF 8
ENDMDL
MODEL 3
REMARK VINA RESULT:      -8.0      1.757      4.112
REMARK  Name = 
REMARK  10 active torsions:
REMARK  status: ('A' for Active; 'I' for Inactive)
REMARK    1  A    between atoms: C_1  and  C_2
REMARK    2  A    between atoms: C_2  and  C_3
REMARK    3  A    between atoms: C_2  and  O_4
REMARK    4  A    between atoms: C_2  and  C_5
REMARK    5  A    between atoms: C_5  and  C_6
REMARK    6  A    between atoms: C_6  and  N_7
REMARK    7  A    between atoms: C_8  and  C_10
REMARK    8  A    between atoms: C_13  and  N_14
REMARK    9  A    between atoms: C_25  and  N_26
REMARK   10  A    between atoms: N_26  and  C_27
REMARK                            x       y       z     vdW  Elec       q    Type
REMARK                         _______ _______ _______ _____ _____    ______ ____
ROOT
ATOM      1  C   UNL     1       3.349   6.754  18.508  0.00  0.00    +0.000 A 
ATOM      2  C   UNL     1       3.323   7.661  17.468  0.00  0.00    +0.000 A 
ATOM      3  N   UNL     1       2.476   8.713  17.407  0.00  0.00    +0.000 NA
ATOM      4  C   UNL     1       1.571   8.842  18.412  0.00  0.00    +0.000 A 
ATOM      5  C   UNL     1       1.388   7.886  19.394  0.00  0.00    +0.000 A 
ATOM      6  C   UNL     1       2.392   6.881  19.531  0.00  0.00    +0.000 A 
ENDROOT
BRANCH   4   7
ATOM      7  N   UNL     1       0.978  10.126  18.548  0.00  0.00    +0.000 N 
ATOM      8  C   UNL     1       1.514  11.090  19.387  0.00  0.00    +0.000 A 
ATOM      9  C   UNL     1       0.804  12.230  19.127  0.00  0.00    +0.000 A 
ATOM     10  C   UNL     1      -0.493  11.740  18.927  0.00  0.00    +0.000 A 
ATOM     11  C   UNL     1      -1.803  12.146  19.209  0.00  0.00    +0.000 A 
ATOM     12  C   UNL     1      -2.819  11.471  18.546  0.00  0.00    +0.000 A 
ATOM     13 CL   UNL     1      -4.461  11.813  18.910  0.00  0.00    +0.000 Cl
ATOM     14  C   UNL     1      -2.480  10.510  17.601  0.00  0.00    +0.000 A 
ATOM     15  N   UNL     1      -1.239   9.981  17.409  0.00  0.00    +0.000 NA
ATOM     16  C   UNL     1      -0.296  10.579  18.178  0.00  0.00    +0.000 A 
ENDBRANCH   4   7
BRANCH   1  18
ATOM     17  N   UNL     1       4.522   5.017  17.233  0.00  0.00    +0.000 N 
ATOM     18  C   UNL     1       4.435   5.750  18.401  0.00  0.00    +0.000 C 
ATOM     19  O   UNL     1       5.236   5.613  19.356  0.00  0.00    +0.000 OA
ATOM     20  H   UNL     1       3.816   5.171  16.517  0.00  0.00    +0.000 HD
BRANCH  17  21
ATOM     21  C   UNL     1       5.568   4.044  17.019  0.00  0.00    +0.000 C 
BRANCH  21  22
ATOM     22  C   UNL     1       6.705   4.530  16.124  0.00  0.00    +0.000 C 
BRANCH  22  24
ATOM     23  C   UNL     1       5.476   3.971  13.958  0.00  0.00    +0.000 C 
ATOM     24  C   UNL     1       6.374   4.974  14.688  0.00  0.00    +0.000 C 
ATOM     25  C   UNL     1       7.607   5.296  13.843  0.00  0.00    +0.000 C 
BRANCH  24  26
ATOM     26  O   UNL     1       5.623   6.195  14.823  0.00  0.00    +0.000 OA
ATOM     27  H   UNL     1       6.007   6.708  15.556  0.00  0.00    +0.000 HD
ENDBRANCH  24  26
ENDBRANCH  22  24
ENDBRANCH  21  22
ENDBRANCH  17  21
ENDBRANCH   1  18
BRANCH   6  28
ATOM     28  N   UNL     1       2.427   6.106  20.714  0.00  0.00    +0.000 N 
ATOM     29  H   UNL     1       2.230   6.700  21.520  0.00  0.00    +0.000 HD
BRANCH  28  30
ATOM     30  C   UNL     1       1.609   4.870  20.761  0.00  0.00    +0.000 C 
ATOM     31  C   UNL     1       2.229   3.812  21.694  0.00  0.00    +0.000 C 
ATOM     32  C   UNL     1       1.636   2.427  21.481  0.00  0.00    +0.000 C 
ATOM     33  O   UNL     1       1.647   2.073  20.102  0.00  0.00    +0.000 OA
ATOM     34  C   UNL     1       0.843   2.956  19.327  0.00  0.00    +0.000 C 
ATOM     35  C   UNL     1       1.450   4.348  19.330  0.00  0.00    +0.000 C 
ENDBRANCH  28  30
ENDBRANCH   6  28
TORSDOF 8
ENDMDL
MODEL 4
REMARK VINA RESULT:      -8.0      2.267      4.406
REMARK  Name = 
REMARK  10 active torsions:
REMARK  status: ('A' for Active; 'I' for Inactive)
REMARK    1  A    between atoms: C_1  and  C_2
REMARK    2  A    between atoms: C_2  and  C_3
REMARK    3  A    between atoms: C_2  and  O_4
REMARK    4  A    between atoms: C_2  and  C_5
REMARK    5  A    between atoms: C_5  and  C_6
REMARK    6  A    between atoms: C_6  and  N_7
REMARK    7  A    between atoms: C_8  and  C_10
REMARK    8  A    between atoms: C_13  and  N_14
REMARK    9  A    between atoms: C_25  and  N_26
REMARK   10  A    between atoms: N_26  and  C_27
REMARK                            x       y       z     vdW  Elec       q    Type
REMARK                         _______ _______ _______ _____ _____    ______ ____
ROOT
ATOM      1  C   UNL     1       2.819   6.459  19.497  0.00  0.00    +0.000 A 
ATOM      2  C   UNL     1       2.532   7.708  18.984  0.00  0.00    +0.000 A 
ATOM      3  N   UNL     1       1.669   8.577  19.556  0.00  0.00    +0.000 NA
ATOM      4  C   UNL     1       1.018   8.162  20.675  0.00  0.00    +0.000 A 
ATOM      5  C   UNL     1       1.091   6.868  21.157  0.00  0.00    +0.000 A 
ATOM      6  C   UNL     1       2.123   6.028  20.641  0.00  0.00    +0.000 A 
ENDROOT
BRANCH   4   7
ATOM      7  N   UNL     1       0.443   9.188  21.471  0.00  0.00    +0.000 N 
ATOM      8  C   UNL     1      -0.497   8.909  22.451  0.00  0.00    +0.000 A 
ATOM      9  C   UNL     1      -0.683  10.088  23.119  0.00  0.00    +0.000 A 
ATOM     10  C   UNL     1      -0.618  11.034  22.088  0.00  0.00    +0.000 A 
ATOM     11  C   UNL     1      -1.242  12.243  21.756  0.00  0.00    +0.000 A 
ATOM     12  C   UNL     1      -0.636  13.005  20.766  0.00  0.00    +0.000 A 
ATOM     13 CL   UNL     1      -1.385  14.443  20.207  0.00  0.00    +0.000 Cl
ATOM     14  C   UNL     1       0.573  12.573  20.233  0.00  0.00    +0.000 A 
ATOM     15  N   UNL     1       1.131  11.342  20.413  0.00  0.00    +0.000 NA
ATOM     16  C   UNL     1       0.430  10.578  21.287  0.00  0.00    +0.000 A 
ENDBRANCH   4   7
BRANCH   1  18
ATOM     17  N   UNL     1       3.582   5.311  17.468  0.00  0.00    +0.000 N 
ATOM     18  C   UNL     1       3.875   5.733  18.750  0.00  0.00    +0.000 C 
ATOM     19  O   UNL     1       4.988   5.542  19.296  0.00  0.00    +0.000 OA
ATOM     20  H   UNL     1       2.645   5.482  17.109  0.00  0.00    +0.000 HD
BRANCH  17  21
ATOM     21  C   UNL     1       4.557   4.630  16.648  0.00  0.00    +0.000 C 
BRANCH  21  22
ATOM     22  C   UNL     1       5.491   5.561  15.878  0.00  0.00    +0.000 C 
BRANCH  22  24
ATOM     23  C   UNL     1       7.420   4.470  17.144  0.00  0.00    +0.000 C 
ATOM     24  C   UNL     1       6.952   5.690  16.346  0.00  0.00    +0.000 C 
ATOM     25  C   UNL     1       7.237   6.975  17.124  0.00  0.00    +0.000 C 
BRANCH  24  26
ATOM     26  O   UNL     1       7.742   5.740  15.143  0.00  0.00    +0.000 OA
ATOM     27  H   UNL     1       8.680   5.661  15.392  0.00  0.00    +0.000 HD
ENDBRANCH  24  26
ENDBRANCH  22  24
ENDBRANCH  21  22
ENDBRANCH  17  21
ENDBRANCH   1  18
BRANCH   6  28
ATOM     28  N   UNL     1       2.450   4.840  21.335  0.00  0.00    +0.000 N 
ATOM     29  H   UNL     1       2.115   4.901  22.297  0.00  0.00    +0.000 HD
BRANCH  28  30
ATOM     30  C   UNL     1       2.060   3.547  20.725  0.00  0.00    +0.000 C 
ATOM     31  C   UNL     1       3.268   2.823  20.100  0.00  0.00    +0.000 C 
ATOM     32  C   UNL     1       2.855   1.703  19.157  0.00  0.00    +0.000 C 
ATOM     33  O   UNL     1       1.892   2.159  18.213  0.00  0.00    +0.000 OA
ATOM     34  C   UNL     1       0.692   2.585  18.851  0.00  0.00    +0.000 C 
ATOM     35  C   UNL     1       0.962   3.820  19.692  0.00  0.00    +0.000 C 
ENDBRANCH  28  30
ENDBRANCH   6  28
TORSDOF 8
ENDMDL
MODEL 5
REMARK VINA RESULT:      -7.9      2.631      5.109
REMARK  Name = 
REMARK  10 active torsions:
REMARK  status: ('A' for Active; 'I' for Inactive)
REMARK    1  A    between atoms: C_1  and  C_2
REMARK    2  A    between atoms: C_2  and  C_3
REMARK    3  A    between atoms: C_2  and  O_4
REMARK    4  A    between atoms: C_2  and  C_5
REMARK    5  A    between atoms: C_5  and  C_6
REMARK    6  A    between atoms: C_6  and  N_7
REMARK    7  A    between atoms: C_8  and  C_10
REMARK    8  A    between atoms: C_13  and  N_14
REMARK    9  A    between atoms: C_25  and  N_26
REMARK   10  A    between atoms: N_26  and  C_27
REMARK                            x       y       z     vdW  Elec       q    Type
REMARK                         _______ _______ _______ _____ _____    ______ ____
ROOT
ATOM      1  C   UNL     1       4.208   5.543  17.063  0.00  0.00    +0.000 A 
ATOM      2  C   UNL     1       4.510   6.870  17.294  0.00  0.00    +0.000 A 
ATOM      3  N   UNL     1       3.724   7.709  18.005  0.00  0.00    +0.000 NA
ATOM      4  C   UNL     1       2.547   7.215  18.471  0.00  0.00    +0.000 A 
ATOM      5  C   UNL     1       2.066   5.963  18.134  0.00  0.00    +0.000 A 
ATOM      6  C   UNL     1       2.976   5.046  17.529  0.00  0.00    +0.000 A 
ENDROOT
BRANCH   4   7
ATOM      7  N   UNL     1       1.940   7.953  19.521  0.00  0.00    +0.000 N 
ATOM      8  C   UNL     1       1.609   7.363  20.730  0.00  0.00    +0.000 A 
ATOM      9  C   UNL     1       1.224   8.394  21.542  0.00  0.00    +0.000 A 
ATOM     10  C   UNL     1       0.533   9.234  20.659  0.00  0.00    +0.000 A 
ATOM     11  C   UNL     1      -0.593  10.065  20.695  0.00  0.00    +0.000 A 
ATOM     12  C   UNL     1      -0.740  10.959  19.643  0.00  0.00    +0.000 A 
ATOM     13 CL   UNL     1      -2.145  11.938  19.534  0.00  0.00    +0.000 Cl
ATOM     14  C   UNL     1       0.261  11.033  18.681  0.00  0.00    +0.000 A 
ATOM     15  N   UNL     1       1.285  10.147  18.525  0.00  0.00    +0.000 NA
ATOM     16  C   UNL     1       1.311   9.207  19.501  0.00  0.00    +0.000 A 
ENDBRANCH   4   7
BRANCH   1  18
ATOM     17  N   UNL     1       5.538   5.154  15.040  0.00  0.00    +0.000 N 
ATOM     18  C   UNL     1       5.274   4.800  16.349  0.00  0.00    +0.000 C 
ATOM     19  O   UNL     1       5.901   3.899  16.954  0.00  0.00    +0.000 OA
ATOM     20  H   UNL     1       4.965   5.879  14.614  0.00  0.00    +0.000 HD
BRANCH  17  21
ATOM     21  C   UNL     1       6.583   4.516  14.274  0.00  0.00    +0.000 C 
BRANCH  21  22
ATOM     22  C   UNL     1       6.161   3.214  13.596  0.00  0.00    +0.000 C 
BRANCH  22  24
ATOM     23  C   UNL     1       4.651   3.456  11.553  0.00  0.00    +0.000 C 
ATOM     24  C   UNL     1       6.069   3.179  12.060  0.00  0.00    +0.000 C 
ATOM     25  C   UNL     1       6.613   1.892  11.440  0.00  0.00    +0.000 C 
BRANCH  24  26
ATOM     26  O   UNL     1       6.903   4.257  11.597  0.00  0.00    +0.000 OA
ATOM     27  H   UNL     1       7.219   4.035  10.703  0.00  0.00    +0.000 HD
ENDBRANCH  24  26
ENDBRANCH  22  24
ENDBRANCH  21  22
ENDBRANCH  17  21
ENDBRANCH   1  18
BRANCH   6  28
ATOM     28  N   UNL     1       2.638   3.674  17.484  0.00  0.00    +0.000 N 
ATOM     29  H   UNL     1       3.306   3.175  16.895  0.00  0.00    +0.000 HD
BRANCH  28  30
ATOM     30  C   UNL     1       2.440   2.963  18.770  0.00  0.00    +0.000 C 
ATOM     31  C   UNL     1       1.180   3.457  19.506  0.00  0.00    +0.000 C 
ATOM     32  C   UNL     1       1.153   3.032  20.967  0.00  0.00    +0.000 C 
ATOM     33  O   UNL     1       2.377   3.356  21.617  0.00  0.00    +0.000 OA
ATOM     34  C   UNL     1       3.479   2.664  21.037  0.00  0.00    +0.000 C 
ATOM     35  C   UNL     1       3.704   3.147  19.615  0.00  0.00    +0.000 C 
ENDBRANCH  28  30
ENDBRANCH   6  28
TORSDOF 8
ENDMDL
MODEL 6
REMARK VINA RESULT:      -7.8      2.576      5.278
REMARK  Name = 
REMARK  10 active torsions:
REMARK  status: ('A' for Active; 'I' for Inactive)
REMARK    1  A    between atoms: C_1  and  C_2
REMARK    2  A    between atoms: C_2  and  C_3
REMARK    3  A    between atoms: C_2  and  O_4
REMARK    4  A    between atoms: C_2  and  C_5
REMARK    5  A    between atoms: C_5  and  C_6
REMARK    6  A    between atoms: C_6  and  N_7
REMARK    7  A    between atoms: C_8  and  C_10
REMARK    8  A    between atoms: C_13  and  N_14
REMARK    9  A    between atoms: C_25  and  N_26
REMARK   10  A    between atoms: N_26  and  C_27
REMARK                            x       y       z     vdW  Elec       q    Type
REMARK                         _______ _______ _______ _____ _____    ______ ____
ROOT
ATOM      1  C   UNL     1       4.822   5.551  16.764  0.00  0.00    +0.000 A 
ATOM      2  C   UNL     1       4.860   6.925  16.889  0.00  0.00    +0.000 A 
ATOM      3  N   UNL     1       3.965   7.643  17.604  0.00  0.00    +0.000 NA
ATOM      4  C   UNL     1       2.946   6.960  18.190  0.00  0.00    +0.000 A 
ATOM      5  C   UNL     1       2.710   5.616  17.969  0.00  0.00    +0.000 A 
ATOM      6  C   UNL     1       3.749   4.855  17.353  0.00  0.00    +0.000 A 
ENDROOT
BRANCH   4   7
ATOM      7  N   UNL     1       2.268   7.640  19.235  0.00  0.00    +0.000 N 
ATOM      8  C   UNL     1       1.893   6.993  20.402  0.00  0.00    +0.000 A 
ATOM      9  C   UNL     1       1.440   7.981  21.233  0.00  0.00    +0.000 A 
ATOM     10  C   UNL     1       0.772   8.838  20.350  0.00  0.00    +0.000 A 
ATOM     11  C   UNL     1      -0.376   9.639  20.361  0.00  0.00    +0.000 A 
ATOM     12  C   UNL     1      -0.493  10.572  19.339  0.00  0.00    +0.000 A 
ATOM     13 CL   UNL     1      -1.917  11.519  19.197  0.00  0.00    +0.000 Cl
ATOM     14  C   UNL     1       0.552  10.709  18.433  0.00  0.00    +0.000 A 
ATOM     15  N   UNL     1       1.605   9.856  18.295  0.00  0.00    +0.000 NA
ATOM     16  C   UNL     1       1.607   8.878  19.233  0.00  0.00    +0.000 A 
ENDBRANCH   4   7
BRANCH   1  18
ATOM     17  N   UNL     1       6.155   5.396  14.712  0.00  0.00    +0.000 N 
ATOM     18  C   UNL     1       5.970   4.984  16.017  0.00  0.00    +0.000 C 
ATOM     19  O   UNL     1       6.732   4.171  16.593  0.00  0.00    +0.000 OA
ATOM     20  H   UNL     1       5.475   6.039  14.311  0.00  0.00    +0.000 HD
BRANCH  17  21
ATOM     21  C   UNL     1       7.266   4.930  13.915  0.00  0.00    +0.000 C 
BRANCH  21  22
ATOM     22  C   UNL     1       6.893   4.521  12.492  0.00  0.00    +0.000 C 
BRANCH  22  24
ATOM     23  C   UNL     1       6.728   2.185  11.476  0.00  0.00    +0.000 C 
ATOM     24  C   UNL     1       6.019   3.270  12.291  0.00  0.00    +0.000 C 
ATOM     25  C   UNL     1       4.644   3.571  11.693  0.00  0.00    +0.000 C 
BRANCH  24  26
ATOM     26  O   UNL     1       5.798   2.735  13.609  0.00  0.00    +0.000 OA
ATOM     27  H   UNL     1       6.014   1.786  13.592  0.00  0.00    +0.000 HD
ENDBRANCH  24  26
ENDBRANCH  22  24
ENDBRANCH  21  22
ENDBRANCH  17  21
ENDBRANCH   1  18
BRANCH   6  28
ATOM     28  N   UNL     1       3.696   3.444  17.419  0.00  0.00    +0.000 N 
ATOM     29  H   UNL     1       4.641   3.062  17.361  0.00  0.00    +0.000 HD
BRANCH  28  30
ATOM     30  C   UNL     1       2.950   2.827  18.541  0.00  0.00    +0.000 C 
ATOM     31  C   UNL     1       1.434   3.078  18.424  0.00  0.00    +0.000 C 
ATOM     32  C   UNL     1       0.693   2.794  19.722  0.00  0.00    +0.000 C 
ATOM     33  O   UNL     1       1.314   3.452  20.820  0.00  0.00    +0.000 OA
ATOM     34  C   UNL     1       2.643   2.986  21.029  0.00  0.00    +0.000 C 
ATOM     35  C   UNL     1       3.520   3.376  19.852  0.00  0.00    +0.000 C 
ENDBRANCH  28  30
ENDBRANCH   6  28
TORSDOF 8
ENDMDL
MODEL 7
REMARK VINA RESULT:      -7.8      1.878      4.209
REMARK  Name = 
REMARK  10 active torsions:
REMARK  status: ('A' for Active; 'I' for Inactive)
REMARK    1  A    between atoms: C_1  and  C_2
REMARK    2  A    between atoms: C_2  and  C_3
REMARK    3  A    between atoms: C_2  and  O_4
REMARK    4  A    between atoms: C_2  and  C_5
REMARK    5  A    between atoms: C_5  and  C_6
REMARK    6  A    between atoms: C_6  and  N_7
REMARK    7  A    between atoms: C_8  and  C_10
REMARK    8  A    between atoms: C_13  and  N_14
REMARK    9  A    between atoms: C_25  and  N_26
REMARK   10  A    between atoms: N_26  and  C_27
REMARK                            x       y       z     vdW  Elec       q    Type
REMARK                         _______ _______ _______ _____ _____    ______ ____
ROOT
ATOM      1  C   UNL     1       2.766   7.345  18.264  0.00  0.00    +0.000 A 
ATOM      2  C   UNL     1       2.374   8.460  17.552  0.00  0.00    +0.000 A 
ATOM      3  N   UNL     1       1.571   9.428  18.048  0.00  0.00    +0.000 NA
ATOM      4  C   UNL     1       1.090   9.252  19.307  0.00  0.00    +0.000 A 
ATOM      5  C   UNL     1       1.266   8.086  20.029  0.00  0.00    +0.000 A 
ATOM      6  C   UNL     1       2.243   7.159  19.557  0.00  0.00    +0.000 A 
ENDROOT
BRANCH   4   7
ATOM      7  N   UNL     1       0.598  10.419  19.949  0.00  0.00    +0.000 N 
ATOM      8  C   UNL     1       0.971  10.753  21.241  0.00  0.00    +0.000 A 
ATOM      9  C   UNL     1       0.459  12.004  21.453  0.00  0.00    +0.000 A 
ATOM     10  C   UNL     1      -0.774  11.943  20.792  0.00  0.00    +0.000 A 
ATOM     11  C   UNL     1      -2.071  12.435  20.981  0.00  0.00    +0.000 A 
ATOM     12  C   UNL     1      -2.927  12.369  19.890  0.00  0.00    +0.000 A 
ATOM     13 CL   UNL     1      -4.570  12.838  20.053  0.00  0.00    +0.000 Cl
ATOM     14  C   UNL     1      -2.432  11.906  18.676  0.00  0.00    +0.000 A 
ATOM     15  N   UNL     1      -1.236  11.281  18.489  0.00  0.00    +0.000 NA
ATOM     16  C   UNL     1      -0.486  11.246  19.617  0.00  0.00    +0.000 A 
ENDBRANCH   4   7
BRANCH   1  18
ATOM     17  N   UNL     1       4.933   7.043  17.157  0.00  0.00    +0.000 N 
ATOM     18  C   UNL     1       3.732   6.481  17.543  0.00  0.00    +0.000 C 
ATOM     19  O   UNL     1       3.435   5.283  17.324  0.00  0.00    +0.000 OA
ATOM     20  H   UNL     1       5.085   8.031  17.350  0.00  0.00    +0.000 HD
BRANCH  17  21
ATOM     21  C   UNL     1       5.954   6.274  16.485  0.00  0.00    +0.000 C 
BRANCH  21  22
ATOM     22  C   UNL     1       7.277   6.184  17.242  0.00  0.00    +0.000 C 
BRANCH  22  24
ATOM     23  C   UNL     1       6.124   4.366  18.613  0.00  0.00    +0.000 C 
ATOM     24  C   UNL     1       7.439   5.091  18.314  0.00  0.00    +0.000 C 
ATOM     25  C   UNL     1       8.078   5.591  19.610  0.00  0.00    +0.000 C 
BRANCH  24  26
ATOM     26  O   UNL     1       8.339   4.121  17.745  0.00  0.00    +0.000 OA
ATOM     27  H   UNL     1       8.441   3.392  18.381  0.00  0.00    +0.000 HD
ENDBRANCH  24  26
ENDBRANCH  22  24
ENDBRANCH  21  22
ENDBRANCH  17  21
ENDBRANCH   1  18
BRANCH   6  28
ATOM     28  N   UNL     1       2.697   6.140  20.427  0.00  0.00    +0.000 N 
ATOM     29  H   UNL     1       3.020   6.554  21.302  0.00  0.00    +0.000 HD
BRANCH  28  30
ATOM     30  C   UNL     1       1.791   4.996  20.692  0.00  0.00    +0.000 C 
ATOM     31  C   UNL     1       2.420   3.986  21.671  0.00  0.00    +0.000 C 
ATOM     32  C   UNL     1       1.698   2.647  21.672  0.00  0.00    +0.000 C 
ATOM     33  O   UNL     1       1.531   2.155  20.347  0.00  0.00    +0.000 OA
ATOM     34  C   UNL     1       0.722   3.025  19.561  0.00  0.00    +0.000 C 
ATOM     35  C   UNL     1       1.437   4.348  19.351  0.00  0.00    +0.000 C 
ENDBRANCH  28  30
ENDBRANCH   6  28
TORSDOF 8
ENDMDL
MODEL 8
REMARK VINA RESULT:      -7.8      1.909      4.255
REMARK  Name = 
REMARK  10 active torsions:
REMARK  status: ('A' for Active; 'I' for Inactive)
REMARK    1  A    between atoms: C_1  and  C_2
REMARK    2  A    between atoms: C_2  and  C_3
REMARK    3  A    between atoms: C_2  and  O_4
REMARK    4  A    between atoms: C_2  and  C_5
REMARK    5  A    between atoms: C_5  and  C_6
REMARK    6  A    between atoms: C_6  and  N_7
REMARK    7  A    between atoms: C_8  and  C_10
REMARK    8  A    between atoms: C_13  and  N_14
REMARK    9  A    between atoms: C_25  and  N_26
REMARK   10  A    between atoms: N_26  and  C_27
REMARK                            x       y       z     vdW  Elec       q    Type
REMARK                         _______ _______ _______ _____ _____    ______ ____
ROOT
ATOM      1  C   UNL     1       2.956   7.470  18.492  0.00  0.00    +0.000 A 
ATOM      2  C   UNL     1       2.622   8.613  17.794  0.00  0.00    +0.000 A 
ATOM      3  N   UNL     1       1.710   9.516  18.217  0.00  0.00    +0.000 NA
ATOM      4  C   UNL     1       1.057   9.243  19.378  0.00  0.00    +0.000 A 
ATOM      5  C   UNL     1       1.179   8.041  20.050  0.00  0.00    +0.000 A 
ATOM      6  C   UNL     1       2.257   7.183  19.680  0.00  0.00    +0.000 A 
ENDROOT
BRANCH   4   7
ATOM      7  N   UNL     1       0.421  10.349  20.002  0.00  0.00    +0.000 N 
ATOM      8  C   UNL     1       0.580  10.612  21.354  0.00  0.00    +0.000 A 
ATOM      9  C   UNL     1      -0.014  11.827  21.557  0.00  0.00    +0.000 A 
ATOM     10  C   UNL     1      -1.130  11.765  20.713  0.00  0.00    +0.000 A 
ATOM     11  C   UNL     1      -2.461  12.197  20.729  0.00  0.00    +0.000 A 
ATOM     12  C   UNL     1      -3.139  12.171  19.517  0.00  0.00    +0.000 A 
ATOM     13 CL   UNL     1      -4.807  12.569  19.454  0.00  0.00    +0.000 Cl
ATOM     14  C   UNL     1      -2.446  11.805  18.369  0.00  0.00    +0.000 A 
ATOM     15  N   UNL     1      -1.208  11.236  18.331  0.00  0.00    +0.000 NA
ATOM     16  C   UNL     1      -0.636  11.156  19.558  0.00  0.00    +0.000 A 
ENDBRANCH   4   7
BRANCH   1  18
ATOM     17  N   UNL     1       4.711   7.246  16.794  0.00  0.00    +0.000 N 
ATOM     18  C   UNL     1       4.057   6.691  17.877  0.00  0.00    +0.000 C 
ATOM     19  O   UNL     1       4.362   5.576  18.363  0.00  0.00    +0.000 OA
ATOM     20  H   UNL     1       4.384   8.144  16.445  0.00  0.00    +0.000 HD
BRANCH  17  21
ATOM     21  C   UNL     1       5.822   6.582  16.152  0.00  0.00    +0.000 C 
BRANCH  21  22
ATOM     22  C   UNL     1       5.427   5.684  14.981  0.00  0.00    +0.000 C 
BRANCH  22  24
ATOM     23  C   UNL     1       6.010   3.788  13.376  0.00  0.00    +0.000 C 
ATOM     24  C   UNL     1       6.175   4.353  14.789  0.00  0.00    +0.000 C 
ATOM     25  C   UNL     1       5.820   3.291  15.831  0.00  0.00    +0.000 C 
BRANCH  24  26
ATOM     26  O   UNL     1       7.570   4.664  14.962  0.00  0.00    +0.000 OA
ATOM     27  H   UNL     1       7.810   5.353  14.318  0.00  0.00    +0.000 HD
ENDBRANCH  24  26
ENDBRANCH  22  24
ENDBRANCH  21  22
ENDBRANCH  17  21
ENDBRANCH   1  18
BRANCH   6  28
ATOM     28  N   UNL     1       2.624   6.130  20.549  0.00  0.00    +0.000 N 
ATOM     29  H   UNL     1       2.841   6.507  21.472  0.00  0.00    +0.000 HD
BRANCH  28  30
ATOM     30  C   UNL     1       1.710   4.968  20.659  0.00  0.00    +0.000 C 
ATOM     31  C   UNL     1       2.247   3.911  21.644  0.00  0.00    +0.000 C 
ATOM     32  C   UNL     1       1.544   2.570  21.501  0.00  0.00    +0.000 C 
ATOM     33  O   UNL     1       1.521   2.147  20.142  0.00  0.00    +0.000 OA
ATOM     34  C   UNL     1       0.787   3.051  19.323  0.00  0.00    +0.000 C 
ATOM     35  C   UNL     1       1.504   4.388  19.256  0.00  0.00    +0.000 C 
ENDBRANCH  28  30
ENDBRANCH   6  28
TORSDOF 8
ENDMDL
MODEL 9
REMARK VINA RESULT:      -7.7      2.438      4.511
REMARK  Name = 
REMARK  10 active torsions:
REMARK  status: ('A' for Active; 'I' for Inactive)
REMARK    1  A    between atoms: C_1  and  C_2
REMARK    2  A    between atoms: C_2  and  C_3
REMARK    3  A    between atoms: C_2  and  O_4
REMARK    4  A    between atoms: C_2  and  C_5
REMARK    5  A    between atoms: C_5  and  C_6
REMARK    6  A    between atoms: C_6  and  N_7
REMARK    7  A    between atoms: C_8  and  C_10
REMARK    8  A    between atoms: C_13  and  N_14
REMARK    9  A    between atoms: C_25  and  N_26
REMARK   10  A    between atoms: N_26  and  C_27
REMARK                            x       y       z     vdW  Elec       q    Type
REMARK                         _______ _______ _______ _____ _____    ______ ____
ROOT
ATOM      1  C   UNL     1       2.705   7.383  18.342  0.00  0.00    +0.000 A 
ATOM      2  C   UNL     1       2.302   8.550  17.724  0.00  0.00    +0.000 A 
ATOM      3  N   UNL     1       1.556   9.503  18.326  0.00  0.00    +0.000 NA
ATOM      4  C   UNL     1       1.147   9.261  19.599  0.00  0.00    +0.000 A 
ATOM      5  C   UNL     1       1.333   8.048  20.236  0.00  0.00    +0.000 A 
ATOM      6  C   UNL     1       2.255   7.130  19.651  0.00  0.00    +0.000 A 
ENDROOT
BRANCH   4   7
ATOM      7  N   UNL     1       0.725  10.397  20.338  0.00  0.00    +0.000 N 
ATOM      8  C   UNL     1      -0.257  10.309  21.313  0.00  0.00    +0.000 A 
ATOM      9  C   UNL     1      -0.270  11.532  21.925  0.00  0.00    +0.000 A 
ATOM     10  C   UNL     1      -0.051  12.409  20.855  0.00  0.00    +0.000 A 
ATOM     11  C   UNL     1      -0.482  13.681  20.459  0.00  0.00    +0.000 A 
ATOM     12  C   UNL     1       0.242  14.296  19.447  0.00  0.00    +0.000 A 
ATOM     13 CL   UNL     1      -0.275  15.804  18.811  0.00  0.00    +0.000 Cl
ATOM     14  C   UNL     1       1.378  13.664  18.955  0.00  0.00    +0.000 A 
ATOM     15  N   UNL     1       1.741  12.373  19.199  0.00  0.00    +0.000 NA
ATOM     16  C   UNL     1       0.924  11.764  20.092  0.00  0.00    +0.000 A 
ENDBRANCH   4   7
BRANCH   1  18
ATOM     17  N   UNL     1       4.710   7.148  16.951  0.00  0.00    +0.000 N 
ATOM     18  C   UNL     1       3.603   6.544  17.512  0.00  0.00    +0.000 C 
ATOM     19  O   UNL     1       3.337   5.328  17.364  0.00  0.00    +0.000 OA
ATOM     20  H   UNL     1       4.839   8.147  17.099  0.00  0.00    +0.000 HD
BRANCH  17  21
ATOM     21  C   UNL     1       5.664   6.406  16.160  0.00  0.00    +0.000 C 
BRANCH  21  22
ATOM     22  C   UNL     1       6.222   5.163  16.849  0.00  0.00    +0.000 C 
BRANCH  22  24
ATOM     23  C   UNL     1       6.226   5.155  19.401  0.00  0.00    +0.000 C 
ATOM     24  C   UNL     1       7.058   5.343  18.129  0.00  0.00    +0.000 C 
ATOM     25  C   UNL     1       7.822   6.666  18.184  0.00  0.00    +0.000 C 
BRANCH  24  26
ATOM     26  O   UNL     1       8.039   4.289  18.104  0.00  0.00    +0.000 OA
ATOM     27  H   UNL     1       8.404   4.235  17.203  0.00  0.00    +0.000 HD
ENDBRANCH  24  26
ENDBRANCH  22  24
ENDBRANCH  21  22
ENDBRANCH  17  21
ENDBRANCH   1  18
BRANCH   6  28
ATOM     28  N   UNL     1       2.731   6.048  20.428  0.00  0.00    +0.000 N 
ATOM     29  H   UNL     1       3.138   6.402  21.295  0.00  0.00    +0.000 HD
BRANCH  28  30
ATOM     30  C   UNL     1       1.802   4.927  20.705  0.00  0.00    +0.000 C 
ATOM     31  C   UNL     1       2.417   3.904  21.679  0.00  0.00    +0.000 C 
ATOM     32  C   UNL     1       1.664   2.582  21.691  0.00  0.00    +0.000 C 
ATOM     33  O   UNL     1       1.472   2.092  20.368  0.00  0.00    +0.000 OA
ATOM     34  C   UNL     1       0.676   2.979  19.589  0.00  0.00    +0.000 C 
ATOM     35  C   UNL     1       1.420   4.284  19.368  0.00  0.00    +0.000 C 
ENDBRANCH  28  30
ENDBRANCH   6  28
TORSDOF 8
ENDMDL
