MODEL 1
REMARK VINA RESULT:      -7.1      0.000      0.000
REMARK  Name = 
REMARK  3 active torsions:
REMARK  status: ('A' for Active; 'I' for Inactive)
REMARK    1  A    between atoms: C_1  and  C_2
REMARK    2  A    between atoms: C_6  and  C_7
REMARK    3  A    between atoms: C_14  and  C_15
REMARK                            x       y       z     vdW  Elec       q    Type
REMARK                         _______ _______ _______ _____ _____    ______ ____
ROOT
ATOM      1  C   UNL     1       6.378   4.446  15.300  0.00  0.00    +0.000 C 
ATOM      2  C   UNL     1       5.650   4.270  16.602  0.00  0.00    +0.000 A 
ATOM      3  N   UNL     1       4.329   3.967  16.493  0.00  0.00    +0.000 NA
ATOM      4  C   UNL     1       3.716   3.815  17.687  0.00  0.00    +0.000 A 
ATOM      5  N   UNL     1       2.403   3.509  17.898  0.00  0.00    +0.000 NA
ATOM      6  C   UNL     1       2.262   3.462  19.218  0.00  0.00    +0.000 A 
ATOM      7  N   UNL     1       3.459   3.739  19.849  0.00  0.00    +0.000 N 
ATOM      8  C   UNL     1       4.396   3.964  18.885  0.00  0.00    +0.000 A 
ATOM      9  N   UNL     1       5.698   4.263  19.049  0.00  0.00    +0.000 NA
ATOM     10  C   UNL     1       6.316   4.414  17.839  0.00  0.00    +0.000 A 
ATOM     11  C   UNL     1       7.780   4.748  17.892  0.00  0.00    +0.000 C 
ATOM     12  H   UNL     1       3.628   3.769  20.843  0.00  0.00    +0.000 HD
ENDROOT
BRANCH   6  13
ATOM     13  C   UNL     1       1.041   3.159  20.016  0.00  0.00    +0.000 C 
ATOM     14  F   UNL     1       1.286   2.409  21.117  0.00  0.00    +0.000 F 
ATOM     15  F   UNL     1       0.432   4.299  20.435  0.00  0.00    +0.000 F 
ATOM     16  F   UNL     1       0.121   2.489  19.272  0.00  0.00    +0.000 F 
ENDBRANCH   6  13
TORSDOF 1
ENDMDL
MODEL 2
REMARK VINA RESULT:      -7.1      0.097      1.870
REMARK  Name = 
REMARK  3 active torsions:
REMARK  status: ('A' for Active; 'I' for Inactive)
REMARK    1  A    between atoms: C_1  and  C_2
REMARK    2  A    between atoms: C_6  and  C_7
REMARK    3  A    between atoms: C_14  and  C_15
REMARK                            x       y       z     vdW  Elec       q    Type
REMARK                         _______ _______ _______ _____ _____    ______ ____
ROOT
ATOM      1  C   UNL     1       7.743   4.768  17.893  0.00  0.00    +0.000 C 
ATOM      2  C   UNL     1       6.284   4.414  17.839  0.00  0.00    +0.000 A 
ATOM      3  N   UNL     1       5.676   4.265  19.046  0.00  0.00    +0.000 NA
ATOM      4  C   UNL     1       4.367   3.950  18.949  0.00  0.00    +0.000 A 
ATOM      5  N   UNL     1       3.498   3.741  19.981  0.00  0.00    +0.000 NA
ATOM      6  C   UNL     1       2.333   3.464  19.407  0.00  0.00    +0.000 A 
ATOM      7  N   UNL     1       2.446   3.487  18.031  0.00  0.00    +0.000 N 
ATOM      8  C   UNL     1       3.738   3.798  17.725  0.00  0.00    +0.000 A 
ATOM      9  N   UNL     1       4.290   3.933  16.505  0.00  0.00    +0.000 NA
ATOM     10  C   UNL     1       5.614   4.254  16.606  0.00  0.00    +0.000 A 
ATOM     11  C   UNL     1       6.343   4.435  15.305  0.00  0.00    +0.000 C 
ATOM     12  H   UNL     1       1.715   3.312  17.359  0.00  0.00    +0.000 HD
ENDROOT
BRANCH   6  13
ATOM     13  C   UNL     1       1.024   3.162  20.052  0.00  0.00    +0.000 C 
ATOM     14  F   UNL     1       1.134   2.411  21.174  0.00  0.00    +0.000 F 
ATOM     15  F   UNL     1       0.371   4.303  20.398  0.00  0.00    +0.000 F 
ATOM     16  F   UNL     1       0.199   2.495  19.202  0.00  0.00    +0.000 F 
ENDBRANCH   6  13
TORSDOF 1
ENDMDL
MODEL 3
REMARK VINA RESULT:      -7.0      3.706      5.408
REMARK  Name = 
REMARK  3 active torsions:
REMARK  status: ('A' for Active; 'I' for Inactive)
REMARK    1  A    between atoms: C_1  and  C_2
REMARK    2  A    between atoms: C_6  and  C_7
REMARK    3  A    between atoms: C_14  and  C_15
REMARK                            x       y       z     vdW  Elec       q    Type
REMARK                         _______ _______ _______ _____ _____    ______ ____
ROOT
ATOM      1  C   UNL     1       0.496   2.722  18.834  0.00  0.00    +0.000 C 
ATOM      2  C   UNL     1       1.958   3.059  18.913  0.00  0.00    +0.000 A 
ATOM      3  N   UNL     1       2.542   3.395  17.732  0.00  0.00    +0.000 NA
ATOM      4  C   UNL     1       3.854   3.693  17.851  0.00  0.00    +0.000 A 
ATOM      5  N   UNL     1       4.701   4.065  16.849  0.00  0.00    +0.000 NA
ATOM      6  C   UNL     1       5.877   4.256  17.436  0.00  0.00    +0.000 A 
ATOM      7  N   UNL     1       5.794   4.005  18.792  0.00  0.00    +0.000 N 
ATOM      8  C   UNL     1       4.509   3.647  19.071  0.00  0.00    +0.000 A 
ATOM      9  N   UNL     1       3.981   3.322  20.265  0.00  0.00    +0.000 NA
ATOM     10  C   UNL     1       2.653   3.024  20.142  0.00  0.00    +0.000 A 
ATOM     11  C   UNL     1       1.948   2.646  21.415  0.00  0.00    +0.000 C 
ATOM     12  H   UNL     1       6.539   4.074  19.468  0.00  0.00    +0.000 HD
ENDROOT
BRANCH   6  13
ATOM     13  C   UNL     1       7.167   4.683  16.825  0.00  0.00    +0.000 C 
ATOM     14  F   UNL     1       7.342   6.027  16.816  0.00  0.00    +0.000 F 
ATOM     15  F   UNL     1       8.226   4.146  17.485  0.00  0.00    +0.000 F 
ATOM     16  F   UNL     1       7.266   4.258  15.537  0.00  0.00    +0.000 F 
ENDBRANCH   6  13
TORSDOF 1
ENDMDL
MODEL 4
REMARK VINA RESULT:      -6.9      4.994      6.358
REMARK  Name = 
REMARK  3 active torsions:
REMARK  status: ('A' for Active; 'I' for Inactive)
REMARK    1  A    between atoms: C_1  and  C_2
REMARK    2  A    between atoms: C_6  and  C_7
REMARK    3  A    between atoms: C_14  and  C_15
REMARK                            x       y       z     vdW  Elec       q    Type
REMARK                         _______ _______ _______ _____ _____    ______ ____
ROOT
ATOM      1  C   UNL     1       5.895   5.101  19.293  0.00  0.00    +0.000 C 
ATOM      2  C   UNL     1       6.297   5.158  17.847  0.00  0.00    +0.000 A 
ATOM      3  N   UNL     1       5.702   4.239  17.041  0.00  0.00    +0.000 NA
ATOM      4  C   UNL     1       6.091   4.329  15.751  0.00  0.00    +0.000 A 
ATOM      5  N   UNL     1       5.668   3.549  14.714  0.00  0.00    +0.000 NA
ATOM      6  C   UNL     1       6.314   4.004  13.647  0.00  0.00    +0.000 A 
ATOM      7  N   UNL     1       7.144   5.054  13.988  0.00  0.00    +0.000 N 
ATOM      8  C   UNL     1       7.010   5.273  15.326  0.00  0.00    +0.000 A 
ATOM      9  N   UNL     1       7.628   6.203  16.079  0.00  0.00    +0.000 NA
ATOM     10  C   UNL     1       7.230   6.111  17.383  0.00  0.00    +0.000 A 
ATOM     11  C   UNL     1       7.851   7.103  18.326  0.00  0.00    +0.000 C 
ATOM     12  H   UNL     1       7.744   5.578  13.369  0.00  0.00    +0.000 HD
ENDROOT
BRANCH   6  13
ATOM     13  C   UNL     1       6.232   3.534  12.236  0.00  0.00    +0.000 C 
ATOM     14  F   UNL     1       4.981   3.591  11.718  0.00  0.00    +0.000 F 
ATOM     15  F   UNL     1       7.034   4.271  11.424  0.00  0.00    +0.000 F 
ATOM     16  F   UNL     1       6.654   2.247  12.121  0.00  0.00    +0.000 F 
ENDBRANCH   6  13
TORSDOF 1
ENDMDL
MODEL 5
REMARK VINA RESULT:      -6.9      4.976      6.520
REMARK  Name = 
REMARK  3 active torsions:
REMARK  status: ('A' for Active; 'I' for Inactive)
REMARK    1  A    between atoms: C_1  and  C_2
REMARK    2  A    between atoms: C_6  and  C_7
REMARK    3  A    between atoms: C_14  and  C_15
REMARK                            x       y       z     vdW  Elec       q    Type
REMARK                         _______ _______ _______ _____ _____    ______ ____
ROOT
ATOM      1  C   UNL     1       7.730   6.694  18.556  0.00  0.00    +0.000 C 
ATOM      2  C   UNL     1       7.144   5.800  17.500  0.00  0.00    +0.000 A 
ATOM      3  N   UNL     1       7.648   5.971  16.249  0.00  0.00    +0.000 NA
ATOM      4  C   UNL     1       7.095   5.145  15.334  0.00  0.00    +0.000 A 
ATOM      5  N   UNL     1       7.396   5.081  14.004  0.00  0.00    +0.000 NA
ATOM      6  C   UNL     1       6.610   4.130  13.513  0.00  0.00    +0.000 A 
ATOM      7  N   UNL     1       5.811   3.593  14.504  0.00  0.00    +0.000 N 
ATOM      8  C   UNL     1       6.112   4.230  15.671  0.00  0.00    +0.000 A 
ATOM      9  N   UNL     1       5.578   4.022  16.889  0.00  0.00    +0.000 NA
ATOM     10  C   UNL     1       6.142   4.856  17.813  0.00  0.00    +0.000 A 
ATOM     11  C   UNL     1       5.628   4.715  19.218  0.00  0.00    +0.000 C 
ATOM     12  H   UNL     1       5.127   2.859  14.401  0.00  0.00    +0.000 HD
ENDROOT
BRANCH   6  13
ATOM     13  C   UNL     1       6.519   3.625  12.114  0.00  0.00    +0.000 C 
ATOM     14  F   UNL     1       7.015   2.374  11.957  0.00  0.00    +0.000 F 
ATOM     15  F   UNL     1       5.231   3.601  11.682  0.00  0.00    +0.000 F 
ATOM     16  F   UNL     1       7.193   4.434  11.254  0.00  0.00    +0.000 F 
ENDBRANCH   6  13
TORSDOF 1
ENDMDL
MODEL 6
REMARK VINA RESULT:      -6.9      5.014      6.435
REMARK  Name = 
REMARK  3 active torsions:
REMARK  status: ('A' for Active; 'I' for Inactive)
REMARK    1  A    between atoms: C_1  and  C_2
REMARK    2  A    between atoms: C_6  and  C_7
REMARK    3  A    between atoms: C_14  and  C_15
REMARK                            x       y       z     vdW  Elec       q    Type
REMARK                         _______ _______ _______ _____ _____    ______ ____
ROOT
ATOM      1  C   UNL     1       5.645   4.864  19.183  0.00  0.00    +0.000 C 
ATOM      2  C   UNL     1       6.147   4.966  17.770  0.00  0.00    +0.000 A 
ATOM      3  N   UNL     1       5.575   4.105  16.887  0.00  0.00    +0.000 NA
ATOM      4  C   UNL     1       6.055   4.234  15.631  0.00  0.00    +0.000 A 
ATOM      5  N   UNL     1       5.676   3.515  14.534  0.00  0.00    +0.000 NA
ATOM      6  C   UNL     1       6.409   3.990  13.534  0.00  0.00    +0.000 A 
ATOM      7  N   UNL     1       7.251   4.992  13.975  0.00  0.00    +0.000 N 
ATOM      8  C   UNL     1       7.034   5.160  15.310  0.00  0.00    +0.000 A 
ATOM      9  N   UNL     1       7.632   6.031  16.143  0.00  0.00    +0.000 NA
ATOM     10  C   UNL     1       7.143   5.901  17.413  0.00  0.00    +0.000 A 
ATOM     11  C   UNL     1       7.734   6.827  18.438  0.00  0.00    +0.000 C 
ATOM     12  H   UNL     1       7.910   5.518  13.422  0.00  0.00    +0.000 HD
ENDROOT
BRANCH   6  13
ATOM     13  C   UNL     1       6.406   3.583  12.100  0.00  0.00    +0.000 C 
ATOM     14  F   UNL     1       6.879   2.330  11.893  0.00  0.00    +0.000 F 
ATOM     15  F   UNL     1       5.152   3.629  11.578  0.00  0.00    +0.000 F 
ATOM     16  F   UNL     1       7.162   4.426  11.348  0.00  0.00    +0.000 F 
ENDBRANCH   6  13
TORSDOF 1
ENDMDL
MODEL 7
REMARK VINA RESULT:      -6.9      3.738      5.728
REMARK  Name = 
REMARK  3 active torsions:
REMARK  status: ('A' for Active; 'I' for Inactive)
REMARK    1  A    between atoms: C_1  and  C_2
REMARK    2  A    between atoms: C_6  and  C_7
REMARK    3  A    between atoms: C_14  and  C_15
REMARK                            x       y       z     vdW  Elec       q    Type
REMARK                         _______ _______ _______ _____ _____    ______ ____
ROOT
ATOM      1  C   UNL     1       1.789   2.836  21.420  0.00  0.00    +0.000 C 
ATOM      2  C   UNL     1       2.610   3.090  20.187  0.00  0.00    +0.000 A 
ATOM      3  N   UNL     1       3.862   3.571  20.411  0.00  0.00    +0.000 NA
ATOM      4  C   UNL     1       4.563   3.781  19.276  0.00  0.00    +0.000 A 
ATOM      5  N   UNL     1       5.840   4.253  19.181  0.00  0.00    +0.000 NA
ATOM      6  C   UNL     1       6.104   4.289  17.880  0.00  0.00    +0.000 A 
ATOM      7  N   UNL     1       5.017   3.854  17.147  0.00  0.00    +0.000 N 
ATOM      8  C   UNL     1       4.028   3.525  18.025  0.00  0.00    +0.000 A 
ATOM      9  N   UNL     1       2.799   3.051  17.748  0.00  0.00    +0.000 NA
ATOM     10  C   UNL     1       2.093   2.837  18.898  0.00  0.00    +0.000 A 
ATOM     11  C   UNL     1       0.700   2.303  18.718  0.00  0.00    +0.000 C 
ATOM     12  H   UNL     1       4.953   3.782  16.143  0.00  0.00    +0.000 HD
ENDROOT
BRANCH   6  13
ATOM     13  C   UNL     1       7.358   4.712  17.194  0.00  0.00    +0.000 C 
ATOM     14  F   UNL     1       7.372   4.427  15.869  0.00  0.00    +0.000 F 
ATOM     15  F   UNL     1       7.558   6.050  17.317  0.00  0.00    +0.000 F 
ATOM     16  F   UNL     1       8.446   4.112  17.744  0.00  0.00    +0.000 F 
ENDBRANCH   6  13
TORSDOF 1
ENDMDL
MODEL 8
REMARK VINA RESULT:      -6.9      0.672      1.188
REMARK  Name = 
REMARK  3 active torsions:
REMARK  status: ('A' for Active; 'I' for Inactive)
REMARK    1  A    between atoms: C_1  and  C_2
REMARK    2  A    between atoms: C_6  and  C_7
REMARK    3  A    between atoms: C_14  and  C_15
REMARK                            x       y       z     vdW  Elec       q    Type
REMARK                         _______ _______ _______ _____ _____    ______ ____
ROOT
ATOM      1  C   UNL     1       6.960   4.742  15.858  0.00  0.00    +0.000 C 
ATOM      2  C   UNL     1       6.015   4.666  17.023  0.00  0.00    +0.000 A 
ATOM      3  N   UNL     1       4.854   3.997  16.789  0.00  0.00    +0.000 NA
ATOM      4  C   UNL     1       4.038   3.951  17.864  0.00  0.00    +0.000 A 
ATOM      5  N   UNL     1       2.814   3.351  17.935  0.00  0.00    +0.000 NA
ATOM      6  C   UNL     1       2.393   3.560  19.177  0.00  0.00    +0.000 A 
ATOM      7  N   UNL     1       3.324   4.286  19.894  0.00  0.00    +0.000 N 
ATOM      8  C   UNL     1       4.379   4.540  19.069  0.00  0.00    +0.000 A 
ATOM      9  N   UNL     1       5.510   5.213  19.354  0.00  0.00    +0.000 NA
ATOM     10  C   UNL     1       6.335   5.255  18.266  0.00  0.00    +0.000 A 
ATOM     11  C   UNL     1       7.636   5.980  18.462  0.00  0.00    +0.000 C 
ATOM     12  H   UNL     1       3.253   4.580  20.856  0.00  0.00    +0.000 HD
ENDROOT
BRANCH   6  13
ATOM     13  C   UNL     1       1.123   3.118  19.818  0.00  0.00    +0.000 C 
ATOM     14  F   UNL     1       0.348   4.144  20.246  0.00  0.00    +0.000 F 
ATOM     15  F   UNL     1       0.371   2.379  18.961  0.00  0.00    +0.000 F 
ATOM     16  F   UNL     1       1.366   2.324  20.894  0.00  0.00    +0.000 F 
ENDBRANCH   6  13
TORSDOF 1
ENDMDL
MODEL 9
REMARK VINA RESULT:      -6.9      3.914      5.666
REMARK  Name = 
REMARK  3 active torsions:
REMARK  status: ('A' for Active; 'I' for Inactive)
REMARK    1  A    between atoms: C_1  and  C_2
REMARK    2  A    between atoms: C_6  and  C_7
REMARK    3  A    between atoms: C_14  and  C_15
REMARK                            x       y       z     vdW  Elec       q    Type
REMARK                         _______ _______ _______ _____ _____    ______ ____
ROOT
ATOM      1  C   UNL     1       0.844   4.476  20.547  0.00  0.00    +0.000 C 
ATOM      2  C   UNL     1       2.117   4.224  19.790  0.00  0.00    +0.000 A 
ATOM      3  N   UNL     1       3.132   5.089  20.055  0.00  0.00    +0.000 NA
ATOM      4  C   UNL     1       4.256   4.822  19.355  0.00  0.00    +0.000 A 
ATOM      5  N   UNL     1       5.434   5.509  19.409  0.00  0.00    +0.000 NA
ATOM      6  C   UNL     1       6.242   4.886  18.559  0.00  0.00    +0.000 A 
ATOM      7  N   UNL     1       5.598   3.820  17.962  0.00  0.00    +0.000 N 
ATOM      8  C   UNL     1       4.331   3.766  18.462  0.00  0.00    +0.000 A 
ATOM      9  N   UNL     1       3.360   2.884  18.163  0.00  0.00    +0.000 NA
ATOM     10  C   UNL     1       2.225   3.154  18.875  0.00  0.00    +0.000 A 
ATOM     11  C   UNL     1       1.065   2.232  18.628  0.00  0.00    +0.000 C 
ATOM     12  H   UNL     1       5.983   3.184  17.280  0.00  0.00    +0.000 HD
ENDROOT
BRANCH   6  13
ATOM     13  C   UNL     1       7.660   5.197  18.221  0.00  0.00    +0.000 C 
ATOM     14  F   UNL     1       8.307   4.175  17.610  0.00  0.00    +0.000 F 
ATOM     15  F   UNL     1       7.744   6.274  17.397  0.00  0.00    +0.000 F 
ATOM     16  F   UNL     1       8.373   5.513  19.335  0.00  0.00    +0.000 F 
ENDBRANCH   6  13
TORSDOF 1
ENDMDL
