MODEL 1
REMARK VINA RESULT:      -7.4      0.000      0.000
REMARK  Name = 
REMARK  10 active torsions:
REMARK  status: ('A' for Active; 'I' for Inactive)
REMARK    1  A    between atoms: C_1  and  C_2
REMARK    2  A    between atoms: C_6  and  N_7
REMARK    3  A    between atoms: C_8  and  C_10
REMARK    4  A    between atoms: C_10  and  N_11
REMARK    5  A    between atoms: C_12  and  S_13
REMARK    6  A    between atoms: N_14  and  C_15
REMARK    7  A    between atoms: N_14  and  C_22
REMARK    8  A    between atoms: C_15  and  C_16
REMARK    9  A    between atoms: C_22  and  C_23
REMARK   10  A    between atoms: C_28  and  C_29
REMARK                            x       y       z     vdW  Elec       q    Type
REMARK                         _______ _______ _______ _____ _____    ______ ____
ROOT
ATOM      1  N   UNL     1       1.320   9.021  19.517  0.00  0.00    +0.000 NA
ATOM      2  C   UNL     1       0.622   9.558  20.452  0.00  0.00    +0.000 C 
ATOM      3  N   UNL     1       0.168  10.866  20.336  0.00  0.00    +0.000 N 
ENDROOT
BRANCH   2   4
ATOM      4  S   UNL     1       0.190   8.723  21.944  0.00  0.00    +0.000 S 
ATOM      5  H   UNL     1      -1.053   9.171  22.114  0.00  0.00    +0.000 HD
ENDBRANCH   2   4
BRANCH   1   6
ATOM      6  C   UNL     1       1.919   7.685  19.520  0.00  0.00    +0.000 C 
BRANCH   6   8
ATOM      7  N   UNL     1       3.664   6.358  18.400  0.00  0.00    +0.000 N 
ATOM      8  C   UNL     1       2.867   7.478  18.327  0.00  0.00    +0.000 C 
ATOM      9  O   UNL     1       2.916   8.280  17.398  0.00  0.00    +0.000 OA
ATOM     10  H   UNL     1       3.539   5.777  19.223  0.00  0.00    +0.000 HD
BRANCH   7  16
ATOM     11  C   UNL     1       5.318   4.621  14.589  0.00  0.00    +0.000 C 
ATOM     12  C   UNL     1       5.656   4.076  15.984  0.00  0.00    +0.000 C 
ATOM     13  C   UNL     1       7.058   4.534  16.422  0.00  0.00    +0.000 C 
ATOM     14  C   UNL     1       7.109   6.017  16.779  0.00  0.00    +0.000 C 
ATOM     15  C   UNL     1       6.037   6.419  17.788  0.00  0.00    +0.000 C 
ATOM     16  C   UNL     1       4.627   5.969  17.375  0.00  0.00    +0.000 C 
ATOM     17  C   UNL     1       4.580   4.455  17.036  0.00  0.00    +0.000 C 
ATOM     18  C   UNL     1       4.738   3.568  18.283  0.00  0.00    +0.000 C 
ENDBRANCH   7  16
ENDBRANCH   6   8
ENDBRANCH   1   6
BRANCH   3  19
ATOM     19  C   UNL     1      -0.106  11.461  19.020  0.00  0.00    +0.000 C 
BRANCH  19  20
ATOM     20  C   UNL     1      -1.460  11.115  18.416  0.00  0.00    +0.000 A 
ATOM     21  C   UNL     1      -2.624  11.823  18.753  0.00  0.00    +0.000 A 
ATOM     22  C   UNL     1      -3.855  11.522  18.162  0.00  0.00    +0.000 A 
ATOM     23  C   UNL     1      -3.937  10.523  17.202  0.00  0.00    +0.000 A 
ATOM     24  C   UNL     1      -2.797   9.828  16.827  0.00  0.00    +0.000 A 
ATOM     25  C   UNL     1      -1.565  10.118  17.428  0.00  0.00    +0.000 A 
ENDBRANCH  19  20
ENDBRANCH   3  19
BRANCH   3  26
ATOM     26  C   UNL     1       0.267  11.817  21.454  0.00  0.00    +0.000 C 
BRANCH  26  27
ATOM     27  C   UNL     1      -1.012  12.320  22.088  0.00  0.00    +0.000 A 
ATOM     28  C   UNL     1      -1.867  11.728  22.998  0.00  0.00    +0.000 A 
ATOM     29  C   UNL     1      -2.930  12.596  23.394  0.00  0.00    +0.000 A 
ATOM     30  C   UNL     1      -2.873  13.812  22.752  0.00  0.00    +0.000 A 
ATOM     31  S   UNL     1      -1.544  13.908  21.685  0.00  0.00    +0.000 S 
ENDBRANCH  26  27
ENDBRANCH   3  26
TORSDOF 8
ENDMDL
MODEL 2
REMARK VINA RESULT:      -7.4      2.066      2.762
REMARK  Name = 
REMARK  10 active torsions:
REMARK  status: ('A' for Active; 'I' for Inactive)
REMARK    1  A    between atoms: C_1  and  C_2
REMARK    2  A    between atoms: C_6  and  N_7
REMARK    3  A    between atoms: C_8  and  C_10
REMARK    4  A    between atoms: C_10  and  N_11
REMARK    5  A    between atoms: C_12  and  S_13
REMARK    6  A    between atoms: N_14  and  C_15
REMARK    7  A    between atoms: N_14  and  C_22
REMARK    8  A    between atoms: C_15  and  C_16
REMARK    9  A    between atoms: C_22  and  C_23
REMARK   10  A    between atoms: C_28  and  C_29
REMARK                            x       y       z     vdW  Elec       q    Type
REMARK                         _______ _______ _______ _____ _____    ______ ____
ROOT
ATOM      1  N   UNL     1       0.864   9.516  20.700  0.00  0.00    +0.000 NA
ATOM      2  C   UNL     1       0.170  10.445  21.252  0.00  0.00    +0.000 C 
ATOM      3  N   UNL     1      -0.050  11.651  20.597  0.00  0.00    +0.000 N 
ENDROOT
BRANCH   2   4
ATOM      4  S   UNL     1      -0.549  10.298  22.855  0.00  0.00    +0.000 S 
ATOM      5  H   UNL     1      -1.356  11.358  22.851  0.00  0.00    +0.000 HD
ENDBRANCH   2   4
BRANCH   1   6
ATOM      6  C   UNL     1       1.234   8.226  21.283  0.00  0.00    +0.000 C 
BRANCH   6   8
ATOM      7  N   UNL     1       1.968   5.966  20.638  0.00  0.00    +0.000 N 
ATOM      8  C   UNL     1       1.852   7.279  20.241  0.00  0.00    +0.000 C 
ATOM      9  O   UNL     1       2.237   7.689  19.150  0.00  0.00    +0.000 OA
ATOM     10  H   UNL     1       1.624   5.752  21.570  0.00  0.00    +0.000 HD
BRANCH   7  16
ATOM     11  C   UNL     1       2.143   2.456  17.824  0.00  0.00    +0.000 C 
ATOM     12  C   UNL     1       2.613   2.394  19.284  0.00  0.00    +0.000 C 
ATOM     13  C   UNL     1       4.148   2.448  19.364  0.00  0.00    +0.000 C 
ATOM     14  C   UNL     1       4.708   3.831  19.042  0.00  0.00    +0.000 C 
ATOM     15  C   UNL     1       4.054   4.938  19.865  0.00  0.00    +0.000 C 
ATOM     16  C   UNL     1       2.520   4.903  19.804  0.00  0.00    +0.000 C 
ATOM     17  C   UNL     1       1.960   3.499  20.156  0.00  0.00    +0.000 C 
ATOM     18  C   UNL     1       2.129   3.153  21.645  0.00  0.00    +0.000 C 
ENDBRANCH   7  16
ENDBRANCH   6   8
ENDBRANCH   1   6
BRANCH   3  19
ATOM     19  C   UNL     1      -0.082  11.724  19.129  0.00  0.00    +0.000 C 
BRANCH  19  20
ATOM     20  C   UNL     1      -1.385  11.277  18.482  0.00  0.00    +0.000 A 
ATOM     21  C   UNL     1      -1.437  10.189  17.596  0.00  0.00    +0.000 A 
ATOM     22  C   UNL     1      -2.646   9.762  17.038  0.00  0.00    +0.000 A 
ATOM     23  C   UNL     1      -3.830  10.401  17.380  0.00  0.00    +0.000 A 
ATOM     24  C   UNL     1      -3.813  11.459  18.277  0.00  0.00    +0.000 A 
ATOM     25  C   UNL     1      -2.601  11.898  18.826  0.00  0.00    +0.000 A 
ENDBRANCH  19  20
ENDBRANCH   3  19
BRANCH   3  26
ATOM     26  C   UNL     1       0.085  12.939  21.294  0.00  0.00    +0.000 C 
BRANCH  26  27
ATOM     27  C   UNL     1      -1.130  13.836  21.394  0.00  0.00    +0.000 A 
ATOM     28  C   UNL     1      -2.302  13.698  22.115  0.00  0.00    +0.000 A 
ATOM     29  C   UNL     1      -3.164  14.829  21.978  0.00  0.00    +0.000 A 
ATOM     30  C   UNL     1      -2.640  15.781  21.134  0.00  0.00    +0.000 A 
ATOM     31  S   UNL     1      -1.118  15.317  20.517  0.00  0.00    +0.000 S 
ENDBRANCH  26  27
ENDBRANCH   3  26
TORSDOF 8
ENDMDL
MODEL 3
REMARK VINA RESULT:      -7.4      2.094      2.676
REMARK  Name = 
REMARK  10 active torsions:
REMARK  status: ('A' for Active; 'I' for Inactive)
REMARK    1  A    between atoms: C_1  and  C_2
REMARK    2  A    between atoms: C_6  and  N_7
REMARK    3  A    between atoms: C_8  and  C_10
REMARK    4  A    between atoms: C_10  and  N_11
REMARK    5  A    between atoms: C_12  and  S_13
REMARK    6  A    between atoms: N_14  and  C_15
REMARK    7  A    between atoms: N_14  and  C_22
REMARK    8  A    between atoms: C_15  and  C_16
REMARK    9  A    between atoms: C_22  and  C_23
REMARK   10  A    between atoms: C_28  and  C_29
REMARK                            x       y       z     vdW  Elec       q    Type
REMARK                         _______ _______ _______ _____ _____    ______ ____
ROOT
ATOM      1  N   UNL     1       0.843   9.501  20.754  0.00  0.00    +0.000 NA
ATOM      2  C   UNL     1       0.150  10.416  21.333  0.00  0.00    +0.000 C 
ATOM      3  N   UNL     1      -0.092  11.628  20.700  0.00  0.00    +0.000 N 
ENDROOT
BRANCH   2   4
ATOM      4  S   UNL     1      -0.536  10.237  22.947  0.00  0.00    +0.000 S 
ATOM      5  H   UNL     1      -1.596   9.477  22.670  0.00  0.00    +0.000 HD
ENDBRANCH   2   4
BRANCH   1   6
ATOM      6  C   UNL     1       1.235   8.206  21.311  0.00  0.00    +0.000 C 
BRANCH   6   8
ATOM      7  N   UNL     1       1.996   5.968  20.622  0.00  0.00    +0.000 N 
ATOM      8  C   UNL     1       1.852   7.285  20.246  0.00  0.00    +0.000 C 
ATOM      9  O   UNL     1       2.213   7.716  19.154  0.00  0.00    +0.000 OA
ATOM     10  H   UNL     1       1.670   5.735  21.555  0.00  0.00    +0.000 HD
BRANCH   7  16
ATOM     11  C   UNL     1       2.183   2.515  17.739  0.00  0.00    +0.000 C 
ATOM     12  C   UNL     1       2.663   2.429  19.194  0.00  0.00    +0.000 C 
ATOM     13  C   UNL     1       4.199   2.495  19.266  0.00  0.00    +0.000 C 
ATOM     14  C   UNL     1       4.744   3.889  18.966  0.00  0.00    +0.000 C 
ATOM     15  C   UNL     1       4.086   4.974  19.815  0.00  0.00    +0.000 C 
ATOM     16  C   UNL     1       2.551   4.927  19.764  0.00  0.00    +0.000 C 
ATOM     17  C   UNL     1       2.006   3.511  20.092  0.00  0.00    +0.000 C 
ATOM     18  C   UNL     1       2.189   3.138  21.573  0.00  0.00    +0.000 C 
ENDBRANCH   7  16
ENDBRANCH   6   8
ENDBRANCH   1   6
BRANCH   3  19
ATOM     19  C   UNL     1      -0.153  11.723  19.234  0.00  0.00    +0.000 C 
BRANCH  19  20
ATOM     20  C   UNL     1      -1.458  11.260  18.604  0.00  0.00    +0.000 A 
ATOM     21  C   UNL     1      -2.677  11.905  18.865  0.00  0.00    +0.000 A 
ATOM     22  C   UNL     1      -3.864  11.496  18.250  0.00  0.00    +0.000 A 
ATOM     23  C   UNL     1      -3.846  10.449  17.339  0.00  0.00    +0.000 A 
ATOM     24  C   UNL     1      -2.651   9.813  17.037  0.00  0.00    +0.000 A 
ATOM     25  C   UNL     1      -1.463  10.212  17.664  0.00  0.00    +0.000 A 
ENDBRANCH  19  20
ENDBRANCH   3  19
BRANCH   3  26
ATOM     26  C   UNL     1       0.043  12.908  21.413  0.00  0.00    +0.000 C 
BRANCH  26  27
ATOM     27  C   UNL     1      -1.103  13.894  21.350  0.00  0.00    +0.000 A 
ATOM     28  C   UNL     1      -1.258  15.060  20.624  0.00  0.00    +0.000 A 
ATOM     29  C   UNL     1      -2.544  15.652  20.808  0.00  0.00    +0.000 A 
ATOM     30  C   UNL     1      -3.321  14.939  21.692  0.00  0.00    +0.000 A 
ATOM     31  S   UNL     1      -2.508  13.563  22.290  0.00  0.00    +0.000 S 
ENDBRANCH  26  27
ENDBRANCH   3  26
TORSDOF 8
ENDMDL
MODEL 4
REMARK VINA RESULT:      -7.3      2.008      3.007
REMARK  Name = 
REMARK  10 active torsions:
REMARK  status: ('A' for Active; 'I' for Inactive)
REMARK    1  A    between atoms: C_1  and  C_2
REMARK    2  A    between atoms: C_6  and  N_7
REMARK    3  A    between atoms: C_8  and  C_10
REMARK    4  A    between atoms: C_10  and  N_11
REMARK    5  A    between atoms: C_12  and  S_13
REMARK    6  A    between atoms: N_14  and  C_15
REMARK    7  A    between atoms: N_14  and  C_22
REMARK    8  A    between atoms: C_15  and  C_16
REMARK    9  A    between atoms: C_22  and  C_23
REMARK   10  A    between atoms: C_28  and  C_29
REMARK                            x       y       z     vdW  Elec       q    Type
REMARK                         _______ _______ _______ _____ _____    ______ ____
ROOT
ATOM      1  N   UNL     1       0.985   9.018  20.430  0.00  0.00    +0.000 NA
ATOM      2  C   UNL     1       0.376   9.966  21.047  0.00  0.00    +0.000 C 
ATOM      3  N   UNL     1       0.158  11.190  20.428  0.00  0.00    +0.000 N 
ENDROOT
BRANCH   2   4
ATOM      4  S   UNL     1      -0.219   9.823  22.701  0.00  0.00    +0.000 S 
ATOM      5  H   UNL     1       0.312  10.919  23.239  0.00  0.00    +0.000 HD
ENDBRANCH   2   4
BRANCH   1   6
ATOM      6  C   UNL     1       1.344   7.704  20.966  0.00  0.00    +0.000 C 
BRANCH   6   8
ATOM      7  N   UNL     1       2.389   5.572  20.315  0.00  0.00    +0.000 N 
ATOM      8  C   UNL     1       2.198   6.893  19.977  0.00  0.00    +0.000 C 
ATOM      9  O   UNL     1       2.690   7.411  18.979  0.00  0.00    +0.000 OA
ATOM     10  H   UNL     1       1.939   5.263  21.171  0.00  0.00    +0.000 HD
BRANCH   7  16
ATOM     11  C   UNL     1       4.650   3.834  16.831  0.00  0.00    +0.000 C 
ATOM     12  C   UNL     1       3.326   3.259  17.351  0.00  0.00    +0.000 C 
ATOM     13  C   UNL     1       3.573   1.991  18.187  0.00  0.00    +0.000 C 
ATOM     14  C   UNL     1       4.198   2.293  19.547  0.00  0.00    +0.000 C 
ATOM     15  C   UNL     1       3.423   3.350  20.329  0.00  0.00    +0.000 C 
ATOM     16  C   UNL     1       3.159   4.625  19.515  0.00  0.00    +0.000 C 
ATOM     17  C   UNL     1       2.503   4.310  18.144  0.00  0.00    +0.000 C 
ATOM     18  C   UNL     1       1.048   3.832  18.284  0.00  0.00    +0.000 C 
ENDBRANCH   7  16
ENDBRANCH   6   8
ENDBRANCH   1   6
BRANCH   3  19
ATOM     19  C   UNL     1       0.013  11.289  18.968  0.00  0.00    +0.000 C 
BRANCH  19  20
ATOM     20  C   UNL     1      -1.385  11.017  18.431  0.00  0.00    +0.000 A 
ATOM     21  C   UNL     1      -2.492  11.781  18.829  0.00  0.00    +0.000 A 
ATOM     22  C   UNL     1      -3.765  11.548  18.299  0.00  0.00    +0.000 A 
ATOM     23  C   UNL     1      -3.946  10.562  17.339  0.00  0.00    +0.000 A 
ATOM     24  C   UNL     1      -2.863   9.812  16.903  0.00  0.00    +0.000 A 
ATOM     25  C   UNL     1      -1.590  10.034  17.444  0.00  0.00    +0.000 A 
ENDBRANCH  19  20
ENDBRANCH   3  19
BRANCH   3  26
ATOM     26  C   UNL     1       0.402  12.461  21.128  0.00  0.00    +0.000 C 
BRANCH  26  27
ATOM     27  C   UNL     1       0.840  13.660  20.315  0.00  0.00    +0.000 A 
ATOM     28  C   UNL     1       2.077  14.006  19.804  0.00  0.00    +0.000 A 
ATOM     29  C   UNL     1       2.031  15.201  19.023  0.00  0.00    +0.000 A 
ATOM     30  C   UNL     1       0.769  15.748  18.987  0.00  0.00    +0.000 A 
ATOM     31  S   UNL     1      -0.352  14.824  19.883  0.00  0.00    +0.000 S 
ENDBRANCH  26  27
ENDBRANCH   3  26
TORSDOF 8
ENDMDL
MODEL 5
REMARK VINA RESULT:      -7.3      2.296      3.392
REMARK  Name = 
REMARK  10 active torsions:
REMARK  status: ('A' for Active; 'I' for Inactive)
REMARK    1  A    between atoms: C_1  and  C_2
REMARK    2  A    between atoms: C_6  and  N_7
REMARK    3  A    between atoms: C_8  and  C_10
REMARK    4  A    between atoms: C_10  and  N_11
REMARK    5  A    between atoms: C_12  and  S_13
REMARK    6  A    between atoms: N_14  and  C_15
REMARK    7  A    between atoms: N_14  and  C_22
REMARK    8  A    between atoms: C_15  and  C_16
REMARK    9  A    between atoms: C_22  and  C_23
REMARK   10  A    between atoms: C_28  and  C_29
REMARK                            x       y       z     vdW  Elec       q    Type
REMARK                         _______ _______ _______ _____ _____    ______ ____
ROOT
ATOM      1  N   UNL     1       0.884   9.555  20.640  0.00  0.00    +0.000 NA
ATOM      2  C   UNL     1       0.162  10.469  21.184  0.00  0.00    +0.000 C 
ATOM      3  N   UNL     1      -0.115  11.650  20.508  0.00  0.00    +0.000 N 
ENDROOT
BRANCH   2   4
ATOM      4  S   UNL     1      -0.524  10.328  22.802  0.00  0.00    +0.000 S 
ATOM      5  H   UNL     1       0.428  10.929  23.515  0.00  0.00    +0.000 HD
ENDBRANCH   2   4
BRANCH   1   6
ATOM      6  C   UNL     1       1.313   8.293  21.244  0.00  0.00    +0.000 C 
BRANCH   6   8
ATOM      7  N   UNL     1       2.038   6.021  20.634  0.00  0.00    +0.000 N 
ATOM      8  C   UNL     1       1.877   7.317  20.199  0.00  0.00    +0.000 C 
ATOM      9  O   UNL     1       2.183   7.691  19.070  0.00  0.00    +0.000 OA
ATOM     10  H   UNL     1       1.759   5.837  21.593  0.00  0.00    +0.000 HD
BRANCH   7  16
ATOM     11  C   UNL     1       2.083   2.470  17.867  0.00  0.00    +0.000 C 
ATOM     12  C   UNL     1       2.582   2.418  19.318  0.00  0.00    +0.000 C 
ATOM     13  C   UNL     1       4.119   2.441  19.367  0.00  0.00    +0.000 C 
ATOM     14  C   UNL     1       4.700   3.808  19.014  0.00  0.00    +0.000 C 
ATOM     15  C   UNL     1       4.087   4.939  19.834  0.00  0.00    +0.000 C 
ATOM     16  C   UNL     1       2.551   4.936  19.804  0.00  0.00    +0.000 C 
ATOM     17  C   UNL     1       1.969   3.548  20.187  0.00  0.00    +0.000 C 
ATOM     18  C   UNL     1       2.162   3.220  21.678  0.00  0.00    +0.000 C 
ENDBRANCH   7  16
ENDBRANCH   6   8
ENDBRANCH   1   6
BRANCH   3  19
ATOM     19  C   UNL     1      -0.174  11.690  19.039  0.00  0.00    +0.000 C 
BRANCH  19  20
ATOM     20  C   UNL     1      -1.503  11.271  18.428  0.00  0.00    +0.000 A 
ATOM     21  C   UNL     1      -1.602  10.190  17.538  0.00  0.00    +0.000 A 
ATOM     22  C   UNL     1      -2.835   9.790  17.013  0.00  0.00    +0.000 A 
ATOM     23  C   UNL     1      -3.996  10.450  17.393  0.00  0.00    +0.000 A 
ATOM     24  C   UNL     1      -3.932  11.502  18.294  0.00  0.00    +0.000 A 
ATOM     25  C   UNL     1      -2.696  11.914  18.809  0.00  0.00    +0.000 A 
ENDBRANCH  19  20
ENDBRANCH   3  19
BRANCH   3  26
ATOM     26  C   UNL     1      -0.020  12.958  21.174  0.00  0.00    +0.000 C 
BRANCH  26  27
ATOM     27  C   UNL     1       1.187  13.826  20.892  0.00  0.00    +0.000 A 
ATOM     28  C   UNL     1       2.527  13.505  20.770  0.00  0.00    +0.000 A 
ATOM     29  C   UNL     1       3.329  14.634  20.422  0.00  0.00    +0.000 A 
ATOM     30  C   UNL     1       2.586  15.787  20.320  0.00  0.00    +0.000 A 
ATOM     31  S   UNL     1       0.931  15.509  20.635  0.00  0.00    +0.000 S 
ENDBRANCH  26  27
ENDBRANCH   3  26
TORSDOF 8
ENDMDL
MODEL 6
REMARK VINA RESULT:      -7.2      1.422      2.295
REMARK  Name = 
REMARK  10 active torsions:
REMARK  status: ('A' for Active; 'I' for Inactive)
REMARK    1  A    between atoms: C_1  and  C_2
REMARK    2  A    between atoms: C_6  and  N_7
REMARK    3  A    between atoms: C_8  and  C_10
REMARK    4  A    between atoms: C_10  and  N_11
REMARK    5  A    between atoms: C_12  and  S_13
REMARK    6  A    between atoms: N_14  and  C_15
REMARK    7  A    between atoms: N_14  and  C_22
REMARK    8  A    between atoms: C_15  and  C_16
REMARK    9  A    between atoms: C_22  and  C_23
REMARK   10  A    between atoms: C_28  and  C_29
REMARK                            x       y       z     vdW  Elec       q    Type
REMARK                         _______ _______ _______ _____ _____    ______ ____
ROOT
ATOM      1  N   UNL     1       0.967   9.150  20.530  0.00  0.00    +0.000 NA
ATOM      2  C   UNL     1       0.326  10.042  21.196  0.00  0.00    +0.000 C 
ATOM      3  N   UNL     1       0.130  11.313  20.671  0.00  0.00    +0.000 N 
ENDROOT
BRANCH   2   4
ATOM      4  S   UNL     1      -0.343   9.761  22.803  0.00  0.00    +0.000 S 
ATOM      5  H   UNL     1       0.781   9.634  23.508  0.00  0.00    +0.000 HD
ENDBRANCH   2   4
BRANCH   1   6
ATOM      6  C   UNL     1       1.308   7.796  20.971  0.00  0.00    +0.000 C 
BRANCH   6   8
ATOM      7  N   UNL     1       2.429   5.735  20.227  0.00  0.00    +0.000 N 
ATOM      8  C   UNL     1       2.181   7.059  19.943  0.00  0.00    +0.000 C 
ATOM      9  O   UNL     1       2.641   7.634  18.960  0.00  0.00    +0.000 OA
ATOM     10  H   UNL     1       2.002   5.375  21.075  0.00  0.00    +0.000 HD
BRANCH   7  16
ATOM     11  C   UNL     1       4.785   4.257  16.686  0.00  0.00    +0.000 C 
ATOM     12  C   UNL     1       3.455   3.635  17.136  0.00  0.00    +0.000 C 
ATOM     13  C   UNL     1       3.698   2.317  17.890  0.00  0.00    +0.000 C 
ATOM     14  C   UNL     1       4.290   2.532  19.281  0.00  0.00    +0.000 C 
ATOM     15  C   UNL     1       3.487   3.526  20.115  0.00  0.00    +0.000 C 
ATOM     16  C   UNL     1       3.227   4.851  19.382  0.00  0.00    +0.000 C 
ATOM     17  C   UNL     1       2.605   4.623  17.979  0.00  0.00    +0.000 C 
ATOM     18  C   UNL     1       1.152   4.123  18.054  0.00  0.00    +0.000 C 
ENDBRANCH   7  16
ENDBRANCH   6   8
ENDBRANCH   1   6
BRANCH   3  19
ATOM     19  C   UNL     1       0.052  11.533  19.219  0.00  0.00    +0.000 C 
BRANCH  19  20
ATOM     20  C   UNL     1      -1.283  11.183  18.578  0.00  0.00    +0.000 A 
ATOM     21  C   UNL     1      -1.424  10.089  17.710  0.00  0.00    +0.000 A 
ATOM     22  C   UNL     1      -2.665   9.754  17.157  0.00  0.00    +0.000 A 
ATOM     23  C   UNL     1      -3.792  10.494  17.487  0.00  0.00    +0.000 A 
ATOM     24  C   UNL     1      -3.688  11.561  18.366  0.00  0.00    +0.000 A 
ATOM     25  C   UNL     1      -2.444  11.908  18.909  0.00  0.00    +0.000 A 
ENDBRANCH  19  20
ENDBRANCH   3  19
BRANCH   3  26
ATOM     26  C   UNL     1       0.336  12.522  21.484  0.00  0.00    +0.000 C 
BRANCH  26  27
ATOM     27  C   UNL     1      -0.879  13.238  22.032  0.00  0.00    +0.000 A 
ATOM     28  C   UNL     1      -2.184  12.813  22.201  0.00  0.00    +0.000 A 
ATOM     29  C   UNL     1      -3.003  13.799  22.830  0.00  0.00    +0.000 A 
ATOM     30  C   UNL     1      -2.310  14.958  23.094  0.00  0.00    +0.000 A 
ATOM     31  S   UNL     1      -0.682  14.854  22.592  0.00  0.00    +0.000 S 
ENDBRANCH  26  27
ENDBRANCH   3  26
TORSDOF 8
ENDMDL
MODEL 7
REMARK VINA RESULT:      -7.2      0.670      1.247
REMARK  Name = 
REMARK  10 active torsions:
REMARK  status: ('A' for Active; 'I' for Inactive)
REMARK    1  A    between atoms: C_1  and  C_2
REMARK    2  A    between atoms: C_6  and  N_7
REMARK    3  A    between atoms: C_8  and  C_10
REMARK    4  A    between atoms: C_10  and  N_11
REMARK    5  A    between atoms: C_12  and  S_13
REMARK    6  A    between atoms: N_14  and  C_15
REMARK    7  A    between atoms: N_14  and  C_22
REMARK    8  A    between atoms: C_15  and  C_16
REMARK    9  A    between atoms: C_22  and  C_23
REMARK   10  A    between atoms: C_28  and  C_29
REMARK                            x       y       z     vdW  Elec       q    Type
REMARK                         _______ _______ _______ _____ _____    ______ ____
ROOT
ATOM      1  N   UNL     1       1.344   9.121  19.266  0.00  0.00    +0.000 NA
ATOM      2  C   UNL     1       0.809   9.756  20.247  0.00  0.00    +0.000 C 
ATOM      3  N   UNL     1       0.394  11.073  20.097  0.00  0.00    +0.000 N 
ENDROOT
BRANCH   2   4
ATOM      4  S   UNL     1       0.562   9.047  21.842  0.00  0.00    +0.000 S 
ATOM      5  H   UNL     1      -0.113   7.947  21.510  0.00  0.00    +0.000 HD
ENDBRANCH   2   4
BRANCH   1   6
ATOM      6  C   UNL     1       1.886   7.761  19.286  0.00  0.00    +0.000 C 
BRANCH   6   8
ATOM      7  N   UNL     1       3.637   6.378  18.247  0.00  0.00    +0.000 N 
ATOM      8  C   UNL     1       2.877   7.520  18.136  0.00  0.00    +0.000 C 
ATOM      9  O   UNL     1       2.989   8.315  17.207  0.00  0.00    +0.000 OA
ATOM     10  H   UNL     1       3.460   5.805  19.067  0.00  0.00    +0.000 HD
BRANCH   7  16
ATOM     11  C   UNL     1       5.409   4.498  14.560  0.00  0.00    +0.000 C 
ATOM     12  C   UNL     1       5.714   4.016  15.985  0.00  0.00    +0.000 C 
ATOM     13  C   UNL     1       7.099   4.506  16.441  0.00  0.00    +0.000 C 
ATOM     14  C   UNL     1       7.128   6.004  16.735  0.00  0.00    +0.000 C 
ATOM     15  C   UNL     1       6.025   6.436  17.697  0.00  0.00    +0.000 C 
ATOM     16  C   UNL     1       4.631   5.956  17.266  0.00  0.00    +0.000 C 
ATOM     17  C   UNL     1       4.607   4.428  16.990  0.00  0.00    +0.000 C 
ATOM     18  C   UNL     1       4.738   3.596  18.278  0.00  0.00    +0.000 C 
ENDBRANCH   7  16
ENDBRANCH   6   8
ENDBRANCH   1   6
BRANCH   3  19
ATOM     19  C   UNL     1      -0.042  11.589  18.791  0.00  0.00    +0.000 C 
BRANCH  19  20
ATOM     20  C   UNL     1      -1.470  11.242  18.395  0.00  0.00    +0.000 A 
ATOM     21  C   UNL     1      -1.768  10.121  17.604  0.00  0.00    +0.000 A 
ATOM     22  C   UNL     1      -3.087   9.790  17.280  0.00  0.00    +0.000 A 
ATOM     23  C   UNL     1      -4.134  10.560  17.767  0.00  0.00    +0.000 A 
ATOM     24  C   UNL     1      -3.871  11.654  18.576  0.00  0.00    +0.000 A 
ATOM     25  C   UNL     1      -2.549  11.997  18.890  0.00  0.00    +0.000 A 
ENDBRANCH  19  20
ENDBRANCH   3  19
BRANCH   3  26
ATOM     26  C   UNL     1       0.688  12.093  21.115  0.00  0.00    +0.000 C 
BRANCH  26  27
ATOM     27  C   UNL     1      -0.468  12.838  21.745  0.00  0.00    +0.000 A 
ATOM     28  C   UNL     1      -0.820  14.174  21.698  0.00  0.00    +0.000 A 
ATOM     29  C   UNL     1      -2.044  14.441  22.383  0.00  0.00    +0.000 A 
ATOM     30  C   UNL     1      -2.574  13.310  22.959  0.00  0.00    +0.000 A 
ATOM     31  S   UNL     1      -1.605  11.934  22.670  0.00  0.00    +0.000 S 
ENDBRANCH  26  27
ENDBRANCH   3  26
TORSDOF 8
ENDMDL
MODEL 8
REMARK VINA RESULT:      -7.1      1.667      2.165
REMARK  Name = 
REMARK  10 active torsions:
REMARK  status: ('A' for Active; 'I' for Inactive)
REMARK    1  A    between atoms: C_1  and  C_2
REMARK    2  A    between atoms: C_6  and  N_7
REMARK    3  A    between atoms: C_8  and  C_10
REMARK    4  A    between atoms: C_10  and  N_11
REMARK    5  A    between atoms: C_12  and  S_13
REMARK    6  A    between atoms: N_14  and  C_15
REMARK    7  A    between atoms: N_14  and  C_22
REMARK    8  A    between atoms: C_15  and  C_16
REMARK    9  A    between atoms: C_22  and  C_23
REMARK   10  A    between atoms: C_28  and  C_29
REMARK                            x       y       z     vdW  Elec       q    Type
REMARK                         _______ _______ _______ _____ _____    ______ ____
ROOT
ATOM      1  N   UNL     1       1.381   9.174  19.200  0.00  0.00    +0.000 NA
ATOM      2  C   UNL     1       0.864   9.843  20.168  0.00  0.00    +0.000 C 
ATOM      3  N   UNL     1       0.419  11.144  19.973  0.00  0.00    +0.000 N 
ENDROOT
BRANCH   2   4
ATOM      4  S   UNL     1       0.681   9.204  21.801  0.00  0.00    +0.000 S 
ATOM      5  H   UNL     1      -0.647   9.184  21.900  0.00  0.00    +0.000 HD
ENDBRANCH   2   4
BRANCH   1   6
ATOM      6  C   UNL     1       1.949   7.827  19.263  0.00  0.00    +0.000 C 
BRANCH   6   8
ATOM      7  N   UNL     1       3.655   6.394  18.216  0.00  0.00    +0.000 N 
ATOM      8  C   UNL     1       2.939   7.565  18.116  0.00  0.00    +0.000 C 
ATOM      9  O   UNL     1       3.087   8.369  17.200  0.00  0.00    +0.000 OA
ATOM     10  H   UNL     1       3.451   5.817  19.026  0.00  0.00    +0.000 HD
BRANCH   7  16
ATOM     11  C   UNL     1       5.389   4.455  14.541  0.00  0.00    +0.000 C 
ATOM     12  C   UNL     1       5.694   3.984  15.970  0.00  0.00    +0.000 C 
ATOM     13  C   UNL     1       7.087   4.462  16.415  0.00  0.00    +0.000 C 
ATOM     14  C   UNL     1       7.135   5.962  16.694  0.00  0.00    +0.000 C 
ATOM     15  C   UNL     1       6.041   6.418  17.656  0.00  0.00    +0.000 C 
ATOM     16  C   UNL     1       4.640   5.950  17.235  0.00  0.00    +0.000 C 
ATOM     17  C   UNL     1       4.596   4.420  16.976  0.00  0.00    +0.000 C 
ATOM     18  C   UNL     1       4.723   3.600  18.272  0.00  0.00    +0.000 C 
ENDBRANCH   7  16
ENDBRANCH   6   8
ENDBRANCH   1   6
BRANCH   3  19
ATOM     19  C   UNL     1      -0.068  11.592  18.659  0.00  0.00    +0.000 C 
BRANCH  19  20
ATOM     20  C   UNL     1      -1.500  11.200  18.326  0.00  0.00    +0.000 A 
ATOM     21  C   UNL     1      -2.599  11.925  18.810  0.00  0.00    +0.000 A 
ATOM     22  C   UNL     1      -3.909  11.579  18.465  0.00  0.00    +0.000 A 
ATOM     23  C   UNL     1      -4.140  10.515  17.604  0.00  0.00    +0.000 A 
ATOM     24  C   UNL     1      -3.072   9.799  17.085  0.00  0.00    +0.000 A 
ATOM     25  C   UNL     1      -1.759  10.135  17.442  0.00  0.00    +0.000 A 
ENDBRANCH  19  20
ENDBRANCH   3  19
BRANCH   3  26
ATOM     26  C   UNL     1       0.725  12.215  20.934  0.00  0.00    +0.000 C 
BRANCH  26  27
ATOM     27  C   UNL     1       1.099  13.580  20.399  0.00  0.00    +0.000 A 
ATOM     28  C   UNL     1       0.354  14.736  20.261  0.00  0.00    +0.000 A 
ATOM     29  C   UNL     1       1.129  15.832  19.776  0.00  0.00    +0.000 A 
ATOM     30  C   UNL     1       2.435  15.474  19.528  0.00  0.00    +0.000 A 
ATOM     31  S   UNL     1       2.723  13.830  19.885  0.00  0.00    +0.000 S 
ENDBRANCH  26  27
ENDBRANCH   3  26
TORSDOF 8
ENDMDL
MODEL 9
REMARK VINA RESULT:      -7.0      2.257      3.082
REMARK  Name = 
REMARK  10 active torsions:
REMARK  status: ('A' for Active; 'I' for Inactive)
REMARK    1  A    between atoms: C_1  and  C_2
REMARK    2  A    between atoms: C_6  and  N_7
REMARK    3  A    between atoms: C_8  and  C_10
REMARK    4  A    between atoms: C_10  and  N_11
REMARK    5  A    between atoms: C_12  and  S_13
REMARK    6  A    between atoms: N_14  and  C_15
REMARK    7  A    between atoms: N_14  and  C_22
REMARK    8  A    between atoms: C_15  and  C_16
REMARK    9  A    between atoms: C_22  and  C_23
REMARK   10  A    between atoms: C_28  and  C_29
REMARK                            x       y       z     vdW  Elec       q    Type
REMARK                         _______ _______ _______ _____ _____    ______ ____
ROOT
ATOM      1  N   UNL     1       0.854   9.602  20.739  0.00  0.00    +0.000 NA
ATOM      2  C   UNL     1       0.086  10.471  21.291  0.00  0.00    +0.000 C 
ATOM      3  N   UNL     1      -0.259  11.639  20.623  0.00  0.00    +0.000 N 
ENDROOT
BRANCH   2   4
ATOM      4  S   UNL     1      -0.583  10.285  22.912  0.00  0.00    +0.000 S 
ATOM      5  H   UNL     1       0.407  10.804  23.637  0.00  0.00    +0.000 HD
ENDBRANCH   2   4
BRANCH   1   6
ATOM      6  C   UNL     1       1.354   8.362  21.335  0.00  0.00    +0.000 C 
BRANCH   6   8
ATOM      7  N   UNL     1       2.036   6.084  20.698  0.00  0.00    +0.000 N 
ATOM      8  C   UNL     1       1.876   7.382  20.271  0.00  0.00    +0.000 C 
ATOM      9  O   UNL     1       2.152   7.755  19.134  0.00  0.00    +0.000 OA
ATOM     10  H   UNL     1       1.784   5.900  21.665  0.00  0.00    +0.000 HD
BRANCH   7  16
ATOM     11  C   UNL     1       1.960   2.568  17.887  0.00  0.00    +0.000 C 
ATOM     12  C   UNL     1       2.466   2.483  19.333  0.00  0.00    +0.000 C 
ATOM     13  C   UNL     1       4.004   2.462  19.371  0.00  0.00    +0.000 C 
ATOM     14  C   UNL     1       4.622   3.815  19.031  0.00  0.00    +0.000 C 
ATOM     15  C   UNL     1       4.047   4.953  19.870  0.00  0.00    +0.000 C 
ATOM     16  C   UNL     1       2.512   4.994  19.851  0.00  0.00    +0.000 C 
ATOM     17  C   UNL     1       1.893   3.620  20.221  0.00  0.00    +0.000 C 
ATOM     18  C   UNL     1       2.086   3.267  21.705  0.00  0.00    +0.000 C 
ENDBRANCH   7  16
ENDBRANCH   6   8
ENDBRANCH   1   6
BRANCH   3  19
ATOM     19  C   UNL     1      -0.328  11.683  19.154  0.00  0.00    +0.000 C 
BRANCH  19  20
ATOM     20  C   UNL     1      -1.656  11.251  18.550  0.00  0.00    +0.000 A 
ATOM     21  C   UNL     1      -2.857  11.910  18.854  0.00  0.00    +0.000 A 
ATOM     22  C   UNL     1      -4.066  11.529  18.263  0.00  0.00    +0.000 A 
ATOM     23  C   UNL     1      -4.087  10.499  17.333  0.00  0.00    +0.000 A 
ATOM     24  C   UNL     1      -2.911   9.851  16.989  0.00  0.00    +0.000 A 
ATOM     25  C   UNL     1      -1.701  10.220  17.593  0.00  0.00    +0.000 A 
ENDBRANCH  19  20
ENDBRANCH   3  19
BRANCH   3  26
ATOM     26  C   UNL     1      -0.233  12.947  21.295  0.00  0.00    +0.000 C 
BRANCH  26  27
ATOM     27  C   UNL     1      -0.306  14.197  20.446  0.00  0.00    +0.000 A 
ATOM     28  C   UNL     1       0.323  14.526  19.260  0.00  0.00    +0.000 A 
ATOM     29  C   UNL     1      -0.093  15.795  18.755  0.00  0.00    +0.000 A 
ATOM     30  C   UNL     1      -1.002  16.411  19.584  0.00  0.00    +0.000 A 
ATOM     31  S   UNL     1      -1.356  15.462  20.958  0.00  0.00    +0.000 S 
ENDBRANCH  26  27
ENDBRANCH   3  26
TORSDOF 8
ENDMDL
