MODEL 1
REMARK VINA RESULT:      -8.0      0.000      0.000
REMARK  Name = 
REMARK  10 active torsions:
REMARK  status: ('A' for Active; 'I' for Inactive)
REMARK    1  A    between atoms: C_1  and  C_2
REMARK    2  A    between atoms: C_2  and  O_3
REMARK    3  A    between atoms: O_3  and  C_4
REMARK    4  A    between atoms: C_4  and  C_6
REMARK    5  A    between atoms: C_7  and  C_8
REMARK    6  A    between atoms: C_10  and  C_11
REMARK    7  A    between atoms: C_11  and  O_13
REMARK    8  A    between atoms: O_13  and  C_14
REMARK    9  A    between atoms: C_14  and  C_15
REMARK   10  A    between atoms: C_26  and  C_27
REMARK                            x       y       z     vdW  Elec       q    Type
REMARK                         _______ _______ _______ _____ _____    ______ ____
ROOT
ATOM      1  C   UNL     1       6.691   5.162  17.214  0.00  0.00    +0.000 C 
ATOM      2  O   UNL     1       7.174   4.490  18.121  0.00  0.00    +0.000 OA
ENDROOT
BRANCH   1   7
ATOM      3  C   UNL     1       6.533   4.094  13.653  0.00  0.00    +0.000 A 
ATOM      4  C   UNL     1       7.490   5.106  13.643  0.00  0.00    +0.000 A 
ATOM      5  C   UNL     1       8.254   5.733  12.528  0.00  0.00    +0.000 C 
ATOM      6  N   UNL     1       7.648   5.554  14.934  0.00  0.00    +0.000 N 
ATOM      7  C   UNL     1       6.813   4.877  15.798  0.00  0.00    +0.000 A 
ATOM      8  C   UNL     1       6.103   3.960  15.028  0.00  0.00    +0.000 A 
ATOM      9  C   UNL     1       5.040   3.024  15.506  0.00  0.00    +0.000 C 
ATOM     10  H   UNL     1       8.253   6.314  15.219  0.00  0.00    +0.000 HD
BRANCH   3  11
ATOM     11  C   UNL     1       6.018   3.382  12.475  0.00  0.00    +0.000 C 
ATOM     12  O   UNL     1       6.646   2.539  11.847  0.00  0.00    +0.000 OA
BRANCH  11  13
ATOM     13  O   UNL     1       4.790   3.841  12.090  0.00  0.00    +0.000 OA
BRANCH  13  15
ATOM     14  C   UNL     1       3.267   3.858  10.254  0.00  0.00    +0.000 C 
ATOM     15  C   UNL     1       4.053   2.981  11.215  0.00  0.00    +0.000 C 
ENDBRANCH  13  15
ENDBRANCH  11  13
ENDBRANCH   3  11
ENDBRANCH   1   7
BRANCH   1  16
ATOM     16  O   UNL     1       5.915   6.265  17.426  0.00  0.00    +0.000 OA
BRANCH  16  17
ATOM     17  C   UNL     1       4.550   6.084  17.012  0.00  0.00    +0.000 C 
BRANCH  17  18
ATOM     18  C   UNL     1       3.625   6.910  17.905  0.00  0.00    +0.000 C 
ATOM     19  O   UNL     1       3.435   8.108  17.650  0.00  0.00    +0.000 OA
ATOM     20  N   UNL     1       3.001   6.322  18.988  0.00  0.00    +0.000 N 
ATOM     21  C   UNL     1       2.000   7.101  19.737  0.00  0.00    +0.000 C 
ATOM     22  C   UNL     1       1.583   6.278  20.954  0.00  0.00    +0.000 C 
ATOM     23  C   UNL     1       2.211   4.956  20.654  0.00  0.00    +0.000 A 
ATOM     24  C   UNL     1       2.069   3.797  21.404  0.00  0.00    +0.000 A 
ATOM     25  C   UNL     1       2.809   2.677  21.035  0.00  0.00    +0.000 A 
ATOM     26  C   UNL     1       3.677   2.740  19.940  0.00  0.00    +0.000 A 
ATOM     27  C   UNL     1       3.808   3.918  19.187  0.00  0.00    +0.000 A 
ATOM     28  C   UNL     1       3.062   5.028  19.542  0.00  0.00    +0.000 A 
ENDBRANCH  17  18
ENDBRANCH  16  17
ENDBRANCH   1  16
TORSDOF 7
ENDMDL
MODEL 2
REMARK VINA RESULT:      -7.7      1.396      1.446
REMARK  Name = 
REMARK  10 active torsions:
REMARK  status: ('A' for Active; 'I' for Inactive)
REMARK    1  A    between atoms: C_1  and  C_2
REMARK    2  A    between atoms: C_2  and  O_3
REMARK    3  A    between atoms: O_3  and  C_4
REMARK    4  A    between atoms: C_4  and  C_6
REMARK    5  A    between atoms: C_7  and  C_8
REMARK    6  A    between atoms: C_10  and  C_11
REMARK    7  A    between atoms: C_11  and  O_13
REMARK    8  A    between atoms: O_13  and  C_14
REMARK    9  A    between atoms: C_14  and  C_15
REMARK   10  A    between atoms: C_26  and  C_27
REMARK                            x       y       z     vdW  Elec       q    Type
REMARK                         _______ _______ _______ _____ _____    ______ ____
ROOT
ATOM      1  C   UNL     1       7.243   5.208  16.715  0.00  0.00    +0.000 C 
ATOM      2  O   UNL     1       7.872   4.562  17.548  0.00  0.00    +0.000 OA
ENDROOT
BRANCH   1   7
ATOM      3  C   UNL     1       6.399   3.972  13.309  0.00  0.00    +0.000 A 
ATOM      4  C   UNL     1       7.330   4.979  13.063  0.00  0.00    +0.000 A 
ATOM      5  C   UNL     1       7.857   5.549  11.791  0.00  0.00    +0.000 C 
ATOM      6  N   UNL     1       7.735   5.487  14.276  0.00  0.00    +0.000 N 
ATOM      7  C   UNL     1       7.088   4.855  15.317  0.00  0.00    +0.000 A 
ATOM      8  C   UNL     1       6.247   3.905  14.746  0.00  0.00    +0.000 A 
ATOM      9  C   UNL     1       5.304   2.997  15.466  0.00  0.00    +0.000 C 
ATOM     10  H   UNL     1       8.379   6.258  14.400  0.00  0.00    +0.000 HD
BRANCH   3  11
ATOM     11  C   UNL     1       5.669   3.206  12.288  0.00  0.00    +0.000 C 
ATOM     12  O   UNL     1       6.082   2.178  11.768  0.00  0.00    +0.000 OA
BRANCH  11  13
ATOM     13  O   UNL     1       4.513   3.827  11.906  0.00  0.00    +0.000 OA
BRANCH  13  15
ATOM     14  C   UNL     1       3.150   4.063   9.962  0.00  0.00    +0.000 C 
ATOM     15  C   UNL     1       3.683   3.091  11.002  0.00  0.00    +0.000 C 
ENDBRANCH  13  15
ENDBRANCH  11  13
ENDBRANCH   3  11
ENDBRANCH   1   7
BRANCH   1  16
ATOM     16  O   UNL     1       6.551   6.346  17.012  0.00  0.00    +0.000 OA
BRANCH  16  17
ATOM     17  C   UNL     1       5.771   6.234  18.217  0.00  0.00    +0.000 C 
BRANCH  17  18
ATOM     18  C   UNL     1       4.287   6.396  17.889  0.00  0.00    +0.000 C 
ATOM     19  O   UNL     1       3.869   7.480  17.457  0.00  0.00    +0.000 OA
ATOM     20  N   UNL     1       3.419   5.337  18.069  0.00  0.00    +0.000 N 
ATOM     21  C   UNL     1       2.029   5.475  17.602  0.00  0.00    +0.000 C 
ATOM     22  C   UNL     1       1.260   4.235  18.053  0.00  0.00    +0.000 C 
ATOM     23  C   UNL     1       2.365   3.354  18.536  0.00  0.00    +0.000 A 
ATOM     24  C   UNL     1       2.230   2.045  18.979  0.00  0.00    +0.000 A 
ATOM     25  C   UNL     1       3.353   1.402  19.491  0.00  0.00    +0.000 A 
ATOM     26  C   UNL     1       4.577   2.077  19.559  0.00  0.00    +0.000 A 
ATOM     27  C   UNL     1       4.701   3.399  19.104  0.00  0.00    +0.000 A 
ATOM     28  C   UNL     1       3.589   4.035  18.580  0.00  0.00    +0.000 A 
ENDBRANCH  17  18
ENDBRANCH  16  17
ENDBRANCH   1  16
TORSDOF 7
ENDMDL
MODEL 3
REMARK VINA RESULT:      -7.6      2.757      4.788
REMARK  Name = 
REMARK  10 active torsions:
REMARK  status: ('A' for Active; 'I' for Inactive)
REMARK    1  A    between atoms: C_1  and  C_2
REMARK    2  A    between atoms: C_2  and  O_3
REMARK    3  A    between atoms: O_3  and  C_4
REMARK    4  A    between atoms: C_4  and  C_6
REMARK    5  A    between atoms: C_7  and  C_8
REMARK    6  A    between atoms: C_10  and  C_11
REMARK    7  A    between atoms: C_11  and  O_13
REMARK    8  A    between atoms: O_13  and  C_14
REMARK    9  A    between atoms: C_14  and  C_15
REMARK   10  A    between atoms: C_26  and  C_27
REMARK                            x       y       z     vdW  Elec       q    Type
REMARK                         _______ _______ _______ _____ _____    ______ ____
ROOT
ATOM      1  C   UNL     1       3.161   4.209  19.874  0.00  0.00    +0.000 C 
ATOM      2  O   UNL     1       3.145   3.259  20.652  0.00  0.00    +0.000 OA
ENDROOT
BRANCH   1   7
ATOM      3  C   UNL     1       5.527   4.918  17.092  0.00  0.00    +0.000 A 
ATOM      4  C   UNL     1       6.225   5.337  18.221  0.00  0.00    +0.000 A 
ATOM      5  C   UNL     1       7.555   5.993  18.375  0.00  0.00    +0.000 C 
ATOM      6  N   UNL     1       5.440   5.086  19.323  0.00  0.00    +0.000 N 
ATOM      7  C   UNL     1       4.235   4.526  18.954  0.00  0.00    +0.000 A 
ATOM      8  C   UNL     1       4.259   4.409  17.568  0.00  0.00    +0.000 A 
ATOM      9  C   UNL     1       3.159   3.898  16.694  0.00  0.00    +0.000 C 
ATOM     10  H   UNL     1       5.679   5.326  20.277  0.00  0.00    +0.000 HD
BRANCH   3  11
ATOM     11  C   UNL     1       5.977   5.056  15.699  0.00  0.00    +0.000 C 
ATOM     12  O   UNL     1       6.123   6.127  15.123  0.00  0.00    +0.000 OA
BRANCH  11  13
ATOM     13  O   UNL     1       6.120   3.847  15.080  0.00  0.00    +0.000 OA
BRANCH  13  15
ATOM     14  C   UNL     1       5.406   3.499  12.831  0.00  0.00    +0.000 C 
ATOM     15  C   UNL     1       6.571   3.894  13.723  0.00  0.00    +0.000 C 
ENDBRANCH  13  15
ENDBRANCH  11  13
ENDBRANCH   3  11
ENDBRANCH   1   7
BRANCH   1  16
ATOM     16  O   UNL     1       2.124   5.085  19.736  0.00  0.00    +0.000 OA
BRANCH  16  17
ATOM     17  C   UNL     1       2.417   6.394  20.255  0.00  0.00    +0.000 C 
BRANCH  17  18
ATOM     18  C   UNL     1       2.217   7.441  19.160  0.00  0.00    +0.000 C 
ATOM     19  O   UNL     1       2.696   7.249  18.033  0.00  0.00    +0.000 OA
ATOM     20  N   UNL     1       1.501   8.593  19.425  0.00  0.00    +0.000 N 
ATOM     21  C   UNL     1       1.196   9.508  18.312  0.00  0.00    +0.000 C 
ATOM     22  C   UNL     1       0.536  10.754  18.900  0.00  0.00    +0.000 C 
ATOM     23  C   UNL     1       0.286  10.326  20.309  0.00  0.00    +0.000 A 
ATOM     24  C   UNL     1      -0.388  11.060  21.277  0.00  0.00    +0.000 A 
ATOM     25  C   UNL     1      -0.441  10.552  22.571  0.00  0.00    +0.000 A 
ATOM     26  C   UNL     1       0.183   9.337  22.875  0.00  0.00    +0.000 A 
ATOM     27  C   UNL     1       0.857   8.603  21.886  0.00  0.00    +0.000 A 
ATOM     28  C   UNL     1       0.899   9.098  20.594  0.00  0.00    +0.000 A 
ENDBRANCH  17  18
ENDBRANCH  16  17
ENDBRANCH   1  16
TORSDOF 7
ENDMDL
MODEL 4
REMARK VINA RESULT:      -7.5      3.026      5.408
REMARK  Name = 
REMARK  10 active torsions:
REMARK  status: ('A' for Active; 'I' for Inactive)
REMARK    1  A    between atoms: C_1  and  C_2
REMARK    2  A    between atoms: C_2  and  O_3
REMARK    3  A    between atoms: O_3  and  C_4
REMARK    4  A    between atoms: C_4  and  C_6
REMARK    5  A    between atoms: C_7  and  C_8
REMARK    6  A    between atoms: C_10  and  C_11
REMARK    7  A    between atoms: C_11  and  O_13
REMARK    8  A    between atoms: O_13  and  C_14
REMARK    9  A    between atoms: C_14  and  C_15
REMARK   10  A    between atoms: C_26  and  C_27
REMARK                            x       y       z     vdW  Elec       q    Type
REMARK                         _______ _______ _______ _____ _____    ______ ____
ROOT
ATOM      1  C   UNL     1       2.478   4.420  18.016  0.00  0.00    +0.000 C 
ATOM      2  O   UNL     1       1.958   3.400  18.458  0.00  0.00    +0.000 OA
ENDROOT
BRANCH   1   7
ATOM      3  C   UNL     1       6.128   4.754  17.376  0.00  0.00    +0.000 A 
ATOM      4  C   UNL     1       5.614   4.406  16.130  0.00  0.00    +0.000 A 
ATOM      5  C   UNL     1       6.283   4.130  14.826  0.00  0.00    +0.000 C 
ATOM      6  N   UNL     1       4.249   4.287  16.251  0.00  0.00    +0.000 N 
ATOM      7  C   UNL     1       3.845   4.533  17.546  0.00  0.00    +0.000 A 
ATOM      8  C   UNL     1       4.995   4.827  18.273  0.00  0.00    +0.000 A 
ATOM      9  C   UNL     1       5.078   5.119  19.736  0.00  0.00    +0.000 C 
ATOM     10  H   UNL     1       3.619   4.005  15.510  0.00  0.00    +0.000 HD
BRANCH   3  11
ATOM     11  C   UNL     1       7.551   4.923  17.706  0.00  0.00    +0.000 C 
ATOM     12  O   UNL     1       8.382   4.024  17.666  0.00  0.00    +0.000 OA
BRANCH  11  13
ATOM     13  O   UNL     1       7.829   6.180  18.164  0.00  0.00    +0.000 OA
BRANCH  13  15
ATOM     14  C   UNL     1       8.035   8.538  17.872  0.00  0.00    +0.000 C 
ATOM     15  C   UNL     1       7.474   7.253  17.287  0.00  0.00    +0.000 C 
ENDBRANCH  13  15
ENDBRANCH  11  13
ENDBRANCH   3  11
ENDBRANCH   1   7
BRANCH   1  16
ATOM     16  O   UNL     1       1.808   5.599  17.860  0.00  0.00    +0.000 OA
BRANCH  16  17
ATOM     17  C   UNL     1       2.131   6.570  18.871  0.00  0.00    +0.000 C 
BRANCH  17  18
ATOM     18  C   UNL     1       2.277   7.952  18.233  0.00  0.00    +0.000 C 
ATOM     19  O   UNL     1       2.893   8.071  17.165  0.00  0.00    +0.000 OA
ATOM     20  N   UNL     1       1.721   9.059  18.844  0.00  0.00    +0.000 N 
ATOM     21  C   UNL     1       1.747  10.347  18.131  0.00  0.00    +0.000 C 
ATOM     22  C   UNL     1       1.208  11.417  19.079  0.00  0.00    +0.000 C 
ATOM     23  C   UNL     1       0.671  10.585  20.198  0.00  0.00    +0.000 A 
ATOM     24  C   UNL     1      -0.023  11.055  21.304  0.00  0.00    +0.000 A 
ATOM     25  C   UNL     1      -0.363  10.150  22.305  0.00  0.00    +0.000 A 
ATOM     26  C   UNL     1       0.003   8.804  22.187  0.00  0.00    +0.000 A 
ATOM     27  C   UNL     1       0.701   8.340  21.061  0.00  0.00    +0.000 A 
ATOM     28  C   UNL     1       1.028   9.236  20.058  0.00  0.00    +0.000 A 
ENDBRANCH  17  18
ENDBRANCH  16  17
ENDBRANCH   1  16
TORSDOF 7
ENDMDL
MODEL 5
REMARK VINA RESULT:      -7.4      1.341      2.857
REMARK  Name = 
REMARK  10 active torsions:
REMARK  status: ('A' for Active; 'I' for Inactive)
REMARK    1  A    between atoms: C_1  and  C_2
REMARK    2  A    between atoms: C_2  and  O_3
REMARK    3  A    between atoms: O_3  and  C_4
REMARK    4  A    between atoms: C_4  and  C_6
REMARK    5  A    between atoms: C_7  and  C_8
REMARK    6  A    between atoms: C_10  and  C_11
REMARK    7  A    between atoms: C_11  and  O_13
REMARK    8  A    between atoms: O_13  and  C_14
REMARK    9  A    between atoms: C_14  and  C_15
REMARK   10  A    between atoms: C_26  and  C_27
REMARK                            x       y       z     vdW  Elec       q    Type
REMARK                         _______ _______ _______ _____ _____    ______ ____
ROOT
ATOM      1  C   UNL     1       6.522   5.156  17.372  0.00  0.00    +0.000 C 
ATOM      2  O   UNL     1       7.023   4.515  18.292  0.00  0.00    +0.000 OA
ENDROOT
BRANCH   1   7
ATOM      3  C   UNL     1       6.524   4.116  13.800  0.00  0.00    +0.000 A 
ATOM      4  C   UNL     1       7.459   5.147  13.835  0.00  0.00    +0.000 A 
ATOM      5  C   UNL     1       8.252   5.799  12.754  0.00  0.00    +0.000 C 
ATOM      6  N   UNL     1       7.559   5.587  15.134  0.00  0.00    +0.000 N 
ATOM      7  C   UNL     1       6.705   4.886  15.960  0.00  0.00    +0.000 A 
ATOM      8  C   UNL     1       6.045   3.961  15.156  0.00  0.00    +0.000 A 
ATOM      9  C   UNL     1       4.985   2.998  15.585  0.00  0.00    +0.000 C 
ATOM     10  H   UNL     1       8.136   6.357  15.448  0.00  0.00    +0.000 HD
BRANCH   3  11
ATOM     11  C   UNL     1       6.071   3.403  12.597  0.00  0.00    +0.000 C 
ATOM     12  O   UNL     1       6.772   2.648  11.935  0.00  0.00    +0.000 OA
BRANCH  11  13
ATOM     13  O   UNL     1       4.801   3.756  12.235  0.00  0.00    +0.000 OA
BRANCH  13  15
ATOM     14  C   UNL     1       3.319   3.849  10.369  0.00  0.00    +0.000 C 
ATOM     15  C   UNL     1       4.198   2.948  11.220  0.00  0.00    +0.000 C 
ENDBRANCH  13  15
ENDBRANCH  11  13
ENDBRANCH   3  11
ENDBRANCH   1   7
BRANCH   1  16
ATOM     16  O   UNL     1       5.668   6.203  17.564  0.00  0.00    +0.000 OA
BRANCH  16  17
ATOM     17  C   UNL     1       4.293   5.865  17.308  0.00  0.00    +0.000 C 
BRANCH  17  18
ATOM     18  C   UNL     1       3.609   5.463  18.615  0.00  0.00    +0.000 C 
ATOM     19  O   UNL     1       3.808   4.335  19.089  0.00  0.00    +0.000 OA
ATOM     20  N   UNL     1       2.778   6.355  19.264  0.00  0.00    +0.000 N 
ATOM     21  C   UNL     1       2.256   5.995  20.594  0.00  0.00    +0.000 C 
ATOM     22  C   UNL     1       1.260   7.075  21.012  0.00  0.00    +0.000 C 
ATOM     23  C   UNL     1       1.491   8.118  19.968  0.00  0.00    +0.000 A 
ATOM     24  C   UNL     1       0.900   9.374  19.925  0.00  0.00    +0.000 A 
ATOM     25  C   UNL     1       1.151  10.184  18.822  0.00  0.00    +0.000 A 
ATOM     26  C   UNL     1       1.972   9.725  17.787  0.00  0.00    +0.000 A 
ATOM     27  C   UNL     1       2.568   8.455  17.845  0.00  0.00    +0.000 A 
ATOM     28  C   UNL     1       2.332   7.653  18.948  0.00  0.00    +0.000 A 
ENDBRANCH  17  18
ENDBRANCH  16  17
ENDBRANCH   1  16
TORSDOF 7
ENDMDL
MODEL 6
REMARK VINA RESULT:      -7.4      0.852      1.238
REMARK  Name = 
REMARK  10 active torsions:
REMARK  status: ('A' for Active; 'I' for Inactive)
REMARK    1  A    between atoms: C_1  and  C_2
REMARK    2  A    between atoms: C_2  and  O_3
REMARK    3  A    between atoms: O_3  and  C_4
REMARK    4  A    between atoms: C_4  and  C_6
REMARK    5  A    between atoms: C_7  and  C_8
REMARK    6  A    between atoms: C_10  and  C_11
REMARK    7  A    between atoms: C_11  and  O_13
REMARK    8  A    between atoms: O_13  and  C_14
REMARK    9  A    between atoms: C_14  and  C_15
REMARK   10  A    between atoms: C_26  and  C_27
REMARK                            x       y       z     vdW  Elec       q    Type
REMARK                         _______ _______ _______ _____ _____    ______ ____
ROOT
ATOM      1  C   UNL     1       7.020   5.035  17.285  0.00  0.00    +0.000 C 
ATOM      2  O   UNL     1       7.684   4.398  18.097  0.00  0.00    +0.000 OA
ENDROOT
BRANCH   1   7
ATOM      3  C   UNL     1       6.385   4.040  13.757  0.00  0.00    +0.000 A 
ATOM      4  C   UNL     1       7.361   5.026  13.641  0.00  0.00    +0.000 A 
ATOM      5  C   UNL     1       7.997   5.654  12.448  0.00  0.00    +0.000 C 
ATOM      6  N   UNL     1       7.694   5.445  14.909  0.00  0.00    +0.000 N 
ATOM      7  C   UNL     1       6.955   4.774  15.861  0.00  0.00    +0.000 A 
ATOM      8  C   UNL     1       6.128   3.892  15.172  0.00  0.00    +0.000 A 
ATOM      9  C   UNL     1       5.107   2.975  15.766  0.00  0.00    +0.000 C 
ATOM     10  H   UNL     1       8.352   6.183  15.126  0.00  0.00    +0.000 HD
BRANCH   3  11
ATOM     11  C   UNL     1       5.706   3.365  12.641  0.00  0.00    +0.000 C 
ATOM     12  O   UNL     1       4.647   3.735  12.150  0.00  0.00    +0.000 OA
BRANCH  11  13
ATOM     13  O   UNL     1       6.338   2.210  12.275  0.00  0.00    +0.000 OA
BRANCH  13  15
ATOM     14  C   UNL     1       6.235   0.065  11.239  0.00  0.00    +0.000 C 
ATOM     15  C   UNL     1       5.754   1.504  11.176  0.00  0.00    +0.000 C 
ENDBRANCH  13  15
ENDBRANCH  11  13
ENDBRANCH   3  11
ENDBRANCH   1   7
BRANCH   1  16
ATOM     16  O   UNL     1       6.198   6.068  17.631  0.00  0.00    +0.000 OA
BRANCH  16  17
ATOM     17  C   UNL     1       4.880   5.956  17.065  0.00  0.00    +0.000 C 
BRANCH  17  18
ATOM     18  C   UNL     1       3.903   6.828  17.854  0.00  0.00    +0.000 C 
ATOM     19  O   UNL     1       3.749   8.016  17.539  0.00  0.00    +0.000 OA
ATOM     20  N   UNL     1       3.193   6.290  18.910  0.00  0.00    +0.000 N 
ATOM     21  C   UNL     1       2.151   7.110  19.552  0.00  0.00    +0.000 C 
ATOM     22  C   UNL     1       1.634   6.342  20.766  0.00  0.00    +0.000 C 
ATOM     23  C   UNL     1       2.265   5.002  20.566  0.00  0.00    +0.000 A 
ATOM     24  C   UNL     1       2.052   3.875  21.349  0.00  0.00    +0.000 A 
ATOM     25  C   UNL     1       2.802   2.734  21.081  0.00  0.00    +0.000 A 
ATOM     26  C   UNL     1       3.749   2.743  20.051  0.00  0.00    +0.000 A 
ATOM     27  C   UNL     1       3.951   3.888  19.264  0.00  0.00    +0.000 A 
ATOM     28  C   UNL     1       3.196   5.020  19.519  0.00  0.00    +0.000 A 
ENDBRANCH  17  18
ENDBRANCH  16  17
ENDBRANCH   1  16
TORSDOF 7
ENDMDL
MODEL 7
REMARK VINA RESULT:      -7.4      2.993      4.929
REMARK  Name = 
REMARK  10 active torsions:
REMARK  status: ('A' for Active; 'I' for Inactive)
REMARK    1  A    between atoms: C_1  and  C_2
REMARK    2  A    between atoms: C_2  and  O_3
REMARK    3  A    between atoms: O_3  and  C_4
REMARK    4  A    between atoms: C_4  and  C_6
REMARK    5  A    between atoms: C_7  and  C_8
REMARK    6  A    between atoms: C_10  and  C_11
REMARK    7  A    between atoms: C_11  and  O_13
REMARK    8  A    between atoms: O_13  and  C_14
REMARK    9  A    between atoms: C_14  and  C_15
REMARK   10  A    between atoms: C_26  and  C_27
REMARK                            x       y       z     vdW  Elec       q    Type
REMARK                         _______ _______ _______ _____ _____    ______ ____
ROOT
ATOM      1  C   UNL     1       3.191   5.165  19.463  0.00  0.00    +0.000 C 
ATOM      2  O   UNL     1       3.095   4.315  20.343  0.00  0.00    +0.000 OA
ENDROOT
BRANCH   1   7
ATOM      3  C   UNL     1       5.945   5.224  16.961  0.00  0.00    +0.000 A 
ATOM      4  C   UNL     1       6.137   6.403  17.677  0.00  0.00    +0.000 A 
ATOM      5  C   UNL     1       7.116   7.514  17.509  0.00  0.00    +0.000 C 
ATOM      6  N   UNL     1       5.177   6.464  18.660  0.00  0.00    +0.000 N 
ATOM      7  C   UNL     1       4.344   5.365  18.607  0.00  0.00    +0.000 A 
ATOM      8  C   UNL     1       4.798   4.574  17.556  0.00  0.00    +0.000 A 
ATOM      9  C   UNL     1       4.192   3.295  17.073  0.00  0.00    +0.000 C 
ATOM     10  H   UNL     1       5.052   7.231  19.308  0.00  0.00    +0.000 HD
BRANCH   3  11
ATOM     11  C   UNL     1       6.715   4.795  15.784  0.00  0.00    +0.000 C 
ATOM     12  O   UNL     1       7.881   4.422  15.819  0.00  0.00    +0.000 OA
BRANCH  11  13
ATOM     13  O   UNL     1       6.015   4.956  14.622  0.00  0.00    +0.000 OA
BRANCH  13  15
ATOM     14  C   UNL     1       5.703   3.449  12.800  0.00  0.00    +0.000 C 
ATOM     15  C   UNL     1       6.647   4.451  13.442  0.00  0.00    +0.000 C 
ENDBRANCH  13  15
ENDBRANCH  11  13
ENDBRANCH   3  11
ENDBRANCH   1   7
BRANCH   1  16
ATOM     16  O   UNL     1       2.183   6.024  19.133  0.00  0.00    +0.000 OA
BRANCH  16  17
ATOM     17  C   UNL     1       2.112   7.171  20.000  0.00  0.00    +0.000 C 
BRANCH  17  18
ATOM     18  C   UNL     1       1.956   8.441  19.164  0.00  0.00    +0.000 C 
ATOM     19  O   UNL     1       2.503   8.517  18.055  0.00  0.00    +0.000 OA
ATOM     20  N   UNL     1       1.204   9.496  19.642  0.00  0.00    +0.000 N 
ATOM     21  C   UNL     1       0.947  10.642  18.753  0.00  0.00    +0.000 C 
ATOM     22  C   UNL     1       0.230  11.715  19.570  0.00  0.00    +0.000 C 
ATOM     23  C   UNL     1      -0.094  10.973  20.825  0.00  0.00    +0.000 A 
ATOM     24  C   UNL     1      -0.837  11.460  21.892  0.00  0.00    +0.000 A 
ATOM     25  C   UNL     1      -0.957  10.667  23.029  0.00  0.00    +0.000 A 
ATOM     26  C   UNL     1      -0.328   9.418  23.083  0.00  0.00    +0.000 A 
ATOM     27  C   UNL     1       0.416   8.935  21.996  0.00  0.00    +0.000 A 
ATOM     28  C   UNL     1       0.525   9.715  20.857  0.00  0.00    +0.000 A 
ENDBRANCH  17  18
ENDBRANCH  16  17
ENDBRANCH   1  16
TORSDOF 7
ENDMDL
MODEL 8
REMARK VINA RESULT:      -7.3      4.610      7.924
REMARK  Name = 
REMARK  10 active torsions:
REMARK  status: ('A' for Active; 'I' for Inactive)
REMARK    1  A    between atoms: C_1  and  C_2
REMARK    2  A    between atoms: C_2  and  O_3
REMARK    3  A    between atoms: O_3  and  C_4
REMARK    4  A    between atoms: C_4  and  C_6
REMARK    5  A    between atoms: C_7  and  C_8
REMARK    6  A    between atoms: C_10  and  C_11
REMARK    7  A    between atoms: C_11  and  O_13
REMARK    8  A    between atoms: O_13  and  C_14
REMARK    9  A    between atoms: C_14  and  C_15
REMARK   10  A    between atoms: C_26  and  C_27
REMARK                            x       y       z     vdW  Elec       q    Type
REMARK                         _______ _______ _______ _____ _____    ______ ____
ROOT
ATOM      1  C   UNL     1       1.398   8.450  20.933  0.00  0.00    +0.000 C 
ATOM      2  O   UNL     1       1.703   8.875  22.044  0.00  0.00    +0.000 OA
ENDROOT
BRANCH   1   7
ATOM      3  C   UNL     1       2.777   5.560  19.039  0.00  0.00    +0.000 A 
ATOM      4  C   UNL     1       2.358   4.988  20.238  0.00  0.00    +0.000 A 
ATOM      5  C   UNL     1       2.465   3.596  20.760  0.00  0.00    +0.000 C 
ATOM      6  N   UNL     1       1.796   5.979  21.008  0.00  0.00    +0.000 N 
ATOM      7  C   UNL     1       1.844   7.196  20.360  0.00  0.00    +0.000 A 
ATOM      8  C   UNL     1       2.452   6.967  19.129  0.00  0.00    +0.000 A 
ATOM      9  C   UNL     1       2.771   7.988  18.085  0.00  0.00    +0.000 C 
ATOM     10  H   UNL     1       1.441   5.858  21.948  0.00  0.00    +0.000 HD
BRANCH   3  11
ATOM     11  C   UNL     1       3.484   4.866  17.954  0.00  0.00    +0.000 C 
ATOM     12  O   UNL     1       2.982   4.010  17.237  0.00  0.00    +0.000 OA
BRANCH  11  13
ATOM     13  O   UNL     1       4.806   5.209  17.896  0.00  0.00    +0.000 OA
BRANCH  13  15
ATOM     14  C   UNL     1       6.937   5.594  18.896  0.00  0.00    +0.000 C 
ATOM     15  C   UNL     1       5.557   4.991  19.094  0.00  0.00    +0.000 C 
ENDBRANCH  13  15
ENDBRANCH  11  13
ENDBRANCH   3  11
ENDBRANCH   1   7
BRANCH   1  16
ATOM     16  O   UNL     1       0.540   9.095  20.090  0.00  0.00    +0.000 OA
BRANCH  16  17
ATOM     17  C   UNL     1       0.858  10.488  19.918  0.00  0.00    +0.000 C 
BRANCH  17  18
ATOM     18  C   UNL     1      -0.193  11.349  20.617  0.00  0.00    +0.000 C 
ATOM     19  O   UNL     1       0.051  11.829  21.734  0.00  0.00    +0.000 OA
ATOM     20  N   UNL     1      -1.407  11.593  20.005  0.00  0.00    +0.000 N 
ATOM     21  C   UNL     1      -2.336  12.547  20.633  0.00  0.00    +0.000 C 
ATOM     22  C   UNL     1      -3.642  12.518  19.841  0.00  0.00    +0.000 C 
ATOM     23  C   UNL     1      -3.251  11.712  18.645  0.00  0.00    +0.000 A 
ATOM     24  C   UNL     1      -4.051  11.451  17.541  0.00  0.00    +0.000 A 
ATOM     25  C   UNL     1      -3.561  10.594  16.559  0.00  0.00    +0.000 A 
ATOM     26  C   UNL     1      -2.297  10.012  16.704  0.00  0.00    +0.000 A 
ATOM     27  C   UNL     1      -1.496  10.288  17.823  0.00  0.00    +0.000 A 
ATOM     28  C   UNL     1      -1.975  11.151  18.794  0.00  0.00    +0.000 A 
ENDBRANCH  17  18
ENDBRANCH  16  17
ENDBRANCH   1  16
TORSDOF 7
ENDMDL
MODEL 9
REMARK VINA RESULT:      -7.3      4.119      7.583
REMARK  Name = 
REMARK  10 active torsions:
REMARK  status: ('A' for Active; 'I' for Inactive)
REMARK    1  A    between atoms: C_1  and  C_2
REMARK    2  A    between atoms: C_2  and  O_3
REMARK    3  A    between atoms: O_3  and  C_4
REMARK    4  A    between atoms: C_4  and  C_6
REMARK    5  A    between atoms: C_7  and  C_8
REMARK    6  A    between atoms: C_10  and  C_11
REMARK    7  A    between atoms: C_11  and  O_13
REMARK    8  A    between atoms: O_13  and  C_14
REMARK    9  A    between atoms: C_14  and  C_15
REMARK   10  A    between atoms: C_26  and  C_27
REMARK                            x       y       z     vdW  Elec       q    Type
REMARK                         _______ _______ _______ _____ _____    ______ ____
ROOT
ATOM      1  C   UNL     1       1.726   7.963  20.189  0.00  0.00    +0.000 C 
ATOM      2  O   UNL     1       1.631   8.842  19.337  0.00  0.00    +0.000 OA
ENDROOT
BRANCH   1   7
ATOM      3  C   UNL     1       3.419   4.796  19.215  0.00  0.00    +0.000 A 
ATOM      4  C   UNL     1       2.727   4.447  20.371  0.00  0.00    +0.000 A 
ATOM      5  C   UNL     1       2.678   3.177  21.149  0.00  0.00    +0.000 C 
ATOM      6  N   UNL     1       2.033   5.554  20.801  0.00  0.00    +0.000 N 
ATOM      7  C   UNL     1       2.257   6.632  19.970  0.00  0.00    +0.000 A 
ATOM      8  C   UNL     1       3.119   6.190  18.971  0.00  0.00    +0.000 A 
ATOM      9  C   UNL     1       3.691   7.008  17.857  0.00  0.00    +0.000 C 
ATOM     10  H   UNL     1       1.472   5.602  21.643  0.00  0.00    +0.000 HD
BRANCH   3  11
ATOM     11  C   UNL     1       4.334   3.926  18.462  0.00  0.00    +0.000 C 
ATOM     12  O   UNL     1       4.018   3.285  17.468  0.00  0.00    +0.000 OA
BRANCH  11  13
ATOM     13  O   UNL     1       5.561   3.830  19.056  0.00  0.00    +0.000 OA
BRANCH  13  15
ATOM     14  C   UNL     1       7.286   4.669  17.639  0.00  0.00    +0.000 C 
ATOM     15  C   UNL     1       6.433   4.948  18.865  0.00  0.00    +0.000 C 
ENDBRANCH  13  15
ENDBRANCH  11  13
ENDBRANCH   3  11
ENDBRANCH   1   7
BRANCH   1  16
ATOM     16  O   UNL     1       1.379   8.142  21.496  0.00  0.00    +0.000 OA
BRANCH  16  17
ATOM     17  C   UNL     1      -0.013   8.462  21.673  0.00  0.00    +0.000 C 
BRANCH  17  18
ATOM     18  C   UNL     1      -0.148   9.838  22.324  0.00  0.00    +0.000 C 
ATOM     19  O   UNL     1       0.112   9.976  23.528  0.00  0.00    +0.000 OA
ATOM     20  N   UNL     1      -0.554  10.923  21.571  0.00  0.00    +0.000 N 
ATOM     21  C   UNL     1      -0.529  12.260  22.186  0.00  0.00    +0.000 C 
ATOM     22  C   UNL     1      -1.159  13.241  21.199  0.00  0.00    +0.000 C 
ATOM     23  C   UNL     1      -1.267  12.402  19.968  0.00  0.00    +0.000 A 
ATOM     24  C   UNL     1      -1.697  12.834  18.721  0.00  0.00    +0.000 A 
ATOM     25  C   UNL     1      -1.833  11.892  17.706  0.00  0.00    +0.000 A 
ATOM     26  C   UNL     1      -1.548  10.545  17.957  0.00  0.00    +0.000 A 
ATOM     27  C   UNL     1      -1.109  10.121  19.221  0.00  0.00    +0.000 A 
ATOM     28  C   UNL     1      -0.959  11.059  20.228  0.00  0.00    +0.000 A 
ENDBRANCH  17  18
ENDBRANCH  16  17
ENDBRANCH   1  16
TORSDOF 7
ENDMDL
