MODEL 1
REMARK VINA RESULT:      -6.8      0.000      0.000
REMARK  Name = 
REMARK  7 active torsions:
REMARK  status: ('A' for Active; 'I' for Inactive)
REMARK    1  A    between atoms: C_1  and  C_2
REMARK    2  A    between atoms: C_2  and  O_3
REMARK    3  A    between atoms: O_3  and  C_4
REMARK    4  A    between atoms: C_11  and  N_12
REMARK    5  A    between atoms: C_15  and  C_16
REMARK    6  A    between atoms: C_20  and  O_21
REMARK    7  A    between atoms: O_21  and  C_22
REMARK                            x       y       z     vdW  Elec       q    Type
REMARK                         _______ _______ _______ _____ _____    ______ ____
ROOT
ATOM      1  C   UNL     1       4.345   3.674  17.149  0.00  0.00    +0.000 C 
ATOM      2  O   UNL     1       3.942   2.961  18.053  0.00  0.00    +0.000 OA
ATOM      3  N   UNL     1       4.159   5.011  16.965  0.00  0.00    +0.000 N 
ATOM      4  C   UNL     1       3.521   5.868  17.860  0.00  0.00    +0.000 A 
ATOM      5  C   UNL     1       3.315   7.179  17.454  0.00  0.00    +0.000 A 
ATOM      6  C   UNL     1       2.621   8.050  18.299  0.00  0.00    +0.000 A 
ATOM      7  C   UNL     1       2.162   7.604  19.533  0.00  0.00    +0.000 A 
ATOM      8  C   UNL     1       2.493   6.282  19.883  0.00  0.00    +0.000 A 
ATOM      9  N   UNL     1       3.140   5.430  19.068  0.00  0.00    +0.000 NA
ATOM     10  N   UNL     1       1.371   8.363  20.418  0.00  0.00    +0.000 NA
ATOM     11  C   UNL     1       0.845   9.504  20.086  0.00  0.00    +0.000 C 
ATOM     12  C   UNL     1       1.021  10.231  18.771  0.00  0.00    +0.000 C 
ATOM     13  S   UNL     1       2.416   9.727  17.756  0.00  0.00    +0.000 S 
ATOM     14  H   UNL     1       4.537   5.378  16.111  0.00  0.00    +0.000 HD
ENDROOT
BRANCH  11  15
ATOM     15  C   UNL     1      -0.103  10.131  21.072  0.00  0.00    +0.000 A 
ATOM     16  C   UNL     1      -0.182   9.671  22.393  0.00  0.00    +0.000 A 
ATOM     17  C   UNL     1      -1.013  10.311  23.308  0.00  0.00    +0.000 A 
ATOM     18  C   UNL     1      -1.772  11.409  22.906  0.00  0.00    +0.000 A 
ATOM     19  C   UNL     1      -1.709  11.876  21.591  0.00  0.00    +0.000 A 
ATOM     20  C   UNL     1      -0.866  11.242  20.676  0.00  0.00    +0.000 A 
BRANCH  19  21
ATOM     21  O   UNL     1      -2.512  12.952  21.335  0.00  0.00    +0.000 OA
ATOM     22  C   UNL     1      -3.561  13.207  22.261  0.00  0.00    +0.000 C 
ENDBRANCH  19  21
ENDBRANCH  11  15
BRANCH   8  23
ATOM     23  N   UNL     1       2.213   5.784  21.162  0.00  0.00    +0.000 N 
ATOM     24  H   UNL     1       1.371   6.207  21.529  0.00  0.00    +0.000 HD
ATOM     25  H   UNL     1       2.189   4.770  21.097  0.00  0.00    +0.000 HD
ENDBRANCH   8  23
BRANCH   1  26
ATOM     26  O   UNL     1       5.106   3.222  16.111  0.00  0.00    +0.000 OA
BRANCH  26  28
ATOM     27  C   UNL     1       5.872   3.793  13.907  0.00  0.00    +0.000 C 
ATOM     28  C   UNL     1       5.763   4.248  15.352  0.00  0.00    +0.000 C 
ENDBRANCH  26  28
ENDBRANCH   1  26
TORSDOF 5
ENDMDL
MODEL 2
REMARK VINA RESULT:      -6.8      2.361      9.067
REMARK  Name = 
REMARK  7 active torsions:
REMARK  status: ('A' for Active; 'I' for Inactive)
REMARK    1  A    between atoms: C_1  and  C_2
REMARK    2  A    between atoms: C_2  and  O_3
REMARK    3  A    between atoms: O_3  and  C_4
REMARK    4  A    between atoms: C_11  and  N_12
REMARK    5  A    between atoms: C_15  and  C_16
REMARK    6  A    between atoms: C_20  and  O_21
REMARK    7  A    between atoms: O_21  and  C_22
REMARK                            x       y       z     vdW  Elec       q    Type
REMARK                         _______ _______ _______ _____ _____    ______ ____
ROOT
ATOM      1  C   UNL     1      -0.402  13.919  22.316  0.00  0.00    +0.000 C 
ATOM      2  O   UNL     1      -0.486  13.475  23.449  0.00  0.00    +0.000 OA
ATOM      3  N   UNL     1      -0.057  13.273  21.167  0.00  0.00    +0.000 N 
ATOM      4  C   UNL     1       0.190  11.907  21.052  0.00  0.00    +0.000 A 
ATOM      5  C   UNL     1       0.649  11.440  19.827  0.00  0.00    +0.000 A 
ATOM      6  C   UNL     1       0.969  10.087  19.694  0.00  0.00    +0.000 A 
ATOM      7  C   UNL     1       0.813   9.224  20.773  0.00  0.00    +0.000 A 
ATOM      8  C   UNL     1       0.266   9.781  21.944  0.00  0.00    +0.000 A 
ATOM      9  N   UNL     1      -0.024  11.087  22.089  0.00  0.00    +0.000 NA
ATOM     10  N   UNL     1       1.195   7.869  20.780  0.00  0.00    +0.000 NA
ATOM     11  C   UNL     1       1.895   7.332  19.826  0.00  0.00    +0.000 C 
ATOM     12  C   UNL     1       2.362   8.011  18.557  0.00  0.00    +0.000 C 
ATOM     13  S   UNL     1       1.513   9.528  18.099  0.00  0.00    +0.000 S 
ATOM     14  H   UNL     1       0.002  13.858  20.353  0.00  0.00    +0.000 HD
ENDROOT
BRANCH  11  15
ATOM     15  C   UNL     1       2.365   5.918  20.036  0.00  0.00    +0.000 A 
ATOM     16  C   UNL     1       1.549   4.971  20.667  0.00  0.00    +0.000 A 
ATOM     17  C   UNL     1       1.973   3.650  20.787  0.00  0.00    +0.000 A 
ATOM     18  C   UNL     1       3.217   3.273  20.284  0.00  0.00    +0.000 A 
ATOM     19  C   UNL     1       4.046   4.208  19.658  0.00  0.00    +0.000 A 
ATOM     20  C   UNL     1       3.615   5.529  19.526  0.00  0.00    +0.000 A 
BRANCH  19  21
ATOM     21  O   UNL     1       5.238   3.702  19.222  0.00  0.00    +0.000 OA
ATOM     22  C   UNL     1       5.973   4.492  18.295  0.00  0.00    +0.000 C 
ENDBRANCH  19  21
ENDBRANCH  11  15
BRANCH   8  23
ATOM     23  N   UNL     1      -0.075   8.972  23.035  0.00  0.00    +0.000 N 
ATOM     24  H   UNL     1      -0.523   8.123  22.717  0.00  0.00    +0.000 HD
ATOM     25  H   UNL     1       0.767   8.830  23.586  0.00  0.00    +0.000 HD
ENDBRANCH   8  23
BRANCH   1  26
ATOM     26  O   UNL     1      -0.668  15.216  21.990  0.00  0.00    +0.000 OA
BRANCH  26  28
ATOM     27  C   UNL     1      -3.007  15.681  21.701  0.00  0.00    +0.000 C 
ATOM     28  C   UNL     1      -1.817  15.780  22.639  0.00  0.00    +0.000 C 
ENDBRANCH  26  28
ENDBRANCH   1  26
TORSDOF 5
ENDMDL
MODEL 3
REMARK VINA RESULT:      -6.6      2.708      8.744
REMARK  Name = 
REMARK  7 active torsions:
REMARK  status: ('A' for Active; 'I' for Inactive)
REMARK    1  A    between atoms: C_1  and  C_2
REMARK    2  A    between atoms: C_2  and  O_3
REMARK    3  A    between atoms: O_3  and  C_4
REMARK    4  A    between atoms: C_11  and  N_12
REMARK    5  A    between atoms: C_15  and  C_16
REMARK    6  A    between atoms: C_20  and  O_21
REMARK    7  A    between atoms: O_21  and  C_22
REMARK                            x       y       z     vdW  Elec       q    Type
REMARK                         _______ _______ _______ _____ _____    ______ ____
ROOT
ATOM      1  C   UNL     1       0.297  14.340  21.551  0.00  0.00    +0.000 C 
ATOM      2  O   UNL     1       0.321  14.033  22.731  0.00  0.00    +0.000 OA
ATOM      3  N   UNL     1       0.481  13.548  20.458  0.00  0.00    +0.000 N 
ATOM      4  C   UNL     1       0.650  12.165  20.480  0.00  0.00    +0.000 A 
ATOM      5  C   UNL     1       0.946  11.536  19.279  0.00  0.00    +0.000 A 
ATOM      6  C   UNL     1       1.186  10.160  19.275  0.00  0.00    +0.000 A 
ATOM      7  C   UNL     1       1.111   9.436  20.460  0.00  0.00    +0.000 A 
ATOM      8  C   UNL     1       0.726  10.154  21.608  0.00  0.00    +0.000 A 
ATOM      9  N   UNL     1       0.515  11.482  21.625  0.00  0.00    +0.000 NA
ATOM     10  N   UNL     1       1.429   8.070  20.589  0.00  0.00    +0.000 NA
ATOM     11  C   UNL     1       1.991   7.388  19.637  0.00  0.00    +0.000 C 
ATOM     12  C   UNL     1       2.344   7.889  18.253  0.00  0.00    +0.000 C 
ATOM     13  S   UNL     1       1.521   9.391  17.710  0.00  0.00    +0.000 S 
ATOM     14  H   UNL     1       0.475  14.032  19.578  0.00  0.00    +0.000 HD
ENDROOT
BRANCH  11  15
ATOM     15  C   UNL     1       2.415   5.981  19.963  0.00  0.00    +0.000 A 
ATOM     16  C   UNL     1       1.574   5.120  20.679  0.00  0.00    +0.000 A 
ATOM     17  C   UNL     1       1.955   3.800  20.908  0.00  0.00    +0.000 A 
ATOM     18  C   UNL     1       3.180   3.339  20.430  0.00  0.00    +0.000 A 
ATOM     19  C   UNL     1       4.033   4.188  19.720  0.00  0.00    +0.000 A 
ATOM     20  C   UNL     1       3.646   5.507  19.479  0.00  0.00    +0.000 A 
BRANCH  19  21
ATOM     21  O   UNL     1       5.204   3.606  19.320  0.00  0.00    +0.000 OA
ATOM     22  C   UNL     1       5.966   4.301  18.341  0.00  0.00    +0.000 C 
ENDBRANCH  19  21
ENDBRANCH  11  15
BRANCH   8  23
ATOM     23  N   UNL     1       0.473   9.496  22.818  0.00  0.00    +0.000 N 
ATOM     24  H   UNL     1      -0.403   8.991  22.768  0.00  0.00    +0.000 HD
ATOM     25  H   UNL     1       1.285   8.923  23.031  0.00  0.00    +0.000 HD
ENDBRANCH   8  23
BRANCH   1  26
ATOM     26  O   UNL     1       0.058  15.605  21.102  0.00  0.00    +0.000 OA
BRANCH  26  28
ATOM     27  C   UNL     1       0.654  16.836  19.127  0.00  0.00    +0.000 C 
ATOM     28  C   UNL     1      -0.193  15.709  19.693  0.00  0.00    +0.000 C 
ENDBRANCH  26  28
ENDBRANCH   1  26
TORSDOF 5
ENDMDL
MODEL 4
REMARK VINA RESULT:      -6.5      2.244      3.511
REMARK  Name = 
REMARK  7 active torsions:
REMARK  status: ('A' for Active; 'I' for Inactive)
REMARK    1  A    between atoms: C_1  and  C_2
REMARK    2  A    between atoms: C_2  and  O_3
REMARK    3  A    between atoms: O_3  and  C_4
REMARK    4  A    between atoms: C_11  and  N_12
REMARK    5  A    between atoms: C_15  and  C_16
REMARK    6  A    between atoms: C_20  and  O_21
REMARK    7  A    between atoms: O_21  and  C_22
REMARK                            x       y       z     vdW  Elec       q    Type
REMARK                         _______ _______ _______ _____ _____    ______ ____
ROOT
ATOM      1  C   UNL     1       2.864   6.330  18.634  0.00  0.00    +0.000 C 
ATOM      2  O   UNL     1       2.921   5.791  19.727  0.00  0.00    +0.000 OA
ATOM      3  N   UNL     1       2.318   7.532  18.300  0.00  0.00    +0.000 N 
ATOM      4  C   UNL     1       1.778   8.451  19.198  0.00  0.00    +0.000 A 
ATOM      5  C   UNL     1       1.155   9.573  18.669  0.00  0.00    +0.000 A 
ATOM      6  C   UNL     1       0.545  10.483  19.536  0.00  0.00    +0.000 A 
ATOM      7  C   UNL     1       0.582  10.268  20.910  0.00  0.00    +0.000 A 
ATOM      8  C   UNL     1       1.306   9.143  21.347  0.00  0.00    +0.000 A 
ATOM      9  N   UNL     1       1.877   8.250  20.519  0.00  0.00    +0.000 NA
ATOM     10  N   UNL     1      -0.080  11.063  21.866  0.00  0.00    +0.000 NA
ATOM     11  C   UNL     1      -0.937  11.984  21.540  0.00  0.00    +0.000 C 
ATOM     12  C   UNL     1      -1.327  12.400  20.139  0.00  0.00    +0.000 C 
ATOM     13  S   UNL     1      -0.204  11.923  18.818  0.00  0.00    +0.000 S 
ATOM     14  H   UNL     1       2.334   7.748  17.320  0.00  0.00    +0.000 HD
ENDROOT
BRANCH  11  15
ATOM     15  C   UNL     1      -1.683  12.650  22.664  0.00  0.00    +0.000 A 
ATOM     16  C   UNL     1      -1.225  13.848  23.227  0.00  0.00    +0.000 A 
ATOM     17  C   UNL     1      -1.968  14.486  24.217  0.00  0.00    +0.000 A 
ATOM     18  C   UNL     1      -3.168  13.925  24.653  0.00  0.00    +0.000 A 
ATOM     19  C   UNL     1      -3.635  12.728  24.106  0.00  0.00    +0.000 A 
ATOM     20  C   UNL     1      -2.897  12.095  23.104  0.00  0.00    +0.000 A 
BRANCH  19  21
ATOM     21  O   UNL     1      -4.818  12.290  24.633  0.00  0.00    +0.000 OA
ATOM     22  C   UNL     1      -6.010  12.780  24.032  0.00  0.00    +0.000 C 
ENDBRANCH  19  21
ENDBRANCH  11  15
BRANCH   8  23
ATOM     23  N   UNL     1       1.535   8.920  22.711  0.00  0.00    +0.000 N 
ATOM     24  H   UNL     1       2.512   8.719  22.876  0.00  0.00    +0.000 HD
ATOM     25  H   UNL     1       1.171   9.722  23.218  0.00  0.00    +0.000 HD
ENDBRANCH   8  23
BRANCH   1  26
ATOM     26  O   UNL     1       3.379   5.786  17.494  0.00  0.00    +0.000 OA
BRANCH  26  28
ATOM     27  C   UNL     1       5.437   6.632  16.589  0.00  0.00    +0.000 C 
ATOM     28  C   UNL     1       4.802   5.599  17.503  0.00  0.00    +0.000 C 
ENDBRANCH  26  28
ENDBRANCH   1  26
TORSDOF 5
ENDMDL
MODEL 5
REMARK VINA RESULT:      -6.4      4.185      5.871
REMARK  Name = 
REMARK  7 active torsions:
REMARK  status: ('A' for Active; 'I' for Inactive)
REMARK    1  A    between atoms: C_1  and  C_2
REMARK    2  A    between atoms: C_2  and  O_3
REMARK    3  A    between atoms: O_3  and  C_4
REMARK    4  A    between atoms: C_11  and  N_12
REMARK    5  A    between atoms: C_15  and  C_16
REMARK    6  A    between atoms: C_20  and  O_21
REMARK    7  A    between atoms: O_21  and  C_22
REMARK                            x       y       z     vdW  Elec       q    Type
REMARK                         _______ _______ _______ _____ _____    ______ ____
ROOT
ATOM      1  C   UNL     1       2.151   6.188  20.408  0.00  0.00    +0.000 C 
ATOM      2  O   UNL     1       2.760   6.225  19.351  0.00  0.00    +0.000 OA
ATOM      3  N   UNL     1       1.466   7.182  21.036  0.00  0.00    +0.000 N 
ATOM      4  C   UNL     1       1.248   8.461  20.526  0.00  0.00    +0.000 A 
ATOM      5  C   UNL     1       0.631   9.386  21.357  0.00  0.00    +0.000 A 
ATOM      6  C   UNL     1       0.455  10.695  20.902  0.00  0.00    +0.000 A 
ATOM      7  C   UNL     1       0.880  11.053  19.627  0.00  0.00    +0.000 A 
ATOM      8  C   UNL     1       1.420  10.022  18.836  0.00  0.00    +0.000 A 
ATOM      9  N   UNL     1       1.614   8.765  19.273  0.00  0.00    +0.000 NA
ATOM     10  N   UNL     1       0.842  12.360  19.105  0.00  0.00    +0.000 NA
ATOM     11  C   UNL     1       0.561  13.399  19.834  0.00  0.00    +0.000 C 
ATOM     12  C   UNL     1       0.182  13.399  21.298  0.00  0.00    +0.000 C 
ATOM     13  S   UNL     1      -0.375  11.833  21.983  0.00  0.00    +0.000 S 
ATOM     14  H   UNL     1       1.089   6.936  21.933  0.00  0.00    +0.000 HD
ENDROOT
BRANCH  11  15
ATOM     15  C   UNL     1       0.708  14.748  19.184  0.00  0.00    +0.000 A 
ATOM     16  C   UNL     1      -0.411  15.542  18.903  0.00  0.00    +0.000 A 
ATOM     17  C   UNL     1      -0.248  16.817  18.368  0.00  0.00    +0.000 A 
ATOM     18  C   UNL     1       1.032  17.301  18.106  0.00  0.00    +0.000 A 
ATOM     19  C   UNL     1       2.158  16.519  18.375  0.00  0.00    +0.000 A 
ATOM     20  C   UNL     1       1.996  15.246  18.923  0.00  0.00    +0.000 A 
BRANCH  19  21
ATOM     21  O   UNL     1       3.348  17.116  18.061  0.00  0.00    +0.000 OA
ATOM     22  C   UNL     1       4.526  16.520  18.589  0.00  0.00    +0.000 C 
ENDBRANCH  19  21
ENDBRANCH  11  15
BRANCH   8  23
ATOM     23  N   UNL     1       1.737  10.238  17.489  0.00  0.00    +0.000 N 
ATOM     24  H   UNL     1       1.576   9.398  16.950  0.00  0.00    +0.000 HD
ATOM     25  H   UNL     1       1.213  11.052  17.179  0.00  0.00    +0.000 HD
ENDBRANCH   8  23
BRANCH   1  26
ATOM     26  O   UNL     1       2.041   5.068  21.178  0.00  0.00    +0.000 OA
BRANCH  26  28
ATOM     27  C   UNL     1       1.266   2.860  20.635  0.00  0.00    +0.000 C 
ATOM     28  C   UNL     1       2.416   3.845  20.526  0.00  0.00    +0.000 C 
ENDBRANCH  26  28
ENDBRANCH   1  26
TORSDOF 5
ENDMDL
MODEL 6
REMARK VINA RESULT:      -6.4      3.524      5.149
REMARK  Name = 
REMARK  7 active torsions:
REMARK  status: ('A' for Active; 'I' for Inactive)
REMARK    1  A    between atoms: C_1  and  C_2
REMARK    2  A    between atoms: C_2  and  O_3
REMARK    3  A    between atoms: O_3  and  C_4
REMARK    4  A    between atoms: C_11  and  N_12
REMARK    5  A    between atoms: C_15  and  C_16
REMARK    6  A    between atoms: C_20  and  O_21
REMARK    7  A    between atoms: O_21  and  C_22
REMARK                            x       y       z     vdW  Elec       q    Type
REMARK                         _______ _______ _______ _____ _____    ______ ____
ROOT
ATOM      1  C   UNL     1       2.984   5.688  19.795  0.00  0.00    +0.000 C 
ATOM      2  O   UNL     1       3.538   5.994  18.752  0.00  0.00    +0.000 OA
ATOM      3  N   UNL     1       2.160   6.438  20.578  0.00  0.00    +0.000 N 
ATOM      4  C   UNL     1       1.705   7.721  20.276  0.00  0.00    +0.000 A 
ATOM      5  C   UNL     1       0.968   8.384  21.248  0.00  0.00    +0.000 A 
ATOM      6  C   UNL     1       0.551   9.695  21.006  0.00  0.00    +0.000 A 
ATOM      7  C   UNL     1       0.860  10.313  19.799  0.00  0.00    +0.000 A 
ATOM      8  C   UNL     1       1.542   9.527  18.851  0.00  0.00    +0.000 A 
ATOM      9  N   UNL     1       1.967   8.272  19.084  0.00  0.00    +0.000 NA
ATOM     10  N   UNL     1       0.577  11.657  19.488  0.00  0.00    +0.000 NA
ATOM     11  C   UNL     1       0.148  12.506  20.373  0.00  0.00    +0.000 C 
ATOM     12  C   UNL     1      -0.172  12.216  21.823  0.00  0.00    +0.000 C 
ATOM     13  S   UNL     1      -0.422  10.490  22.260  0.00  0.00    +0.000 S 
ATOM     14  H   UNL     1       1.865   5.996  21.429  0.00  0.00    +0.000 HD
ENDROOT
BRANCH  11  15
ATOM     15  C   UNL     1       0.035  13.943  19.942  0.00  0.00    +0.000 A 
ATOM     16  C   UNL     1      -1.087  14.713  20.276  0.00  0.00    +0.000 A 
ATOM     17  C   UNL     1      -1.140  16.060  19.929  0.00  0.00    +0.000 A 
ATOM     18  C   UNL     1      -0.075  16.642  19.242  0.00  0.00    +0.000 A 
ATOM     19  C   UNL     1       1.047  15.886  18.897  0.00  0.00    +0.000 A 
ATOM     20  C   UNL     1       1.106  14.539  19.255  0.00  0.00    +0.000 A 
BRANCH  19  21
ATOM     21  O   UNL     1       2.009  16.582  18.218  0.00  0.00    +0.000 OA
ATOM     22  C   UNL     1       3.337  16.504  18.723  0.00  0.00    +0.000 C 
ENDBRANCH  19  21
ENDBRANCH  11  15
BRANCH   8  23
ATOM     23  N   UNL     1       1.766   9.999  17.552  0.00  0.00    +0.000 N 
ATOM     24  H   UNL     1       2.683   9.719  17.228  0.00  0.00    +0.000 HD
ATOM     25  H   UNL     1       0.993   9.682  16.973  0.00  0.00    +0.000 HD
ENDBRANCH   8  23
BRANCH   1  26
ATOM     26  O   UNL     1       3.098   4.462  20.382  0.00  0.00    +0.000 OA
BRANCH  26  28
ATOM     27  C   UNL     1       2.146   2.662  21.654  0.00  0.00    +0.000 C 
ATOM     28  C   UNL     1       2.058   4.139  21.316  0.00  0.00    +0.000 C 
ENDBRANCH  26  28
ENDBRANCH   1  26
TORSDOF 5
ENDMDL
MODEL 7
REMARK VINA RESULT:      -6.4      2.688      9.592
REMARK  Name = 
REMARK  7 active torsions:
REMARK  status: ('A' for Active; 'I' for Inactive)
REMARK    1  A    between atoms: C_1  and  C_2
REMARK    2  A    between atoms: C_2  and  O_3
REMARK    3  A    between atoms: O_3  and  C_4
REMARK    4  A    between atoms: C_11  and  N_12
REMARK    5  A    between atoms: C_15  and  C_16
REMARK    6  A    between atoms: C_20  and  O_21
REMARK    7  A    between atoms: O_21  and  C_22
REMARK                            x       y       z     vdW  Elec       q    Type
REMARK                         _______ _______ _______ _____ _____    ______ ____
ROOT
ATOM      1  C   UNL     1       0.486   8.405  21.047  0.00  0.00    +0.000 C 
ATOM      2  O   UNL     1       0.370   9.315  20.243  0.00  0.00    +0.000 OA
ATOM      3  N   UNL     1       1.246   7.278  20.961  0.00  0.00    +0.000 N 
ATOM      4  C   UNL     1       2.140   6.983  19.933  0.00  0.00    +0.000 A 
ATOM      5  C   UNL     1       2.741   5.732  19.946  0.00  0.00    +0.000 A 
ATOM      6  C   UNL     1       3.592   5.377  18.897  0.00  0.00    +0.000 A 
ATOM      7  C   UNL     1       3.840   6.277  17.866  0.00  0.00    +0.000 A 
ATOM      8  C   UNL     1       3.245   7.547  17.989  0.00  0.00    +0.000 A 
ATOM      9  N   UNL     1       2.407   7.889  18.983  0.00  0.00    +0.000 NA
ATOM     10  N   UNL     1       4.600   5.991  16.715  0.00  0.00    +0.000 NA
ATOM     11  C   UNL     1       5.003   4.791  16.421  0.00  0.00    +0.000 C 
ATOM     12  C   UNL     1       4.796   3.541  17.247  0.00  0.00    +0.000 C 
ATOM     13  S   UNL     1       4.369   3.783  18.977  0.00  0.00    +0.000 S 
ATOM     14  H   UNL     1       1.139   6.635  21.724  0.00  0.00    +0.000 HD
ENDROOT
BRANCH  11  15
ATOM     15  C   UNL     1       5.670   4.604  15.085  0.00  0.00    +0.000 A 
ATOM     16  C   UNL     1       6.932   5.151  14.824  0.00  0.00    +0.000 A 
ATOM     17  C   UNL     1       7.563   4.905  13.607  0.00  0.00    +0.000 A 
ATOM     18  C   UNL     1       6.932   4.118  12.645  0.00  0.00    +0.000 A 
ATOM     19  C   UNL     1       5.670   3.571  12.889  0.00  0.00    +0.000 A 
ATOM     20  C   UNL     1       5.043   3.806  14.113  0.00  0.00    +0.000 A 
BRANCH  19  21
ATOM     21  O   UNL     1       5.168   2.829  11.856  0.00  0.00    +0.000 OA
ATOM     22  C   UNL     1       3.929   3.253  11.301  0.00  0.00    +0.000 C 
ENDBRANCH  19  21
ENDBRANCH  11  15
BRANCH   8  23
ATOM     23  N   UNL     1       3.552   8.575  17.089  0.00  0.00    +0.000 N 
ATOM     24  H   UNL     1       2.742   8.807  16.529  0.00  0.00    +0.000 HD
ATOM     25  H   UNL     1       3.937   9.347  17.626  0.00  0.00    +0.000 HD
ENDBRANCH   8  23
BRANCH   1  26
ATOM     26  O   UNL     1      -0.161   8.369  22.248  0.00  0.00    +0.000 OA
BRANCH  26  28
ATOM     27  C   UNL     1      -0.975  10.459  23.108  0.00  0.00    +0.000 C 
ATOM     28  C   UNL     1       0.158   9.448  23.139  0.00  0.00    +0.000 C 
ENDBRANCH  26  28
ENDBRANCH   1  26
TORSDOF 5
ENDMDL
MODEL 8
REMARK VINA RESULT:      -6.3      2.261      9.237
REMARK  Name = 
REMARK  7 active torsions:
REMARK  status: ('A' for Active; 'I' for Inactive)
REMARK    1  A    between atoms: C_1  and  C_2
REMARK    2  A    between atoms: C_2  and  O_3
REMARK    3  A    between atoms: O_3  and  C_4
REMARK    4  A    between atoms: C_11  and  N_12
REMARK    5  A    between atoms: C_15  and  C_16
REMARK    6  A    between atoms: C_20  and  O_21
REMARK    7  A    between atoms: O_21  and  C_22
REMARK                            x       y       z     vdW  Elec       q    Type
REMARK                         _______ _______ _______ _____ _____    ______ ____
ROOT
ATOM      1  C   UNL     1      -1.560  12.541  20.171  0.00  0.00    +0.000 C 
ATOM      2  O   UNL     1      -1.316  12.990  19.063  0.00  0.00    +0.000 OA
ATOM      3  N   UNL     1      -1.084  11.409  20.759  0.00  0.00    +0.000 N 
ATOM      4  C   UNL     1      -0.119  10.562  20.218  0.00  0.00    +0.000 A 
ATOM      5  C   UNL     1       0.158   9.387  20.903  0.00  0.00    +0.000 A 
ATOM      6  C   UNL     1       1.072   8.482  20.357  0.00  0.00    +0.000 A 
ATOM      7  C   UNL     1       1.702   8.771  19.151  0.00  0.00    +0.000 A 
ATOM      8  C   UNL     1       1.410  10.023  18.578  0.00  0.00    +0.000 A 
ATOM      9  N   UNL     1       0.516  10.890  19.085  0.00  0.00    +0.000 NA
ATOM     10  N   UNL     1       2.561   7.893  18.463  0.00  0.00    +0.000 NA
ATOM     11  C   UNL     1       2.716   6.649  18.807  0.00  0.00    +0.000 C 
ATOM     12  C   UNL     1       2.080   5.954  19.990  0.00  0.00    +0.000 C 
ATOM     13  S   UNL     1       1.427   7.013  21.288  0.00  0.00    +0.000 S 
ATOM     14  H   UNL     1      -1.471  11.206  21.663  0.00  0.00    +0.000 HD
ENDROOT
BRANCH  11  15
ATOM     15  C   UNL     1       3.543   5.786  17.893  0.00  0.00    +0.000 A 
ATOM     16  C   UNL     1       3.343   4.401  17.830  0.00  0.00    +0.000 A 
ATOM     17  C   UNL     1       4.070   3.630  16.926  0.00  0.00    +0.000 A 
ATOM     18  C   UNL     1       5.002   4.239  16.087  0.00  0.00    +0.000 A 
ATOM     19  C   UNL     1       5.217   5.618  16.143  0.00  0.00    +0.000 A 
ATOM     20  C   UNL     1       4.480   6.393  17.040  0.00  0.00    +0.000 A 
BRANCH  19  21
ATOM     21  O   UNL     1       6.165   6.077  15.271  0.00  0.00    +0.000 OA
ATOM     22  C   UNL     1       6.936   5.099  14.585  0.00  0.00    +0.000 C 
ENDBRANCH  19  21
ENDBRANCH  11  15
BRANCH   8  23
ATOM     23  N   UNL     1       2.103  10.476  17.448  0.00  0.00    +0.000 N 
ATOM     24  H   UNL     1       2.858   9.843  17.220  0.00  0.00    +0.000 HD
ATOM     25  H   UNL     1       1.422  10.614  16.706  0.00  0.00    +0.000 HD
ENDBRANCH   8  23
BRANCH   1  26
ATOM     26  O   UNL     1      -2.397  13.144  21.064  0.00  0.00    +0.000 OA
BRANCH  26  28
ATOM     27  C   UNL     1      -4.683  13.012  21.787  0.00  0.00    +0.000 C 
ATOM     28  C   UNL     1      -3.753  13.290  20.619  0.00  0.00    +0.000 C 
ENDBRANCH  26  28
ENDBRANCH   1  26
TORSDOF 5
ENDMDL
MODEL 9
REMARK VINA RESULT:      -6.3      2.801      4.032
REMARK  Name = 
REMARK  7 active torsions:
REMARK  status: ('A' for Active; 'I' for Inactive)
REMARK    1  A    between atoms: C_1  and  C_2
REMARK    2  A    between atoms: C_2  and  O_3
REMARK    3  A    between atoms: O_3  and  C_4
REMARK    4  A    between atoms: C_11  and  N_12
REMARK    5  A    between atoms: C_15  and  C_16
REMARK    6  A    between atoms: C_20  and  O_21
REMARK    7  A    between atoms: O_21  and  C_22
REMARK                            x       y       z     vdW  Elec       q    Type
REMARK                         _______ _______ _______ _____ _____    ______ ____
ROOT
ATOM      1  C   UNL     1       3.802   5.781  19.005  0.00  0.00    +0.000 C 
ATOM      2  O   UNL     1       4.175   6.357  17.996  0.00  0.00    +0.000 OA
ATOM      3  N   UNL     1       2.913   6.197  19.949  0.00  0.00    +0.000 N 
ATOM      4  C   UNL     1       2.163   7.371  19.891  0.00  0.00    +0.000 A 
ATOM      5  C   UNL     1       1.395   7.696  21.000  0.00  0.00    +0.000 A 
ATOM      6  C   UNL     1       0.682   8.897  21.004  0.00  0.00    +0.000 A 
ATOM      7  C   UNL     1       0.734   9.741  19.900  0.00  0.00    +0.000 A 
ATOM      8  C   UNL     1       1.477   9.281  18.796  0.00  0.00    +0.000 A 
ATOM      9  N   UNL     1       2.184   8.138  18.792  0.00  0.00    +0.000 NA
ATOM     10  N   UNL     1       0.137  11.015  19.833  0.00  0.00    +0.000 NA
ATOM     11  C   UNL     1      -0.381  11.602  20.870  0.00  0.00    +0.000 C 
ATOM     12  C   UNL     1      -0.491  11.034  22.268  0.00  0.00    +0.000 C 
ATOM     13  S   UNL     1      -0.318   9.252  22.427  0.00  0.00    +0.000 S 
ATOM     14  H   UNL     1       2.803   5.577  20.730  0.00  0.00    +0.000 HD
ENDROOT
BRANCH  11  15
ATOM     15  C   UNL     1      -0.844  13.022  20.690  0.00  0.00    +0.000 A 
ATOM     16  C   UNL     1      -1.784  13.592  21.558  0.00  0.00    +0.000 A 
ATOM     17  C   UNL     1      -2.146  14.930  21.418  0.00  0.00    +0.000 A 
ATOM     18  C   UNL     1      -1.574  15.700  20.407  0.00  0.00    +0.000 A 
ATOM     19  C   UNL     1      -0.640  15.144  19.529  0.00  0.00    +0.000 A 
ATOM     20  C   UNL     1      -0.268  13.807  19.678  0.00  0.00    +0.000 A 
BRANCH  19  21
ATOM     21  O   UNL     1      -0.170  16.011  18.583  0.00  0.00    +0.000 OA
ATOM     22  C   UNL     1      -0.846  17.256  18.457  0.00  0.00    +0.000 C 
ENDBRANCH  19  21
ENDBRANCH  11  15
BRANCH   8  23
ATOM     23  N   UNL     1       1.469   9.980  17.582  0.00  0.00    +0.000 N 
ATOM     24  H   UNL     1       1.669  10.959  17.737  0.00  0.00    +0.000 HD
ATOM     25  H   UNL     1       2.111   9.507  16.953  0.00  0.00    +0.000 HD
ENDBRANCH   8  23
BRANCH   1  26
ATOM     26  O   UNL     1       4.235   4.541  19.373  0.00  0.00    +0.000 OA
BRANCH  26  28
ATOM     27  C   UNL     1       3.528   2.765  17.918  0.00  0.00    +0.000 C 
ATOM     28  C   UNL     1       3.265   3.493  19.225  0.00  0.00    +0.000 C 
ENDBRANCH  26  28
ENDBRANCH   1  26
TORSDOF 5
ENDMDL
