MODEL 1
REMARK VINA RESULT:      -8.2      0.000      0.000
REMARK  Name = 
REMARK  8 active torsions:
REMARK  status: ('A' for Active; 'I' for Inactive)
REMARK    1  A    between atoms: C_1  and  S_2
REMARK    2  A    between atoms: S_2  and  C_3
REMARK    3  A    between atoms: C_6  and  C_7
REMARK    4  A    between atoms: C_7  and  N_8
REMARK    5  A    between atoms: N_8  and  C_9
REMARK    6  A    between atoms: C_10  and  C_12
REMARK    7  A    between atoms: C_12  and  C_13
REMARK    8  A    between atoms: C_12  and  C_19
REMARK                            x       y       z     vdW  Elec       q    Type
REMARK                         _______ _______ _______ _____ _____    ______ ____
ROOT
ATOM      1  N   UNL     1       5.376   5.802  18.342  0.00  0.00    +0.000 N 
ATOM      2  C   UNL     1       5.596   4.879  19.445  0.00  0.00    +0.000 C 
ATOM      3  C   UNL     1       4.227   6.576  18.167  0.00  0.00    +0.000 C 
ATOM      4  O   UNL     1       4.156   7.355  17.208  0.00  0.00    +0.000 OA
ENDROOT
BRANCH   1   5
ATOM      5  C   UNL     1       6.464   5.956  17.368  0.00  0.00    +0.000 C 
BRANCH   5   9
ATOM      6  C   UNL     1       6.205   3.817  13.594  0.00  0.00    +0.000 A 
ATOM      7  C   UNL     1       7.173   4.800  13.801  0.00  0.00    +0.000 A 
ATOM      8  C   UNL     1       7.230   5.485  15.020  0.00  0.00    +0.000 A 
ATOM      9  C   UNL     1       6.312   5.218  16.051  0.00  0.00    +0.000 A 
ATOM     10  C   UNL     1       5.371   4.200  15.845  0.00  0.00    +0.000 A 
ATOM     11  C   UNL     1       5.310   3.519  14.621  0.00  0.00    +0.000 A 
BRANCH   6  13
ATOM     12  C   UNL     1       4.385   3.339  11.621  0.00  0.00    +0.000 C 
ATOM     13  S   UNL     1       6.109   2.965  12.034  0.00  0.00    +0.000 S 
ENDBRANCH   6  13
ENDBRANCH   5   9
ENDBRANCH   1   5
BRANCH   3  14
ATOM     14  C   UNL     1       3.042   6.440  19.169  0.00  0.00    +0.000 C 
BRANCH  14  15
ATOM     15  C   UNL     1       2.145   7.682  19.172  0.00  0.00    +0.000 A 
ATOM     16  C   UNL     1       1.810   8.351  17.984  0.00  0.00    +0.000 A 
ATOM     17  C   UNL     1       1.028   9.508  18.015  0.00  0.00    +0.000 A 
ATOM     18  C   UNL     1       0.549  10.000  19.226  0.00  0.00    +0.000 A 
ATOM     19  C   UNL     1       0.856   9.339  20.413  0.00  0.00    +0.000 A 
ATOM     20  C   UNL     1       1.651   8.190  20.387  0.00  0.00    +0.000 A 
ENDBRANCH  14  15
BRANCH  14  21
ATOM     21  C   UNL     1       2.274   5.119  19.008  0.00  0.00    +0.000 A 
ATOM     22  C   UNL     1       1.611   4.559  20.115  0.00  0.00    +0.000 A 
ATOM     23  C   UNL     1       0.978   3.313  20.023  0.00  0.00    +0.000 A 
ATOM     24  C   UNL     1       0.994   2.609  18.821  0.00  0.00    +0.000 A 
ATOM     25  C   UNL     1       1.606   3.167  17.704  0.00  0.00    +0.000 A 
ATOM     26  C   UNL     1       2.230   4.416  17.793  0.00  0.00    +0.000 A 
ENDBRANCH  14  21
ENDBRANCH   3  14
TORSDOF 6
ENDMDL
MODEL 2
REMARK VINA RESULT:      -8.1      0.165      1.344
REMARK  Name = 
REMARK  8 active torsions:
REMARK  status: ('A' for Active; 'I' for Inactive)
REMARK    1  A    between atoms: C_1  and  S_2
REMARK    2  A    between atoms: S_2  and  C_3
REMARK    3  A    between atoms: C_6  and  C_7
REMARK    4  A    between atoms: C_7  and  N_8
REMARK    5  A    between atoms: N_8  and  C_9
REMARK    6  A    between atoms: C_10  and  C_12
REMARK    7  A    between atoms: C_12  and  C_13
REMARK    8  A    between atoms: C_12  and  C_19
REMARK                            x       y       z     vdW  Elec       q    Type
REMARK                         _______ _______ _______ _____ _____    ______ ____
ROOT
ATOM      1  N   UNL     1       5.432   5.935  18.210  0.00  0.00    +0.000 N 
ATOM      2  C   UNL     1       5.744   5.045  19.318  0.00  0.00    +0.000 C 
ATOM      3  C   UNL     1       4.247   6.664  18.082  0.00  0.00    +0.000 C 
ATOM      4  O   UNL     1       4.097   7.418  17.114  0.00  0.00    +0.000 OA
ENDROOT
BRANCH   1   5
ATOM      5  C   UNL     1       6.460   6.106  17.176  0.00  0.00    +0.000 C 
BRANCH   5   9
ATOM      6  C   UNL     1       6.118   3.786  13.517  0.00  0.00    +0.000 A 
ATOM      7  C   UNL     1       7.175   4.676  13.711  0.00  0.00    +0.000 A 
ATOM      8  C   UNL     1       7.258   5.422  14.891  0.00  0.00    +0.000 A 
ATOM      9  C   UNL     1       6.280   5.311  15.896  0.00  0.00    +0.000 A 
ATOM     10  C   UNL     1       5.247   4.383  15.707  0.00  0.00    +0.000 A 
ATOM     11  C   UNL     1       5.161   3.641  14.520  0.00  0.00    +0.000 A 
BRANCH   6  13
ATOM     12  C   UNL     1       4.287   3.284  11.561  0.00  0.00    +0.000 C 
ATOM     13  S   UNL     1       5.991   2.858  12.004  0.00  0.00    +0.000 S 
ENDBRANCH   6  13
ENDBRANCH   5   9
ENDBRANCH   1   5
BRANCH   3  14
ATOM     14  C   UNL     1       3.124   6.508  19.150  0.00  0.00    +0.000 C 
BRANCH  14  15
ATOM     15  C   UNL     1       2.195   7.725  19.190  0.00  0.00    +0.000 A 
ATOM     16  C   UNL     1       1.633   8.184  20.392  0.00  0.00    +0.000 A 
ATOM     17  C   UNL     1       0.752   9.268  20.398  0.00  0.00    +0.000 A 
ATOM     18  C   UNL     1       0.436   9.924  19.210  0.00  0.00    +0.000 A 
ATOM     19  C   UNL     1       0.998   9.493  18.011  0.00  0.00    +0.000 A 
ATOM     20  C   UNL     1       1.868   8.400  18.000  0.00  0.00    +0.000 A 
ENDBRANCH  14  15
BRANCH  14  21
ATOM     21  C   UNL     1       2.385   5.165  19.046  0.00  0.00    +0.000 A 
ATOM     22  C   UNL     1       2.224   4.553  17.790  0.00  0.00    +0.000 A 
ATOM     23  C   UNL     1       1.480   3.376  17.651  0.00  0.00    +0.000 A 
ATOM     24  C   UNL     1       0.887   2.788  18.766  0.00  0.00    +0.000 A 
ATOM     25  C   UNL     1       1.073   3.354  20.022  0.00  0.00    +0.000 A 
ATOM     26  C   UNL     1       1.824   4.525  20.164  0.00  0.00    +0.000 A 
ENDBRANCH  14  21
ENDBRANCH   3  14
TORSDOF 6
ENDMDL
MODEL 3
REMARK VINA RESULT:      -8.0      0.372      1.001
REMARK  Name = 
REMARK  8 active torsions:
REMARK  status: ('A' for Active; 'I' for Inactive)
REMARK    1  A    between atoms: C_1  and  S_2
REMARK    2  A    between atoms: S_2  and  C_3
REMARK    3  A    between atoms: C_6  and  C_7
REMARK    4  A    between atoms: C_7  and  N_8
REMARK    5  A    between atoms: N_8  and  C_9
REMARK    6  A    between atoms: C_10  and  C_12
REMARK    7  A    between atoms: C_12  and  C_13
REMARK    8  A    between atoms: C_12  and  C_19
REMARK                            x       y       z     vdW  Elec       q    Type
REMARK                         _______ _______ _______ _____ _____    ______ ____
ROOT
ATOM      1  N   UNL     1       5.700   5.948  18.127  0.00  0.00    +0.000 N 
ATOM      2  C   UNL     1       6.136   5.301  19.355  0.00  0.00    +0.000 C 
ATOM      3  C   UNL     1       4.418   6.457  17.907  0.00  0.00    +0.000 C 
ATOM      4  O   UNL     1       4.161   7.019  16.835  0.00  0.00    +0.000 OA
ENDROOT
BRANCH   1   5
ATOM      5  C   UNL     1       6.697   6.112  17.062  0.00  0.00    +0.000 C 
BRANCH   5   9
ATOM      6  C   UNL     1       6.297   3.755  13.434  0.00  0.00    +0.000 A 
ATOM      7  C   UNL     1       7.098   4.896  13.468  0.00  0.00    +0.000 A 
ATOM      8  C   UNL     1       7.202   5.647  14.643  0.00  0.00    +0.000 A 
ATOM      9  C   UNL     1       6.496   5.287  15.805  0.00  0.00    +0.000 A 
ATOM     10  C   UNL     1       5.728   4.115  15.769  0.00  0.00    +0.000 A 
ATOM     11  C   UNL     1       5.618   3.367  14.589  0.00  0.00    +0.000 A 
BRANCH   6  13
ATOM     12  C   UNL     1       4.420   3.229  11.528  0.00  0.00    +0.000 C 
ATOM     13  S   UNL     1       6.137   2.813  11.932  0.00  0.00    +0.000 S 
ENDBRANCH   6  13
ENDBRANCH   5   9
ENDBRANCH   1   5
BRANCH   3  14
ATOM     14  C   UNL     1       3.323   6.300  19.004  0.00  0.00    +0.000 C 
BRANCH  14  15
ATOM     15  C   UNL     1       2.396   7.517  19.071  0.00  0.00    +0.000 A 
ATOM     16  C   UNL     1       2.052   8.245  17.921  0.00  0.00    +0.000 A 
ATOM     17  C   UNL     1       1.241   9.379  18.012  0.00  0.00    +0.000 A 
ATOM     18  C   UNL     1       0.743   9.789  19.247  0.00  0.00    +0.000 A 
ATOM     19  C   UNL     1       1.060   9.069  20.396  0.00  0.00    +0.000 A 
ATOM     20  C   UNL     1       1.882   7.943  20.309  0.00  0.00    +0.000 A 
ENDBRANCH  14  15
BRANCH  14  21
ATOM     21  C   UNL     1       2.581   4.957  18.915  0.00  0.00    +0.000 A 
ATOM     22  C   UNL     1       2.782   4.120  17.803  0.00  0.00    +0.000 A 
ATOM     23  C   UNL     1       2.055   2.934  17.650  0.00  0.00    +0.000 A 
ATOM     24  C   UNL     1       1.116   2.562  18.610  0.00  0.00    +0.000 A 
ATOM     25  C   UNL     1       0.935   3.354  19.739  0.00  0.00    +0.000 A 
ATOM     26  C   UNL     1       1.669   4.535  19.897  0.00  0.00    +0.000 A 
ENDBRANCH  14  21
ENDBRANCH   3  14
TORSDOF 6
ENDMDL
MODEL 4
REMARK VINA RESULT:      -7.9      3.567      7.590
REMARK  Name = 
REMARK  8 active torsions:
REMARK  status: ('A' for Active; 'I' for Inactive)
REMARK    1  A    between atoms: C_1  and  S_2
REMARK    2  A    between atoms: S_2  and  C_3
REMARK    3  A    between atoms: C_6  and  C_7
REMARK    4  A    between atoms: C_7  and  N_8
REMARK    5  A    between atoms: N_8  and  C_9
REMARK    6  A    between atoms: C_10  and  C_12
REMARK    7  A    between atoms: C_12  and  C_13
REMARK    8  A    between atoms: C_12  and  C_19
REMARK                            x       y       z     vdW  Elec       q    Type
REMARK                         _______ _______ _______ _____ _____    ______ ____
ROOT
ATOM      1  N   UNL     1       2.316   8.001  18.689  0.00  0.00    +0.000 N 
ATOM      2  C   UNL     1       1.799   7.897  20.045  0.00  0.00    +0.000 C 
ATOM      3  C   UNL     1       3.220   7.108  18.110  0.00  0.00    +0.000 C 
ATOM      4  O   UNL     1       3.571   7.272  16.935  0.00  0.00    +0.000 OA
ENDROOT
BRANCH   1   5
ATOM      5  C   UNL     1       1.815   9.105  17.862  0.00  0.00    +0.000 C 
BRANCH   5   9
ATOM      6  C   UNL     1      -1.349  11.603  19.484  0.00  0.00    +0.000 A 
ATOM      7  C   UNL     1      -0.027  11.751  19.903  0.00  0.00    +0.000 A 
ATOM      8  C   UNL     1       0.973  10.928  19.377  0.00  0.00    +0.000 A 
ATOM      9  C   UNL     1       0.675   9.926  18.435  0.00  0.00    +0.000 A 
ATOM     10  C   UNL     1      -0.650   9.816  17.992  0.00  0.00    +0.000 A 
ATOM     11  C   UNL     1      -1.654  10.637  18.526  0.00  0.00    +0.000 A 
BRANCH   6  13
ATOM     12  C   UNL     1      -2.245  12.407  21.931  0.00  0.00    +0.000 C 
ATOM     13  S   UNL     1      -2.631  12.628  20.174  0.00  0.00    +0.000 S 
ENDBRANCH   6  13
ENDBRANCH   5   9
ENDBRANCH   1   5
BRANCH   3  14
ATOM     14  C   UNL     1       3.787   5.926  18.951  0.00  0.00    +0.000 C 
BRANCH  14  15
ATOM     15  C   UNL     1       2.739   4.835  19.191  0.00  0.00    +0.000 A 
ATOM     16  C   UNL     1       1.992   4.286  18.137  0.00  0.00    +0.000 A 
ATOM     17  C   UNL     1       1.010   3.325  18.385  0.00  0.00    +0.000 A 
ATOM     18  C   UNL     1       0.774   2.880  19.684  0.00  0.00    +0.000 A 
ATOM     19  C   UNL     1       1.517   3.401  20.740  0.00  0.00    +0.000 A 
ATOM     20  C   UNL     1       2.491   4.373  20.497  0.00  0.00    +0.000 A 
ENDBRANCH  14  15
BRANCH  14  21
ATOM     21  C   UNL     1       5.123   5.395  18.408  0.00  0.00    +0.000 A 
ATOM     22  C   UNL     1       6.317   5.672  19.100  0.00  0.00    +0.000 A 
ATOM     23  C   UNL     1       7.557   5.279  18.584  0.00  0.00    +0.000 A 
ATOM     24  C   UNL     1       7.626   4.599  17.371  0.00  0.00    +0.000 A 
ATOM     25  C   UNL     1       6.454   4.277  16.695  0.00  0.00    +0.000 A 
ATOM     26  C   UNL     1       5.213   4.661  17.214  0.00  0.00    +0.000 A 
ENDBRANCH  14  21
ENDBRANCH   3  14
TORSDOF 6
ENDMDL
MODEL 5
REMARK VINA RESULT:      -7.9      3.570      7.676
REMARK  Name = 
REMARK  8 active torsions:
REMARK  status: ('A' for Active; 'I' for Inactive)
REMARK    1  A    between atoms: C_1  and  S_2
REMARK    2  A    between atoms: S_2  and  C_3
REMARK    3  A    between atoms: C_6  and  C_7
REMARK    4  A    between atoms: C_7  and  N_8
REMARK    5  A    between atoms: N_8  and  C_9
REMARK    6  A    between atoms: C_10  and  C_12
REMARK    7  A    between atoms: C_12  and  C_13
REMARK    8  A    between atoms: C_12  and  C_19
REMARK                            x       y       z     vdW  Elec       q    Type
REMARK                         _______ _______ _______ _____ _____    ______ ____
ROOT
ATOM      1  N   UNL     1       2.337   8.060  18.666  0.00  0.00    +0.000 N 
ATOM      2  C   UNL     1       1.805   7.968  20.016  0.00  0.00    +0.000 C 
ATOM      3  C   UNL     1       3.241   7.157  18.101  0.00  0.00    +0.000 C 
ATOM      4  O   UNL     1       3.605   7.311  16.929  0.00  0.00    +0.000 OA
ENDROOT
BRANCH   1   5
ATOM      5  C   UNL     1       1.852   9.163  17.826  0.00  0.00    +0.000 C 
BRANCH   5   9
ATOM      6  C   UNL     1      -1.294  11.599  19.572  0.00  0.00    +0.000 A 
ATOM      7  C   UNL     1      -1.583  10.624  18.618  0.00  0.00    +0.000 A 
ATOM      8  C   UNL     1      -0.553   9.860  18.060  0.00  0.00    +0.000 A 
ATOM      9  C   UNL     1       0.790  10.063  18.427  0.00  0.00    +0.000 A 
ATOM     10  C   UNL     1       1.061  11.018  19.417  0.00  0.00    +0.000 A 
ATOM     11  C   UNL     1       0.029  11.788  19.971  0.00  0.00    +0.000 A 
BRANCH   6  13
ATOM     12  C   UNL     1      -2.216  12.369  22.020  0.00  0.00    +0.000 C 
ATOM     13  S   UNL     1      -2.598  12.595  20.263  0.00  0.00    +0.000 S 
ENDBRANCH   6  13
ENDBRANCH   5   9
ENDBRANCH   1   5
BRANCH   3  14
ATOM     14  C   UNL     1       3.790   5.976  18.956  0.00  0.00    +0.000 C 
BRANCH  14  15
ATOM     15  C   UNL     1       2.726   4.904  19.207  0.00  0.00    +0.000 A 
ATOM     16  C   UNL     1       2.444   4.434  20.501  0.00  0.00    +0.000 A 
ATOM     17  C   UNL     1       1.502   3.423  20.702  0.00  0.00    +0.000 A 
ATOM     18  C   UNL     1       0.811   2.882  19.620  0.00  0.00    +0.000 A 
ATOM     19  C   UNL     1       1.064   3.347  18.333  0.00  0.00    +0.000 A 
ATOM     20  C   UNL     1       2.016   4.349  18.127  0.00  0.00    +0.000 A 
ENDBRANCH  14  15
BRANCH  14  21
ATOM     21  C   UNL     1       5.118   5.420  18.419  0.00  0.00    +0.000 A 
ATOM     22  C   UNL     1       6.313   5.672  19.118  0.00  0.00    +0.000 A 
ATOM     23  C   UNL     1       7.548   5.256  18.608  0.00  0.00    +0.000 A 
ATOM     24  C   UNL     1       7.610   4.576  17.394  0.00  0.00    +0.000 A 
ATOM     25  C   UNL     1       6.436   4.278  16.712  0.00  0.00    +0.000 A 
ATOM     26  C   UNL     1       5.200   4.685  17.225  0.00  0.00    +0.000 A 
ENDBRANCH  14  21
ENDBRANCH   3  14
TORSDOF 6
ENDMDL
MODEL 6
REMARK VINA RESULT:      -7.8      3.568      7.613
REMARK  Name = 
REMARK  8 active torsions:
REMARK  status: ('A' for Active; 'I' for Inactive)
REMARK    1  A    between atoms: C_1  and  S_2
REMARK    2  A    between atoms: S_2  and  C_3
REMARK    3  A    between atoms: C_6  and  C_7
REMARK    4  A    between atoms: C_7  and  N_8
REMARK    5  A    between atoms: N_8  and  C_9
REMARK    6  A    between atoms: C_10  and  C_12
REMARK    7  A    between atoms: C_12  and  C_13
REMARK    8  A    between atoms: C_12  and  C_19
REMARK                            x       y       z     vdW  Elec       q    Type
REMARK                         _______ _______ _______ _____ _____    ______ ____
ROOT
ATOM      1  N   UNL     1       2.348   8.025  18.675  0.00  0.00    +0.000 N 
ATOM      2  C   UNL     1       1.828   7.930  20.030  0.00  0.00    +0.000 C 
ATOM      3  C   UNL     1       3.248   7.124  18.101  0.00  0.00    +0.000 C 
ATOM      4  O   UNL     1       3.602   7.280  16.926  0.00  0.00    +0.000 OA
ENDROOT
BRANCH   1   5
ATOM      5  C   UNL     1       1.854   9.128  17.842  0.00  0.00    +0.000 C 
BRANCH   5   9
ATOM      6  C   UNL     1      -1.249  11.588  19.631  0.00  0.00    +0.000 A 
ATOM      7  C   UNL     1      -1.551  10.654  18.640  0.00  0.00    +0.000 A 
ATOM      8  C   UNL     1      -0.534   9.882  18.068  0.00  0.00    +0.000 A 
ATOM      9  C   UNL     1       0.808  10.036  18.460  0.00  0.00    +0.000 A 
ATOM     10  C   UNL     1       1.091  10.948  19.486  0.00  0.00    +0.000 A 
ATOM     11  C   UNL     1       0.073  11.727  20.053  0.00  0.00    +0.000 A 
BRANCH   6  13
ATOM     12  C   UNL     1      -1.624  14.156  20.466  0.00  0.00    +0.000 C 
ATOM     13  S   UNL     1      -2.535  12.595  20.339  0.00  0.00    +0.000 S 
ENDBRANCH   6  13
ENDBRANCH   5   9
ENDBRANCH   1   5
BRANCH   3  14
ATOM     14  C   UNL     1       3.806   5.942  18.948  0.00  0.00    +0.000 C 
BRANCH  14  15
ATOM     15  C   UNL     1       2.751   4.860  19.194  0.00  0.00    +0.000 A 
ATOM     16  C   UNL     1       2.015   4.296  18.139  0.00  0.00    +0.000 A 
ATOM     17  C   UNL     1       1.025   3.343  18.391  0.00  0.00    +0.000 A 
ATOM     18  C   UNL     1       0.771   2.922  19.695  0.00  0.00    +0.000 A 
ATOM     19  C   UNL     1       1.503   3.458  20.751  0.00  0.00    +0.000 A 
ATOM     20  C   UNL     1       2.484   4.422  20.504  0.00  0.00    +0.000 A 
ENDBRANCH  14  15
BRANCH  14  21
ATOM     21  C   UNL     1       5.139   5.399  18.408  0.00  0.00    +0.000 A 
ATOM     22  C   UNL     1       6.331   5.653  19.110  0.00  0.00    +0.000 A 
ATOM     23  C   UNL     1       7.570   5.249  18.598  0.00  0.00    +0.000 A 
ATOM     24  C   UNL     1       7.637   4.581  17.378  0.00  0.00    +0.000 A 
ATOM     25  C   UNL     1       6.466   4.281  16.692  0.00  0.00    +0.000 A 
ATOM     26  C   UNL     1       5.226   4.676  17.207  0.00  0.00    +0.000 A 
ENDBRANCH  14  21
ENDBRANCH   3  14
TORSDOF 6
ENDMDL
MODEL 7
REMARK VINA RESULT:      -7.8      0.464      1.379
REMARK  Name = 
REMARK  8 active torsions:
REMARK  status: ('A' for Active; 'I' for Inactive)
REMARK    1  A    between atoms: C_1  and  S_2
REMARK    2  A    between atoms: S_2  and  C_3
REMARK    3  A    between atoms: C_6  and  C_7
REMARK    4  A    between atoms: C_7  and  N_8
REMARK    5  A    between atoms: N_8  and  C_9
REMARK    6  A    between atoms: C_10  and  C_12
REMARK    7  A    between atoms: C_12  and  C_13
REMARK    8  A    between atoms: C_12  and  C_19
REMARK                            x       y       z     vdW  Elec       q    Type
REMARK                         _______ _______ _______ _____ _____    ______ ____
ROOT
ATOM      1  N   UNL     1       5.267   6.067  18.251  0.00  0.00    +0.000 N 
ATOM      2  C   UNL     1       5.680   5.077  19.234  0.00  0.00    +0.000 C 
ATOM      3  C   UNL     1       4.044   6.741  18.264  0.00  0.00    +0.000 C 
ATOM      4  O   UNL     1       3.807   7.590  17.396  0.00  0.00    +0.000 OA
ENDROOT
BRANCH   1   5
ATOM      5  C   UNL     1       6.229   6.407  17.195  0.00  0.00    +0.000 C 
BRANCH   5   9
ATOM      6  C   UNL     1       6.126   3.927  13.628  0.00  0.00    +0.000 A 
ATOM      7  C   UNL     1       4.972   4.162  14.376  0.00  0.00    +0.000 A 
ATOM      8  C   UNL     1       5.031   4.954  15.528  0.00  0.00    +0.000 A 
ATOM      9  C   UNL     1       6.244   5.512  15.970  0.00  0.00    +0.000 A 
ATOM     10  C   UNL     1       7.387   5.301  15.186  0.00  0.00    +0.000 A 
ATOM     11  C   UNL     1       7.329   4.502  14.036  0.00  0.00    +0.000 A 
BRANCH   6  13
ATOM     12  C   UNL     1       4.384   3.298  11.628  0.00  0.00    +0.000 C 
ATOM     13  S   UNL     1       6.062   2.895  12.179  0.00  0.00    +0.000 S 
ENDBRANCH   6  13
ENDBRANCH   5   9
ENDBRANCH   1   5
BRANCH   3  14
ATOM     14  C   UNL     1       2.988   6.408  19.359  0.00  0.00    +0.000 C 
BRANCH  14  15
ATOM     15  C   UNL     1       2.070   7.597  19.655  0.00  0.00    +0.000 A 
ATOM     16  C   UNL     1       1.512   7.799  20.927  0.00  0.00    +0.000 A 
ATOM     17  C   UNL     1       0.641   8.865  21.162  0.00  0.00    +0.000 A 
ATOM     18  C   UNL     1       0.332   9.759  20.139  0.00  0.00    +0.000 A 
ATOM     19  C   UNL     1       0.890   9.585  18.875  0.00  0.00    +0.000 A 
ATOM     20  C   UNL     1       1.750   8.511  18.634  0.00  0.00    +0.000 A 
ENDBRANCH  14  15
BRANCH  14  21
ATOM     21  C   UNL     1       2.237   5.097  19.082  0.00  0.00    +0.000 A 
ATOM     22  C   UNL     1       1.592   4.426  20.138  0.00  0.00    +0.000 A 
ATOM     23  C   UNL     1       0.976   3.185  19.935  0.00  0.00    +0.000 A 
ATOM     24  C   UNL     1       0.989   2.597  18.673  0.00  0.00    +0.000 A 
ATOM     25  C   UNL     1       1.582   3.265  17.608  0.00  0.00    +0.000 A 
ATOM     26  C   UNL     1       2.190   4.509  17.807  0.00  0.00    +0.000 A 
ENDBRANCH  14  21
ENDBRANCH   3  14
TORSDOF 6
ENDMDL
MODEL 8
REMARK VINA RESULT:      -7.7      3.570      7.656
REMARK  Name = 
REMARK  8 active torsions:
REMARK  status: ('A' for Active; 'I' for Inactive)
REMARK    1  A    between atoms: C_1  and  S_2
REMARK    2  A    between atoms: S_2  and  C_3
REMARK    3  A    between atoms: C_6  and  C_7
REMARK    4  A    between atoms: C_7  and  N_8
REMARK    5  A    between atoms: N_8  and  C_9
REMARK    6  A    between atoms: C_10  and  C_12
REMARK    7  A    between atoms: C_12  and  C_13
REMARK    8  A    between atoms: C_12  and  C_19
REMARK                            x       y       z     vdW  Elec       q    Type
REMARK                         _______ _______ _______ _____ _____    ______ ____
ROOT
ATOM      1  N   UNL     1       2.321   8.103  18.650  0.00  0.00    +0.000 N 
ATOM      2  C   UNL     1       1.805   7.971  20.004  0.00  0.00    +0.000 C 
ATOM      3  C   UNL     1       3.236   7.231  18.057  0.00  0.00    +0.000 C 
ATOM      4  O   UNL     1       3.586   7.419  16.885  0.00  0.00    +0.000 OA
ENDROOT
BRANCH   1   5
ATOM      5  C   UNL     1       1.805   9.214  17.840  0.00  0.00    +0.000 C 
BRANCH   5   9
ATOM      6  C   UNL     1      -1.404  11.638  19.486  0.00  0.00    +0.000 A 
ATOM      7  C   UNL     1      -0.076  11.856  19.851  0.00  0.00    +0.000 A 
ATOM      8  C   UNL     1       0.940  11.056  19.319  0.00  0.00    +0.000 A 
ATOM      9  C   UNL     1       0.652  10.009  18.425  0.00  0.00    +0.000 A 
ATOM     10  C   UNL     1      -0.682   9.827  18.034  0.00  0.00    +0.000 A 
ATOM     11  C   UNL     1      -1.700  10.626  18.574  0.00  0.00    +0.000 A 
BRANCH   6  13
ATOM     12  C   UNL     1      -1.715  14.069  20.681  0.00  0.00    +0.000 C 
ATOM     13  S   UNL     1      -2.704  12.635  20.184  0.00  0.00    +0.000 S 
ENDBRANCH   6  13
ENDBRANCH   5   9
ENDBRANCH   1   5
BRANCH   3  14
ATOM     14  C   UNL     1       3.819   6.044  18.879  0.00  0.00    +0.000 C 
BRANCH  14  15
ATOM     15  C   UNL     1       2.795   4.921  19.073  0.00  0.00    +0.000 A 
ATOM     16  C   UNL     1       2.037   4.422  18.001  0.00  0.00    +0.000 A 
ATOM     17  C   UNL     1       1.077   3.429  18.209  0.00  0.00    +0.000 A 
ATOM     18  C   UNL     1       0.875   2.903  19.483  0.00  0.00    +0.000 A 
ATOM     19  C   UNL     1       1.629   3.374  20.555  0.00  0.00    +0.000 A 
ATOM     20  C   UNL     1       2.581   4.377  20.352  0.00  0.00    +0.000 A 
ENDBRANCH  14  15
BRANCH  14  21
ATOM     21  C   UNL     1       5.177   5.561  18.348  0.00  0.00    +0.000 A 
ATOM     22  C   UNL     1       5.240   4.850  17.136  0.00  0.00    +0.000 A 
ATOM     23  C   UNL     1       6.450   4.320  16.672  0.00  0.00    +0.000 A 
ATOM     24  C   UNL     1       7.618   4.496  17.409  0.00  0.00    +0.000 A 
ATOM     25  C   UNL     1       7.585   5.235  18.586  0.00  0.00    +0.000 A 
ATOM     26  C   UNL     1       6.378   5.773  19.047  0.00  0.00    +0.000 A 
ENDBRANCH  14  21
ENDBRANCH   3  14
TORSDOF 6
ENDMDL
MODEL 9
REMARK VINA RESULT:      -7.7      3.705      7.470
REMARK  Name = 
REMARK  8 active torsions:
REMARK  status: ('A' for Active; 'I' for Inactive)
REMARK    1  A    between atoms: C_1  and  S_2
REMARK    2  A    between atoms: S_2  and  C_3
REMARK    3  A    between atoms: C_6  and  C_7
REMARK    4  A    between atoms: C_7  and  N_8
REMARK    5  A    between atoms: N_8  and  C_9
REMARK    6  A    between atoms: C_10  and  C_12
REMARK    7  A    between atoms: C_12  and  C_13
REMARK    8  A    between atoms: C_12  and  C_19
REMARK                            x       y       z     vdW  Elec       q    Type
REMARK                         _______ _______ _______ _____ _____    ______ ____
ROOT
ATOM      1  N   UNL     1       1.512   8.477  19.626  0.00  0.00    +0.000 N 
ATOM      2  C   UNL     1       1.458   8.309  21.070  0.00  0.00    +0.000 C 
ATOM      3  C   UNL     1       2.197   7.632  18.750  0.00  0.00    +0.000 C 
ATOM      4  O   UNL     1       2.151   7.848  17.533  0.00  0.00    +0.000 OA
ENDROOT
BRANCH   1   5
ATOM      5  C   UNL     1       0.754   9.595  19.051  0.00  0.00    +0.000 C 
BRANCH   5   9
ATOM      6  C   UNL     1       2.500  13.572  19.188  0.00  0.00    +0.000 A 
ATOM      7  C   UNL     1       2.720  12.724  18.103  0.00  0.00    +0.000 A 
ATOM      8  C   UNL     1       2.159  11.443  18.085  0.00  0.00    +0.000 A 
ATOM      9  C   UNL     1       1.380  10.972  19.157  0.00  0.00    +0.000 A 
ATOM     10  C   UNL     1       1.132  11.849  20.223  0.00  0.00    +0.000 A 
ATOM     11  C   UNL     1       1.701  13.130  20.243  0.00  0.00    +0.000 A 
BRANCH   6  13
ATOM     12  C   UNL     1       4.678  14.864  18.179  0.00  0.00    +0.000 C 
ATOM     13  S   UNL     1       3.238  15.191  19.229  0.00  0.00    +0.000 S 
ENDBRANCH   6  13
ENDBRANCH   5   9
ENDBRANCH   1   5
BRANCH   3  14
ATOM     14  C   UNL     1       3.023   6.438  19.314  0.00  0.00    +0.000 C 
BRANCH  14  15
ATOM     15  C   UNL     1       2.199   5.149  19.381  0.00  0.00    +0.000 A 
ATOM     16  C   UNL     1       1.731   4.636  20.602  0.00  0.00    +0.000 A 
ATOM     17  C   UNL     1       1.020   3.435  20.644  0.00  0.00    +0.000 A 
ATOM     18  C   UNL     1       0.745   2.739  19.469  0.00  0.00    +0.000 A 
ATOM     19  C   UNL     1       1.186   3.241  18.247  0.00  0.00    +0.000 A 
ATOM     20  C   UNL     1       1.910   4.435  18.204  0.00  0.00    +0.000 A 
ENDBRANCH  14  15
BRANCH  14  21
ATOM     21  C   UNL     1       4.382   6.271  18.617  0.00  0.00    +0.000 A 
ATOM     22  C   UNL     1       5.374   5.466  19.206  0.00  0.00    +0.000 A 
ATOM     23  C   UNL     1       6.651   5.366  18.641  0.00  0.00    +0.000 A 
ATOM     24  C   UNL     1       6.956   6.064  17.475  0.00  0.00    +0.000 A 
ATOM     25  C   UNL     1       5.975   6.829  16.854  0.00  0.00    +0.000 A 
ATOM     26  C   UNL     1       4.696   6.922  17.412  0.00  0.00    +0.000 A 
ENDBRANCH  14  21
ENDBRANCH   3  14
TORSDOF 6
ENDMDL
