MODEL 1
REMARK VINA RESULT:      -8.1      0.000      0.000
REMARK  Name = 
REMARK  3 active torsions:
REMARK  status: ('A' for Active; 'I' for Inactive)
REMARK    1  A    between atoms: C_2  and  C_3
REMARK    2  A    between atoms: N_10  and  O_11
REMARK    3  A    between atoms: C_22  and  C_23
REMARK                            x       y       z     vdW  Elec       q    Type
REMARK                         _______ _______ _______ _____ _____    ______ ____
ROOT
ATOM      1  C   UNL     1      -1.939  12.831  22.551  0.00  0.00    +0.000 A 
ATOM      2  C   UNL     1      -1.636  13.681  21.471  0.00  0.00    +0.000 A 
ATOM      3  C   UNL     1      -0.830  13.240  20.396  0.00  0.00    +0.000 A 
ATOM      4  C   UNL     1      -0.333  11.943  20.416  0.00  0.00    +0.000 A 
ATOM      5  C   UNL     1      -0.655  11.125  21.503  0.00  0.00    +0.000 A 
ATOM      6  C   UNL     1      -1.438  11.534  22.566  0.00  0.00    +0.000 A 
ATOM      7  C   UNL     1      -0.009   9.823  21.257  0.00  0.00    +0.000 C 
ATOM      8  N   UNL     1      -0.043   8.770  21.992  0.00  0.00    +0.000 NA
ATOM      9  C   UNL     1       0.722   9.965  19.921  0.00  0.00    +0.000 C 
ATOM     10  C   UNL     1       1.449   8.981  19.342  0.00  0.00    +0.000 C 
ATOM     11  C   UNL     1       2.131   9.236  18.016  0.00  0.00    +0.000 C 
ATOM     12  O   UNL     1       2.119  10.264  17.362  0.00  0.00    +0.000 OA
ATOM     13  N   UNL     1       2.781   8.049  17.694  0.00  0.00    +0.000 N 
ATOM     14  C   UNL     1       2.593   7.066  18.667  0.00  0.00    +0.000 A 
ATOM     15  C   UNL     1       1.789   7.574  19.700  0.00  0.00    +0.000 A 
ATOM     16  C   UNL     1       1.496   6.730  20.762  0.00  0.00    +0.000 A 
ATOM     17  C   UNL     1       1.977   5.425  20.805  0.00  0.00    +0.000 A 
ATOM     18  C   UNL     1       2.769   4.943  19.772  0.00  0.00    +0.000 A 
ATOM     19  C   UNL     1       3.097   5.761  18.675  0.00  0.00    +0.000 A 
ATOM     20  N   UNL     1       0.463  11.269  19.497  0.00  0.00    +0.000 N 
ATOM     21  H   UNL     1       3.325   7.940  16.847  0.00  0.00    +0.000 HD
ATOM     22  H   UNL     1       0.847  11.635  18.634  0.00  0.00    +0.000 HD
ENDROOT
BRANCH  19  23
ATOM     23  C   UNL     1       3.959   5.162  17.609  0.00  0.00    +0.000 C 
ATOM     24  F   UNL     1       4.373   6.044  16.660  0.00  0.00    +0.000 F 
ATOM     25  F   UNL     1       5.091   4.600  18.120  0.00  0.00    +0.000 F 
ATOM     26  F   UNL     1       3.324   4.158  16.939  0.00  0.00    +0.000 F 
ENDBRANCH  19  23
BRANCH   1  28
ATOM     27  N   UNL     1      -3.393  13.659  24.534  0.00  0.00    +0.000 NA
ATOM     28  C   UNL     1      -2.755  13.259  23.652  0.00  0.00    +0.000 C 
ENDBRANCH   1  28
BRANCH   8  29
ATOM     29  O   UNL     1      -0.772   8.866  23.166  0.00  0.00    +0.000 OA
ATOM     30  H   UNL     1      -1.333   8.069  23.128  0.00  0.00    +0.000 HD
ENDBRANCH   8  29
TORSDOF 3
ENDMDL
MODEL 2
REMARK VINA RESULT:      -7.9      1.175      1.650
REMARK  Name = 
REMARK  3 active torsions:
REMARK  status: ('A' for Active; 'I' for Inactive)
REMARK    1  A    between atoms: C_2  and  C_3
REMARK    2  A    between atoms: N_10  and  O_11
REMARK    3  A    between atoms: C_22  and  C_23
REMARK                            x       y       z     vdW  Elec       q    Type
REMARK                         _______ _______ _______ _____ _____    ______ ____
ROOT
ATOM      1  C   UNL     1      -1.165  12.477  21.403  0.00  0.00    +0.000 A 
ATOM      2  C   UNL     1      -0.616  13.132  20.285  0.00  0.00    +0.000 A 
ATOM      3  C   UNL     1       0.247  12.456  19.390  0.00  0.00    +0.000 A 
ATOM      4  C   UNL     1       0.551  11.123  19.628  0.00  0.00    +0.000 A 
ATOM      5  C   UNL     1      -0.014  10.502  20.747  0.00  0.00    +0.000 A 
ATOM      6  C   UNL     1      -0.856  11.141  21.636  0.00  0.00    +0.000 A 
ATOM      7  C   UNL     1       0.469   9.109  20.744  0.00  0.00    +0.000 C 
ATOM      8  N   UNL     1       0.198   8.174  21.583  0.00  0.00    +0.000 NA
ATOM      9  C   UNL     1       1.371   8.981  19.515  0.00  0.00    +0.000 C 
ATOM     10  C   UNL     1       2.019   7.847  19.159  0.00  0.00    +0.000 C 
ATOM     11  C   UNL     1       2.887   7.838  17.921  0.00  0.00    +0.000 C 
ATOM     12  O   UNL     1       3.099   8.764  17.158  0.00  0.00    +0.000 OA
ATOM     13  N   UNL     1       3.399   6.548  17.830  0.00  0.00    +0.000 N 
ATOM     14  C   UNL     1       2.957   5.732  18.874  0.00  0.00    +0.000 A 
ATOM     15  C   UNL     1       2.111   6.468  19.720  0.00  0.00    +0.000 A 
ATOM     16  C   UNL     1       1.575   5.815  20.821  0.00  0.00    +0.000 A 
ATOM     17  C   UNL     1       1.860   4.478  21.079  0.00  0.00    +0.000 A 
ATOM     18  C   UNL     1       2.697   3.769  20.230  0.00  0.00    +0.000 A 
ATOM     19  C   UNL     1       3.268   4.389  19.102  0.00  0.00    +0.000 A 
ATOM     20  N   UNL     1       1.351  10.239  18.912  0.00  0.00    +0.000 N 
ATOM     21  H   UNL     1       4.022   6.262  17.086  0.00  0.00    +0.000 HD
ATOM     22  H   UNL     1       1.885  10.438  18.074  0.00  0.00    +0.000 HD
ENDROOT
BRANCH  19  23
ATOM     23  C   UNL     1       4.163   3.551  18.242  0.00  0.00    +0.000 C 
ATOM     24  F   UNL     1       4.208   2.237  18.591  0.00  0.00    +0.000 F 
ATOM     25  F   UNL     1       3.788   3.579  16.932  0.00  0.00    +0.000 F 
ATOM     26  F   UNL     1       5.453   3.991  18.263  0.00  0.00    +0.000 F 
ENDBRANCH  19  23
BRANCH   1  28
ATOM     27  N   UNL     1      -2.750  13.637  23.099  0.00  0.00    +0.000 NA
ATOM     28  C   UNL     1      -2.042  13.144  22.323  0.00  0.00    +0.000 C 
ENDBRANCH   1  28
BRANCH   8  29
ATOM     29  O   UNL     1      -0.648   8.514  22.625  0.00  0.00    +0.000 OA
ATOM     30  H   UNL     1      -0.339   7.931  23.343  0.00  0.00    +0.000 HD
ENDBRANCH   8  29
TORSDOF 3
ENDMDL
MODEL 3
REMARK VINA RESULT:      -7.7      2.477      4.211
REMARK  Name = 
REMARK  3 active torsions:
REMARK  status: ('A' for Active; 'I' for Inactive)
REMARK    1  A    between atoms: C_2  and  C_3
REMARK    2  A    between atoms: N_10  and  O_11
REMARK    3  A    between atoms: C_22  and  C_23
REMARK                            x       y       z     vdW  Elec       q    Type
REMARK                         _______ _______ _______ _____ _____    ______ ____
ROOT
ATOM      1  C   UNL     1       0.659  15.459  19.237  0.00  0.00    +0.000 A 
ATOM      2  C   UNL     1      -0.080  15.441  20.435  0.00  0.00    +0.000 A 
ATOM      3  C   UNL     1      -0.299  14.237  21.144  0.00  0.00    +0.000 A 
ATOM      4  C   UNL     1       0.230  13.056  20.640  0.00  0.00    +0.000 A 
ATOM      5  C   UNL     1       0.961  13.110  19.449  0.00  0.00    +0.000 A 
ATOM      6  C   UNL     1       1.184  14.273  18.738  0.00  0.00    +0.000 A 
ATOM      7  C   UNL     1       1.401  11.732  19.162  0.00  0.00    +0.000 C 
ATOM      8  N   UNL     1       2.105  11.315  18.171  0.00  0.00    +0.000 NA
ATOM      9  C   UNL     1       0.853  10.872  20.302  0.00  0.00    +0.000 C 
ATOM     10  C   UNL     1       1.035   9.535  20.403  0.00  0.00    +0.000 C 
ATOM     11  C   UNL     1       0.445   8.785  21.576  0.00  0.00    +0.000 C 
ATOM     12  O   UNL     1      -0.214   9.245  22.493  0.00  0.00    +0.000 OA
ATOM     13  N   UNL     1       0.807   7.455  21.394  0.00  0.00    +0.000 N 
ATOM     14  C   UNL     1       1.561   7.270  20.233  0.00  0.00    +0.000 A 
ATOM     15  C   UNL     1       1.734   8.503  19.584  0.00  0.00    +0.000 A 
ATOM     16  C   UNL     1       2.462   8.512  18.402  0.00  0.00    +0.000 A 
ATOM     17  C   UNL     1       3.008   7.343  17.878  0.00  0.00    +0.000 A 
ATOM     18  C   UNL     1       2.825   6.136  18.538  0.00  0.00    +0.000 A 
ATOM     19  C   UNL     1       2.091   6.075  19.737  0.00  0.00    +0.000 A 
ATOM     20  N   UNL     1       0.171  11.758  21.136  0.00  0.00    +0.000 N 
ATOM     21  H   UNL     1       0.538   6.725  22.041  0.00  0.00    +0.000 HD
ATOM     22  H   UNL     1      -0.308  11.443  21.972  0.00  0.00    +0.000 HD
ENDROOT
BRANCH  19  23
ATOM     23  C   UNL     1       1.940   4.732  20.378  0.00  0.00    +0.000 C 
ATOM     24  F   UNL     1       0.654   4.299  20.482  0.00  0.00    +0.000 F 
ATOM     25  F   UNL     1       2.610   3.759  19.697  0.00  0.00    +0.000 F 
ATOM     26  F   UNL     1       2.448   4.707  21.644  0.00  0.00    +0.000 F 
ENDBRANCH  19  23
BRANCH   1  28
ATOM     27  N   UNL     1       1.039  17.676  17.944  0.00  0.00    +0.000 NA
ATOM     28  C   UNL     1       0.891  16.671  18.504  0.00  0.00    +0.000 C 
ENDBRANCH   1  28
BRANCH   8  29
ATOM     29  O   UNL     1       2.498  12.275  17.253  0.00  0.00    +0.000 OA
ATOM     30  H   UNL     1       1.662  12.478  16.794  0.00  0.00    +0.000 HD
ENDBRANCH   8  29
TORSDOF 3
ENDMDL
MODEL 4
REMARK VINA RESULT:      -7.7      4.475      8.548
REMARK  Name = 
REMARK  3 active torsions:
REMARK  status: ('A' for Active; 'I' for Inactive)
REMARK    1  A    between atoms: C_2  and  C_3
REMARK    2  A    between atoms: N_10  and  O_11
REMARK    3  A    between atoms: C_22  and  C_23
REMARK                            x       y       z     vdW  Elec       q    Type
REMARK                         _______ _______ _______ _____ _____    ______ ____
ROOT
ATOM      1  C   UNL     1       3.449   6.137  18.209  0.00  0.00    +0.000 A 
ATOM      2  C   UNL     1       3.293   5.400  19.397  0.00  0.00    +0.000 A 
ATOM      3  C   UNL     1       2.564   5.919  20.492  0.00  0.00    +0.000 A 
ATOM      4  C   UNL     1       1.994   7.181  20.382  0.00  0.00    +0.000 A 
ATOM      5  C   UNL     1       2.167   7.885  19.187  0.00  0.00    +0.000 A 
ATOM      6  C   UNL     1       2.877   7.400  18.106  0.00  0.00    +0.000 A 
ATOM      7  C   UNL     1       1.459   9.169  19.348  0.00  0.00    +0.000 C 
ATOM      8  N   UNL     1       1.347  10.125  18.497  0.00  0.00    +0.000 NA
ATOM      9  C   UNL     1       0.860   9.142  20.756  0.00  0.00    +0.000 C 
ATOM     10  C   UNL     1       0.134  10.149  21.294  0.00  0.00    +0.000 C 
ATOM     11  C   UNL     1      -0.409  10.013  22.699  0.00  0.00    +0.000 C 
ATOM     12  O   UNL     1      -0.271   9.069  23.458  0.00  0.00    +0.000 OA
ATOM     13  N   UNL     1      -1.101  11.192  22.951  0.00  0.00    +0.000 N 
ATOM     14  C   UNL     1      -1.059  12.069  21.864  0.00  0.00    +0.000 A 
ATOM     15  C   UNL     1      -0.318  11.489  20.822  0.00  0.00    +0.000 A 
ATOM     16  C   UNL     1      -0.168  12.224  19.654  0.00  0.00    +0.000 A 
ATOM     17  C   UNL     1      -0.733  13.488  19.515  0.00  0.00    +0.000 A 
ATOM     18  C   UNL     1      -1.461  14.042  20.559  0.00  0.00    +0.000 A 
ATOM     19  C   UNL     1      -1.638  13.337  21.764  0.00  0.00    +0.000 A 
ATOM     20  N   UNL     1       1.234   7.909  21.290  0.00  0.00    +0.000 N 
ATOM     21  H   UNL     1      -1.568  11.371  23.831  0.00  0.00    +0.000 HD
ATOM     22  H   UNL     1       0.977   7.636  22.232  0.00  0.00    +0.000 HD
ENDROOT
BRANCH  19  23
ATOM     23  C   UNL     1      -2.434  14.010  22.838  0.00  0.00    +0.000 C 
ATOM     24  F   UNL     1      -3.569  13.350  23.194  0.00  0.00    +0.000 F 
ATOM     25  F   UNL     1      -1.717  14.170  23.986  0.00  0.00    +0.000 F 
ATOM     26  F   UNL     1      -2.827  15.265  22.476  0.00  0.00    +0.000 F 
ENDBRANCH  19  23
BRANCH   1  28
ATOM     27  N   UNL     1       4.823   5.253  16.193  0.00  0.00    +0.000 NA
ATOM     28  C   UNL     1       4.185   5.628  17.087  0.00  0.00    +0.000 C 
ENDBRANCH   1  28
BRANCH   8  29
ATOM     29  O   UNL     1       1.972   9.933  17.276  0.00  0.00    +0.000 OA
ATOM     30  H   UNL     1       2.916   9.963  17.518  0.00  0.00    +0.000 HD
ENDBRANCH   8  29
TORSDOF 3
ENDMDL
MODEL 5
REMARK VINA RESULT:      -7.7      2.230      3.873
REMARK  Name = 
REMARK  3 active torsions:
REMARK  status: ('A' for Active; 'I' for Inactive)
REMARK    1  A    between atoms: C_2  and  C_3
REMARK    2  A    between atoms: N_10  and  O_11
REMARK    3  A    between atoms: C_22  and  C_23
REMARK                            x       y       z     vdW  Elec       q    Type
REMARK                         _______ _______ _______ _____ _____    ______ ____
ROOT
ATOM      1  C   UNL     1      -0.587  11.012  21.394  0.00  0.00    +0.000 A 
ATOM      2  C   UNL     1      -0.723  10.073  22.433  0.00  0.00    +0.000 A 
ATOM      3  C   UNL     1      -0.071   8.819  22.379  0.00  0.00    +0.000 A 
ATOM      4  C   UNL     1       0.715   8.519  21.275  0.00  0.00    +0.000 A 
ATOM      5  C   UNL     1       0.831   9.474  20.261  0.00  0.00    +0.000 A 
ATOM      6  C   UNL     1       0.202  10.704  20.291  0.00  0.00    +0.000 A 
ATOM      7  C   UNL     1       1.719   8.897  19.236  0.00  0.00    +0.000 C 
ATOM      8  N   UNL     1       2.108   9.428  18.133  0.00  0.00    +0.000 NA
ATOM      9  C   UNL     1       2.108   7.510  19.753  0.00  0.00    +0.000 C 
ATOM     10  C   UNL     1       2.915   6.649  19.091  0.00  0.00    +0.000 C 
ATOM     11  C   UNL     1       3.231   5.301  19.699  0.00  0.00    +0.000 C 
ATOM     12  O   UNL     1       2.831   4.855  20.761  0.00  0.00    +0.000 OA
ATOM     13  N   UNL     1       4.074   4.667  18.793  0.00  0.00    +0.000 N 
ATOM     14  C   UNL     1       4.331   5.459  17.672  0.00  0.00    +0.000 A 
ATOM     15  C   UNL     1       3.651   6.682  17.794  0.00  0.00    +0.000 A 
ATOM     16  C   UNL     1       3.789   7.601  16.764  0.00  0.00    +0.000 A 
ATOM     17  C   UNL     1       4.576   7.327  15.649  0.00  0.00    +0.000 A 
ATOM     18  C   UNL     1       5.240   6.112  15.549  0.00  0.00    +0.000 A 
ATOM     19  C   UNL     1       5.127   5.146  16.566  0.00  0.00    +0.000 A 
ATOM     20  N   UNL     1       1.459   7.381  20.981  0.00  0.00    +0.000 N 
ATOM     21  H   UNL     1       4.440   3.737  18.950  0.00  0.00    +0.000 HD
ATOM     22  H   UNL     1       1.535   6.538  21.538  0.00  0.00    +0.000 HD
ENDROOT
BRANCH  19  23
ATOM     23  C   UNL     1       5.874   3.863  16.375  0.00  0.00    +0.000 C 
ATOM     24  F   UNL     1       6.310   3.650  15.104  0.00  0.00    +0.000 F 
ATOM     25  F   UNL     1       6.979   3.788  17.169  0.00  0.00    +0.000 F 
ATOM     26  F   UNL     1       5.117   2.776  16.700  0.00  0.00    +0.000 F 
ENDBRANCH  19  23
BRANCH   1  28
ATOM     27  N   UNL     1      -1.768  13.319  21.517  0.00  0.00    +0.000 NA
ATOM     28  C   UNL     1      -1.240  12.289  21.430  0.00  0.00    +0.000 C 
ENDBRANCH   1  28
BRANCH   8  29
ATOM     29  O   UNL     1       1.632  10.701  17.866  0.00  0.00    +0.000 OA
ATOM     30  H   UNL     1       1.142  10.570  17.033  0.00  0.00    +0.000 HD
ENDBRANCH   8  29
TORSDOF 3
ENDMDL
MODEL 6
REMARK VINA RESULT:      -7.6      2.031      2.913
REMARK  Name = 
REMARK  3 active torsions:
REMARK  status: ('A' for Active; 'I' for Inactive)
REMARK    1  A    between atoms: C_2  and  C_3
REMARK    2  A    between atoms: N_10  and  O_11
REMARK    3  A    between atoms: C_22  and  C_23
REMARK                            x       y       z     vdW  Elec       q    Type
REMARK                         _______ _______ _______ _____ _____    ______ ____
ROOT
ATOM      1  C   UNL     1       0.237  12.347  19.988  0.00  0.00    +0.000 A 
ATOM      2  C   UNL     1       0.993  12.686  18.849  0.00  0.00    +0.000 A 
ATOM      3  C   UNL     1       1.763  11.717  18.165  0.00  0.00    +0.000 A 
ATOM      4  C   UNL     1       1.767  10.410  18.634  0.00  0.00    +0.000 A 
ATOM      5  C   UNL     1       1.005  10.107  19.766  0.00  0.00    +0.000 A 
ATOM      6  C   UNL     1       0.247  11.036  20.452  0.00  0.00    +0.000 A 
ATOM      7  C   UNL     1       1.189   8.668  20.026  0.00  0.00    +0.000 C 
ATOM      8  N   UNL     1       0.670   7.958  20.963  0.00  0.00    +0.000 NA
ATOM      9  C   UNL     1       2.136   8.163  18.935  0.00  0.00    +0.000 C 
ATOM     10  C   UNL     1       2.562   6.884  18.828  0.00  0.00    +0.000 C 
ATOM     11  C   UNL     1       3.501   6.498  17.706  0.00  0.00    +0.000 C 
ATOM     12  O   UNL     1       3.957   7.224  16.839  0.00  0.00    +0.000 OA
ATOM     13  N   UNL     1       3.743   5.139  17.868  0.00  0.00    +0.000 N 
ATOM     14  C   UNL     1       3.064   4.612  18.969  0.00  0.00    +0.000 A 
ATOM     15  C   UNL     1       2.327   5.628  19.597  0.00  0.00    +0.000 A 
ATOM     16  C   UNL     1       1.586   5.286  20.720  0.00  0.00    +0.000 A 
ATOM     17  C   UNL     1       1.569   3.982  21.207  0.00  0.00    +0.000 A 
ATOM     18  C   UNL     1       2.306   2.993  20.570  0.00  0.00    +0.000 A 
ATOM     19  C   UNL     1       3.075   3.292  19.430  0.00  0.00    +0.000 A 
ATOM     20  N   UNL     1       2.421   9.282  18.151  0.00  0.00    +0.000 N 
ATOM     21  H   UNL     1       4.348   4.616  17.247  0.00  0.00    +0.000 HD
ATOM     22  H   UNL     1       3.047   9.229  17.355  0.00  0.00    +0.000 HD
ENDROOT
BRANCH  19  23
ATOM     23  C   UNL     1       3.841   2.166  18.809  0.00  0.00    +0.000 C 
ATOM     24  F   UNL     1       4.394   2.461  17.602  0.00  0.00    +0.000 F 
ATOM     25  F   UNL     1       4.868   1.745  19.600  0.00  0.00    +0.000 F 
ATOM     26  F   UNL     1       3.061   1.065  18.606  0.00  0.00    +0.000 F 
ENDBRANCH  19  23
BRANCH   1  28
ATOM     27  N   UNL     1      -1.209  14.056  21.299  0.00  0.00    +0.000 NA
ATOM     28  C   UNL     1      -0.551  13.316  20.695  0.00  0.00    +0.000 C 
ENDBRANCH   1  28
BRANCH   8  29
ATOM     29  O   UNL     1      -0.165   8.625  21.844  0.00  0.00    +0.000 OA
ATOM     30  H   UNL     1       0.466   9.145  22.376  0.00  0.00    +0.000 HD
ENDBRANCH   8  29
TORSDOF 3
ENDMDL
MODEL 7
REMARK VINA RESULT:      -7.5      4.339      8.435
REMARK  Name = 
REMARK  3 active torsions:
REMARK  status: ('A' for Active; 'I' for Inactive)
REMARK    1  A    between atoms: C_2  and  C_3
REMARK    2  A    between atoms: N_10  and  O_11
REMARK    3  A    between atoms: C_22  and  C_23
REMARK                            x       y       z     vdW  Elec       q    Type
REMARK                         _______ _______ _______ _____ _____    ______ ____
ROOT
ATOM      1  C   UNL     1       3.199   5.034  18.526  0.00  0.00    +0.000 A 
ATOM      2  C   UNL     1       2.884   4.477  19.779  0.00  0.00    +0.000 A 
ATOM      3  C   UNL     1       2.235   5.240  20.778  0.00  0.00    +0.000 A 
ATOM      4  C   UNL     1       1.906   6.561  20.506  0.00  0.00    +0.000 A 
ATOM      5  C   UNL     1       2.232   7.082  19.251  0.00  0.00    +0.000 A 
ATOM      6  C   UNL     1       2.868   6.358  18.261  0.00  0.00    +0.000 A 
ATOM      7  C   UNL     1       1.765   8.481  19.240  0.00  0.00    +0.000 C 
ATOM      8  N   UNL     1       1.849   9.338  18.287  0.00  0.00    +0.000 NA
ATOM      9  C   UNL     1       1.137   8.722  20.615  0.00  0.00    +0.000 C 
ATOM     10  C   UNL     1       0.593   9.897  21.008  0.00  0.00    +0.000 C 
ATOM     11  C   UNL     1       0.000  10.020  22.394  0.00  0.00    +0.000 C 
ATOM     12  O   UNL     1      -0.053   9.160  23.257  0.00  0.00    +0.000 OA
ATOM     13  N   UNL     1      -0.472  11.325  22.487  0.00  0.00    +0.000 N 
ATOM     14  C   UNL     1      -0.246  12.050  21.314  0.00  0.00    +0.000 A 
ATOM     15  C   UNL     1       0.402  11.233  20.374  0.00  0.00    +0.000 A 
ATOM     16  C   UNL     1       0.710  11.790  19.141  0.00  0.00    +0.000 A 
ATOM     17  C   UNL     1       0.388  13.111  18.842  0.00  0.00    +0.000 A 
ATOM     18  C   UNL     1      -0.254  13.900  19.786  0.00  0.00    +0.000 A 
ATOM     19  C   UNL     1      -0.584  13.381  21.052  0.00  0.00    +0.000 A 
ATOM     20  N   UNL     1       1.269   7.511  21.296  0.00  0.00    +0.000 N 
ATOM     21  H   UNL     1      -0.920  11.683  23.320  0.00  0.00    +0.000 HD
ATOM     22  H   UNL     1       0.944   7.398  22.249  0.00  0.00    +0.000 HD
ENDROOT
BRANCH  19  23
ATOM     23  C   UNL     1      -1.271  14.303  22.010  0.00  0.00    +0.000 C 
ATOM     24  F   UNL     1      -2.503  13.885  22.407  0.00  0.00    +0.000 F 
ATOM     25  F   UNL     1      -0.550  14.486  23.153  0.00  0.00    +0.000 F 
ATOM     26  F   UNL     1      -1.447  15.549  21.486  0.00  0.00    +0.000 F 
ENDBRANCH  19  23
BRANCH   1  28
ATOM     27  N   UNL     1       4.431   3.707  16.668  0.00  0.00    +0.000 NA
ATOM     28  C   UNL     1       3.858   4.277  17.499  0.00  0.00    +0.000 C 
ENDBRANCH   1  28
BRANCH   8  29
ATOM     29  O   UNL     1       2.457   8.900  17.122  0.00  0.00    +0.000 OA
ATOM     30  H   UNL     1       3.399   9.082  17.299  0.00  0.00    +0.000 HD
ENDBRANCH   8  29
TORSDOF 3
ENDMDL
MODEL 8
REMARK VINA RESULT:      -7.5      4.036      8.017
REMARK  Name = 
REMARK  3 active torsions:
REMARK  status: ('A' for Active; 'I' for Inactive)
REMARK    1  A    between atoms: C_2  and  C_3
REMARK    2  A    between atoms: N_10  and  O_11
REMARK    3  A    between atoms: C_22  and  C_23
REMARK                            x       y       z     vdW  Elec       q    Type
REMARK                         _______ _______ _______ _____ _____    ______ ____
ROOT
ATOM      1  C   UNL     1       3.786   3.380  18.114  0.00  0.00    +0.000 A 
ATOM      2  C   UNL     1       4.304   4.069  17.001  0.00  0.00    +0.000 A 
ATOM      3  C   UNL     1       4.076   5.454  16.825  0.00  0.00    +0.000 A 
ATOM      4  C   UNL     1       3.326   6.137  17.773  0.00  0.00    +0.000 A 
ATOM      5  C   UNL     1       2.828   5.423  18.867  0.00  0.00    +0.000 A 
ATOM      6  C   UNL     1       3.035   4.071  19.059  0.00  0.00    +0.000 A 
ATOM      7  C   UNL     1       2.090   6.389  19.701  0.00  0.00    +0.000 C 
ATOM      8  N   UNL     1       1.474   6.174  20.807  0.00  0.00    +0.000 NA
ATOM      9  C   UNL     1       2.205   7.736  18.982  0.00  0.00    +0.000 C 
ATOM     10  C   UNL     1       1.651   8.887  19.427  0.00  0.00    +0.000 C 
ATOM     11  C   UNL     1       1.831  10.161  18.632  0.00  0.00    +0.000 C 
ATOM     12  O   UNL     1       2.437  10.300  17.583  0.00  0.00    +0.000 OA
ATOM     13  N   UNL     1       1.158  11.147  19.344  0.00  0.00    +0.000 N 
ATOM     14  C   UNL     1       0.566  10.645  20.505  0.00  0.00    +0.000 A 
ATOM     15  C   UNL     1       0.831   9.271  20.612  0.00  0.00    +0.000 A 
ATOM     16  C   UNL     1       0.315   8.599  21.711  0.00  0.00    +0.000 A 
ATOM     17  C   UNL     1      -0.436   9.261  22.678  0.00  0.00    +0.000 A 
ATOM     18  C   UNL     1      -0.684  10.621  22.554  0.00  0.00    +0.000 A 
ATOM     19  C   UNL     1      -0.186  11.345  21.454  0.00  0.00    +0.000 A 
ATOM     20  N   UNL     1       2.967   7.478  17.842  0.00  0.00    +0.000 N 
ATOM     21  H   UNL     1       1.114  12.109  19.032  0.00  0.00    +0.000 HD
ATOM     22  H   UNL     1       3.185   8.206  17.171  0.00  0.00    +0.000 HD
ENDROOT
BRANCH  19  23
ATOM     23  C   UNL     1      -0.505  12.806  21.397  0.00  0.00    +0.000 C 
ATOM     24  F   UNL     1       0.585  13.619  21.368  0.00  0.00    +0.000 F 
ATOM     25  F   UNL     1      -1.243  13.128  20.298  0.00  0.00    +0.000 F 
ATOM     26  F   UNL     1      -1.248  13.211  22.467  0.00  0.00    +0.000 F 
ENDBRANCH  19  23
BRANCH   1  28
ATOM     27  N   UNL     1       4.129   0.836  18.488  0.00  0.00    +0.000 NA
ATOM     28  C   UNL     1       4.006   1.975  18.311  0.00  0.00    +0.000 C 
ENDBRANCH   1  28
BRANCH   8  29
ATOM     29  O   UNL     1       1.500   4.872  21.279  0.00  0.00    +0.000 OA
ATOM     30  H   UNL     1       1.253   4.359  20.487  0.00  0.00    +0.000 HD
ENDBRANCH   8  29
TORSDOF 3
ENDMDL
MODEL 9
REMARK VINA RESULT:      -7.3      2.182      3.749
REMARK  Name = 
REMARK  3 active torsions:
REMARK  status: ('A' for Active; 'I' for Inactive)
REMARK    1  A    between atoms: C_2  and  C_3
REMARK    2  A    between atoms: N_10  and  O_11
REMARK    3  A    between atoms: C_22  and  C_23
REMARK                            x       y       z     vdW  Elec       q    Type
REMARK                         _______ _______ _______ _____ _____    ______ ____
ROOT
ATOM      1  C   UNL     1      -2.270  15.492  21.330  0.00  0.00    +0.000 A 
ATOM      2  C   UNL     1      -2.266  15.204  22.708  0.00  0.00    +0.000 A 
ATOM      3  C   UNL     1      -1.699  14.008  23.205  0.00  0.00    +0.000 A 
ATOM      4  C   UNL     1      -1.140  13.107  22.309  0.00  0.00    +0.000 A 
ATOM      5  C   UNL     1      -1.159  13.424  20.948  0.00  0.00    +0.000 A 
ATOM      6  C   UNL     1      -1.709  14.584  20.439  0.00  0.00    +0.000 A 
ATOM      7  C   UNL     1      -0.500  12.308  20.245  0.00  0.00    +0.000 C 
ATOM      8  N   UNL     1      -0.289  12.179  18.984  0.00  0.00    +0.000 NA
ATOM      9  C   UNL     1      -0.097  11.309  21.332  0.00  0.00    +0.000 C 
ATOM     10  C   UNL     1       0.534  10.136  21.093  0.00  0.00    +0.000 C 
ATOM     11  C   UNL     1       0.884   9.225  22.248  0.00  0.00    +0.000 C 
ATOM     12  O   UNL     1       0.659   9.410  23.432  0.00  0.00    +0.000 OA
ATOM     13  N   UNL     1       1.517   8.125  21.681  0.00  0.00    +0.000 N 
ATOM     14  C   UNL     1       1.609   8.230  20.291  0.00  0.00    +0.000 A 
ATOM     15  C   UNL     1       1.026   9.436  19.872  0.00  0.00    +0.000 A 
ATOM     16  C   UNL     1       1.024   9.711  18.511  0.00  0.00    +0.000 A 
ATOM     17  C   UNL     1       1.582   8.827  17.593  0.00  0.00    +0.000 A 
ATOM     18  C   UNL     1       2.155   7.640  18.030  0.00  0.00    +0.000 A 
ATOM     19  C   UNL     1       2.177   7.315  19.399  0.00  0.00    +0.000 A 
ATOM     20  N   UNL     1      -0.520  11.882  22.532  0.00  0.00    +0.000 N 
ATOM     21  H   UNL     1       1.858   7.349  22.234  0.00  0.00    +0.000 HD
ATOM     22  H   UNL     1      -0.389  11.414  23.422  0.00  0.00    +0.000 HD
ENDROOT
BRANCH  19  23
ATOM     23  C   UNL     1       2.811   6.014  19.782  0.00  0.00    +0.000 C 
ATOM     24  F   UNL     1       2.453   5.555  21.012  0.00  0.00    +0.000 F 
ATOM     25  F   UNL     1       2.505   5.017  18.905  0.00  0.00    +0.000 F 
ATOM     26  F   UNL     1       4.172   6.089  19.790  0.00  0.00    +0.000 F 
ENDBRANCH  19  23
BRANCH   1  28
ATOM     27  N   UNL     1      -3.250  17.688  20.357  0.00  0.00    +0.000 NA
ATOM     28  C   UNL     1      -2.840  16.700  20.806  0.00  0.00    +0.000 C 
ENDBRANCH   1  28
BRANCH   8  29
ATOM     29  O   UNL     1      -0.739  13.212  18.180  0.00  0.00    +0.000 OA
ATOM     30  H   UNL     1      -0.049  13.890  18.305  0.00  0.00    +0.000 HD
ENDBRANCH   8  29
TORSDOF 3
ENDMDL
