MODEL 1
REMARK VINA RESULT:      -7.8      0.000      0.000
REMARK  Name = 
REMARK  13 active torsions:
REMARK  status: ('A' for Active; 'I' for Inactive)
REMARK    1  A    between atoms: C_1  and  C_2
REMARK    2  A    between atoms: C_2  and  C_3
REMARK    3  A    between atoms: C_3  and  C_4
REMARK    4  A    between atoms: C_3  and  N_12
REMARK    5  A    between atoms: C_4  and  C_5
REMARK    6  A    between atoms: C_5  and  C_6
REMARK    7  A    between atoms: C_6  and  C_7
REMARK    8  A    between atoms: C_7  and  C_8
REMARK    9  A    between atoms: N_10  and  O_11
REMARK   10  A    between atoms: N_12  and  C_13
REMARK   11  A    between atoms: C_14  and  N_15
REMARK   12  A    between atoms: N_15  and  C_16
REMARK   13  A    between atoms: C_19  and  C_20
REMARK                            x       y       z     vdW  Elec       q    Type
REMARK                         _______ _______ _______ _____ _____    ______ ____
ROOT
ATOM      1  C   UNL     1       6.931   4.457  16.248  0.00  0.00    +0.000 C 
ATOM      2  C   UNL     1       5.972   3.575  15.816  0.00  0.00    +0.000 C 
ATOM      3  C   UNL     1       6.329   3.792  14.383  0.00  0.00    +0.000 C 
ATOM      4  O   UNL     1       6.018   3.400  13.296  0.00  0.00    +0.000 OA
ATOM      5  C   UNL     1       7.232   4.882  14.859  0.00  0.00    +0.000 C 
ATOM      6  O   UNL     1       7.917   5.706  14.295  0.00  0.00    +0.000 OA
ENDROOT
BRANCH   1   7
ATOM      7  N   UNL     1       7.470   4.902  17.376  0.00  0.00    +0.000 N 
ATOM      8  H   UNL     1       7.811   4.213  18.034  0.00  0.00    +0.000 HD
BRANCH   7   9
ATOM      9  C   UNL     1       6.979   6.127  18.086  0.00  0.00    +0.000 C 
BRANCH   9  11
ATOM     10  C   UNL     1       8.388   8.336  18.106  0.00  0.00    +0.000 C 
ATOM     11  C   UNL     1       7.476   7.392  17.337  0.00  0.00    +0.000 C 
ENDBRANCH   9  11
BRANCH   9  12
ATOM     12  C   UNL     1       5.426   6.063  18.152  0.00  0.00    +0.000 C 
BRANCH  12  13
ATOM     13  C   UNL     1       4.664   7.294  17.651  0.00  0.00    +0.000 C 
BRANCH  13  14
ATOM     14  C   UNL     1       3.169   7.066  17.537  0.00  0.00    +0.000 C 
BRANCH  14  15
ATOM     15  C   UNL     1       2.439   8.379  17.781  0.00  0.00    +0.000 C 
BRANCH  15  16
ATOM     16  C   UNL     1       1.887   8.460  19.178  0.00  0.00    +0.000 C 
ATOM     17  O   UNL     1       1.222   9.395  19.612  0.00  0.00    +0.000 OA
ATOM     18  N   UNL     1       2.192   7.361  19.939  0.00  0.00    +0.000 N 
ATOM     19  H   UNL     1       2.849   6.634  19.680  0.00  0.00    +0.000 HD
BRANCH  18  20
ATOM     20  O   UNL     1       1.724   7.379  21.268  0.00  0.00    +0.000 OA
ATOM     21  H   UNL     1       2.555   7.273  21.782  0.00  0.00    +0.000 HD
ENDBRANCH  18  20
ENDBRANCH  15  16
ENDBRANCH  14  15
ENDBRANCH  13  14
ENDBRANCH  12  13
ENDBRANCH   9  12
ENDBRANCH   7   9
ENDBRANCH   1   7
BRANCH   2  22
ATOM     22  N   UNL     1       5.092   2.744  16.349  0.00  0.00    +0.000 N 
ATOM     23  H   UNL     1       4.846   1.870  15.892  0.00  0.00    +0.000 HD
BRANCH  22  24
ATOM     24  C   UNL     1       4.218   3.031  17.426  0.00  0.00    +0.000 A 
ATOM     25  C   UNL     1       2.895   3.429  17.194  0.00  0.00    +0.000 A 
ATOM     26  C   UNL     1       2.020   3.674  18.245  0.00  0.00    +0.000 A 
ATOM     27  C   UNL     1       2.452   3.554  19.569  0.00  0.00    +0.000 A 
ATOM     28  C   UNL     1       3.796   3.230  19.809  0.00  0.00    +0.000 A 
ATOM     29  C   UNL     1       4.670   2.964  18.752  0.00  0.00    +0.000 A 
BRANCH  27  30
ATOM     30  C   UNL     1       1.458   3.721  20.690  0.00  0.00    +0.000 C 
ATOM     31  F   UNL     1       0.389   4.496  20.343  0.00  0.00    +0.000 F 
ATOM     32  F   UNL     1       0.929   2.530  21.088  0.00  0.00    +0.000 F 
ATOM     33  F   UNL     1       1.988   4.289  21.805  0.00  0.00    +0.000 F 
ENDBRANCH  27  30
ENDBRANCH  22  24
ENDBRANCH   2  22
TORSDOF 12
ENDMDL
MODEL 2
REMARK VINA RESULT:      -7.6      3.176      6.492
REMARK  Name = 
REMARK  13 active torsions:
REMARK  status: ('A' for Active; 'I' for Inactive)
REMARK    1  A    between atoms: C_1  and  C_2
REMARK    2  A    between atoms: C_2  and  C_3
REMARK    3  A    between atoms: C_3  and  C_4
REMARK    4  A    between atoms: C_3  and  N_12
REMARK    5  A    between atoms: C_4  and  C_5
REMARK    6  A    between atoms: C_5  and  C_6
REMARK    7  A    between atoms: C_6  and  C_7
REMARK    8  A    between atoms: C_7  and  C_8
REMARK    9  A    between atoms: N_10  and  O_11
REMARK   10  A    between atoms: N_12  and  C_13
REMARK   11  A    between atoms: C_14  and  N_15
REMARK   12  A    between atoms: N_15  and  C_16
REMARK   13  A    between atoms: C_19  and  C_20
REMARK                            x       y       z     vdW  Elec       q    Type
REMARK                         _______ _______ _______ _____ _____    ______ ____
ROOT
ATOM      1  C   UNL     1       4.769   3.454  19.485  0.00  0.00    +0.000 C 
ATOM      2  C   UNL     1       3.434   3.761  19.409  0.00  0.00    +0.000 C 
ATOM      3  C   UNL     1       3.094   2.848  20.539  0.00  0.00    +0.000 C 
ATOM      4  O   UNL     1       2.146   2.504  21.182  0.00  0.00    +0.000 OA
ATOM      5  C   UNL     1       4.514   2.385  20.483  0.00  0.00    +0.000 C 
ATOM      6  O   UNL     1       5.136   1.522  21.060  0.00  0.00    +0.000 OA
ENDROOT
BRANCH   1   7
ATOM      7  N   UNL     1       5.930   3.816  18.952  0.00  0.00    +0.000 N 
ATOM      8  H   UNL     1       6.733   3.855  19.567  0.00  0.00    +0.000 HD
BRANCH   7   9
ATOM      9  C   UNL     1       6.041   4.831  17.857  0.00  0.00    +0.000 C 
BRANCH   9  11
ATOM     10  C   UNL     1       7.562   6.964  17.802  0.00  0.00    +0.000 C 
ATOM     11  C   UNL     1       7.466   5.447  17.867  0.00  0.00    +0.000 C 
ENDBRANCH   9  11
BRANCH   9  12
ATOM     12  C   UNL     1       5.721   4.130  16.505  0.00  0.00    +0.000 C 
BRANCH  12  13
ATOM     13  C   UNL     1       5.987   4.936  15.230  0.00  0.00    +0.000 C 
BRANCH  13  14
ATOM     14  C   UNL     1       5.333   4.340  13.998  0.00  0.00    +0.000 C 
BRANCH  14  15
ATOM     15  C   UNL     1       6.407   3.978  12.983  0.00  0.00    +0.000 C 
BRANCH  15  16
ATOM     16  C   UNL     1       5.939   2.910  12.033  0.00  0.00    +0.000 C 
ATOM     17  O   UNL     1       4.799   2.821  11.589  0.00  0.00    +0.000 OA
ATOM     18  N   UNL     1       6.930   2.027  11.690  0.00  0.00    +0.000 N 
ATOM     19  H   UNL     1       7.841   1.969  12.130  0.00  0.00    +0.000 HD
BRANCH  18  20
ATOM     20  O   UNL     1       6.556   0.984  10.818  0.00  0.00    +0.000 OA
ATOM     21  H   UNL     1       7.415   0.540  10.646  0.00  0.00    +0.000 HD
ENDBRANCH  18  20
ENDBRANCH  15  16
ENDBRANCH  14  15
ENDBRANCH  13  14
ENDBRANCH  12  13
ENDBRANCH   9  12
ENDBRANCH   7   9
ENDBRANCH   1   7
BRANCH   2  22
ATOM     22  N   UNL     1       2.654   4.580  18.723  0.00  0.00    +0.000 N 
ATOM     23  H   UNL     1       2.401   4.385  17.758  0.00  0.00    +0.000 HD
BRANCH  22  24
ATOM     24  C   UNL     1       2.285   5.894  19.101  0.00  0.00    +0.000 A 
ATOM     25  C   UNL     1       2.428   6.967  18.211  0.00  0.00    +0.000 A 
ATOM     26  C   UNL     1       2.031   8.252  18.560  0.00  0.00    +0.000 A 
ATOM     27  C   UNL     1       1.502   8.510  19.828  0.00  0.00    +0.000 A 
ATOM     28  C   UNL     1       1.427   7.456  20.751  0.00  0.00    +0.000 A 
ATOM     29  C   UNL     1       1.807   6.160  20.392  0.00  0.00    +0.000 A 
BRANCH  27  30
ATOM     30  C   UNL     1       0.981   9.889  20.146  0.00  0.00    +0.000 C 
ATOM     31  F   UNL     1      -0.373   9.993  20.004  0.00  0.00    +0.000 F 
ATOM     32  F   UNL     1       1.240  10.250  21.433  0.00  0.00    +0.000 F 
ATOM     33  F   UNL     1       1.517  10.864  19.365  0.00  0.00    +0.000 F 
ENDBRANCH  27  30
ENDBRANCH  22  24
ENDBRANCH   2  22
TORSDOF 12
ENDMDL
MODEL 3
REMARK VINA RESULT:      -7.5      3.291      6.469
REMARK  Name = 
REMARK  13 active torsions:
REMARK  status: ('A' for Active; 'I' for Inactive)
REMARK    1  A    between atoms: C_1  and  C_2
REMARK    2  A    between atoms: C_2  and  C_3
REMARK    3  A    between atoms: C_3  and  C_4
REMARK    4  A    between atoms: C_3  and  N_12
REMARK    5  A    between atoms: C_4  and  C_5
REMARK    6  A    between atoms: C_5  and  C_6
REMARK    7  A    between atoms: C_6  and  C_7
REMARK    8  A    between atoms: C_7  and  C_8
REMARK    9  A    between atoms: N_10  and  O_11
REMARK   10  A    between atoms: N_12  and  C_13
REMARK   11  A    between atoms: C_14  and  N_15
REMARK   12  A    between atoms: N_15  and  C_16
REMARK   13  A    between atoms: C_19  and  C_20
REMARK                            x       y       z     vdW  Elec       q    Type
REMARK                         _______ _______ _______ _____ _____    ______ ____
ROOT
ATOM      1  C   UNL     1       4.199   3.540  19.458  0.00  0.00    +0.000 C 
ATOM      2  C   UNL     1       3.078   4.024  20.084  0.00  0.00    +0.000 C 
ATOM      3  C   UNL     1       2.326   2.755  19.857  0.00  0.00    +0.000 C 
ATOM      4  O   UNL     1       1.261   2.269  20.102  0.00  0.00    +0.000 OA
ATOM      5  C   UNL     1       3.482   2.317  19.018  0.00  0.00    +0.000 C 
ATOM      6  O   UNL     1       3.693   1.347  18.326  0.00  0.00    +0.000 OA
ENDROOT
BRANCH   1   7
ATOM      7  N   UNL     1       5.457   3.884  19.212  0.00  0.00    +0.000 N 
ATOM      8  H   UNL     1       6.163   3.568  19.864  0.00  0.00    +0.000 HD
BRANCH   7   9
ATOM      9  C   UNL     1       5.837   5.200  18.605  0.00  0.00    +0.000 C 
BRANCH   9  11
ATOM     10  C   UNL     1       7.914   6.774  18.336  0.00  0.00    +0.000 C 
ATOM     11  C   UNL     1       7.360   5.432  18.790  0.00  0.00    +0.000 C 
ENDBRANCH   9  11
BRANCH   9  12
ATOM     12  C   UNL     1       5.429   5.183  17.104  0.00  0.00    +0.000 C 
BRANCH  12  13
ATOM     13  C   UNL     1       5.906   3.987  16.274  0.00  0.00    +0.000 C 
BRANCH  13  14
ATOM     14  C   UNL     1       6.849   4.376  15.152  0.00  0.00    +0.000 C 
BRANCH  14  15
ATOM     15  C   UNL     1       6.043   4.685  13.899  0.00  0.00    +0.000 C 
BRANCH  15  16
ATOM     16  C   UNL     1       6.546   3.916  12.708  0.00  0.00    +0.000 C 
ATOM     17  O   UNL     1       7.340   4.353  11.881  0.00  0.00    +0.000 OA
ATOM     18  N   UNL     1       6.034   2.646  12.635  0.00  0.00    +0.000 N 
ATOM     19  H   UNL     1       5.277   2.287  13.203  0.00  0.00    +0.000 HD
BRANCH  18  20
ATOM     20  O   UNL     1       6.448   1.875  11.529  0.00  0.00    +0.000 OA
ATOM     21  H   UNL     1       7.349   1.592  11.801  0.00  0.00    +0.000 HD
ENDBRANCH  18  20
ENDBRANCH  15  16
ENDBRANCH  14  15
ENDBRANCH  13  14
ENDBRANCH  12  13
ENDBRANCH   9  12
ENDBRANCH   7   9
ENDBRANCH   1   7
BRANCH   2  22
ATOM     22  N   UNL     1       2.714   5.113  20.741  0.00  0.00    +0.000 N 
ATOM     23  H   UNL     1       2.512   5.088  21.736  0.00  0.00    +0.000 HD
BRANCH  22  24
ATOM     24  C   UNL     1       2.319   6.343  20.162  0.00  0.00    +0.000 A 
ATOM     25  C   UNL     1       1.602   7.291  20.905  0.00  0.00    +0.000 A 
ATOM     26  C   UNL     1       1.245   8.517  20.357  0.00  0.00    +0.000 A 
ATOM     27  C   UNL     1       1.571   8.824  19.032  0.00  0.00    +0.000 A 
ATOM     28  C   UNL     1       2.221   7.849  18.259  0.00  0.00    +0.000 A 
ATOM     29  C   UNL     1       2.598   6.625  18.817  0.00  0.00    +0.000 A 
BRANCH  27  30
ATOM     30  C   UNL     1       1.267  10.199  18.494  0.00  0.00    +0.000 C 
ATOM     31  F   UNL     1       1.284  11.164  19.459  0.00  0.00    +0.000 F 
ATOM     32  F   UNL     1       2.179  10.598  17.565  0.00  0.00    +0.000 F 
ATOM     33  F   UNL     1       0.052  10.289  17.894  0.00  0.00    +0.000 F 
ENDBRANCH  27  30
ENDBRANCH  22  24
ENDBRANCH   2  22
TORSDOF 12
ENDMDL
MODEL 4
REMARK VINA RESULT:      -7.5      3.077      4.251
REMARK  Name = 
REMARK  13 active torsions:
REMARK  status: ('A' for Active; 'I' for Inactive)
REMARK    1  A    between atoms: C_1  and  C_2
REMARK    2  A    between atoms: C_2  and  C_3
REMARK    3  A    between atoms: C_3  and  C_4
REMARK    4  A    between atoms: C_3  and  N_12
REMARK    5  A    between atoms: C_4  and  C_5
REMARK    6  A    between atoms: C_5  and  C_6
REMARK    7  A    between atoms: C_6  and  C_7
REMARK    8  A    between atoms: C_7  and  C_8
REMARK    9  A    between atoms: N_10  and  O_11
REMARK   10  A    between atoms: N_12  and  C_13
REMARK   11  A    between atoms: C_14  and  N_15
REMARK   12  A    between atoms: N_15  and  C_16
REMARK   13  A    between atoms: C_19  and  C_20
REMARK                            x       y       z     vdW  Elec       q    Type
REMARK                         _______ _______ _______ _____ _____    ______ ____
ROOT
ATOM      1  C   UNL     1       6.967   4.719  15.505  0.00  0.00    +0.000 C 
ATOM      2  C   UNL     1       6.004   3.752  15.355  0.00  0.00    +0.000 C 
ATOM      3  C   UNL     1       6.163   3.736  13.871  0.00  0.00    +0.000 C 
ATOM      4  O   UNL     1       5.735   3.160  12.913  0.00  0.00    +0.000 OA
ATOM      5  C   UNL     1       7.065   4.914  14.037  0.00  0.00    +0.000 C 
ATOM      6  O   UNL     1       7.632   5.651  13.261  0.00  0.00    +0.000 OA
ENDROOT
BRANCH   1   7
ATOM      7  N   UNL     1       7.624   5.361  16.463  0.00  0.00    +0.000 N 
ATOM      8  H   UNL     1       8.012   4.806  17.214  0.00  0.00    +0.000 HD
BRANCH   7   9
ATOM      9  C   UNL     1       7.231   6.722  16.948  0.00  0.00    +0.000 C 
BRANCH   9  11
ATOM     10  C   UNL     1       4.808   7.089  17.876  0.00  0.00    +0.000 C 
ATOM     11  C   UNL     1       5.722   6.955  16.667  0.00  0.00    +0.000 C 
ENDBRANCH   9  11
BRANCH   9  12
ATOM     12  C   UNL     1       7.561   6.815  18.465  0.00  0.00    +0.000 C 
BRANCH  12  13
ATOM     13  C   UNL     1       8.570   7.888  18.887  0.00  0.00    +0.000 C 
BRANCH  13  14
ATOM     14  C   UNL     1       8.386   9.204  18.155  0.00  0.00    +0.000 C 
BRANCH  14  15
ATOM     15  C   UNL     1       9.023  10.324  18.964  0.00  0.00    +0.000 C 
BRANCH  15  16
ATOM     16  C   UNL     1       9.624  11.380  18.077  0.00  0.00    +0.000 C 
ATOM     17  O   UNL     1      10.727  11.300  17.546  0.00  0.00    +0.000 OA
ATOM     18  N   UNL     1       8.802  12.463  17.901  0.00  0.00    +0.000 N 
ATOM     19  H   UNL     1       7.952  12.644  18.422  0.00  0.00    +0.000 HD
BRANCH  18  20
ATOM     20  O   UNL     1       9.312  13.503  17.097  0.00  0.00    +0.000 OA
ATOM     21  H   UNL     1       9.494  14.206  17.758  0.00  0.00    +0.000 HD
ENDBRANCH  18  20
ENDBRANCH  15  16
ENDBRANCH  14  15
ENDBRANCH  13  14
ENDBRANCH  12  13
ENDBRANCH   9  12
ENDBRANCH   7   9
ENDBRANCH   1   7
BRANCH   2  22
ATOM     22  N   UNL     1       5.242   2.998  16.129  0.00  0.00    +0.000 N 
ATOM     23  H   UNL     1       5.065   2.022  15.908  0.00  0.00    +0.000 HD
BRANCH  22  24
ATOM     24  C   UNL     1       4.396   3.456  17.168  0.00  0.00    +0.000 A 
ATOM     25  C   UNL     1       4.834   3.473  18.499  0.00  0.00    +0.000 A 
ATOM     26  C   UNL     1       4.025   3.958  19.519  0.00  0.00    +0.000 A 
ATOM     27  C   UNL     1       2.734   4.417  19.242  0.00  0.00    +0.000 A 
ATOM     28  C   UNL     1       2.260   4.331  17.924  0.00  0.00    +0.000 A 
ATOM     29  C   UNL     1       3.082   3.863  16.896  0.00  0.00    +0.000 A 
BRANCH  27  30
ATOM     30  C   UNL     1       1.915   5.035  20.347  0.00  0.00    +0.000 C 
ATOM     31  F   UNL     1       0.620   4.601  20.357  0.00  0.00    +0.000 F 
ATOM     32  F   UNL     1       2.408   4.734  21.580  0.00  0.00    +0.000 F 
ATOM     33  F   UNL     1       1.856   6.391  20.284  0.00  0.00    +0.000 F 
ENDBRANCH  27  30
ENDBRANCH  22  24
ENDBRANCH   2  22
TORSDOF 12
ENDMDL
MODEL 5
REMARK VINA RESULT:      -7.5      3.069      4.825
REMARK  Name = 
REMARK  13 active torsions:
REMARK  status: ('A' for Active; 'I' for Inactive)
REMARK    1  A    between atoms: C_1  and  C_2
REMARK    2  A    between atoms: C_2  and  C_3
REMARK    3  A    between atoms: C_3  and  C_4
REMARK    4  A    between atoms: C_3  and  N_12
REMARK    5  A    between atoms: C_4  and  C_5
REMARK    6  A    between atoms: C_5  and  C_6
REMARK    7  A    between atoms: C_6  and  C_7
REMARK    8  A    between atoms: C_7  and  C_8
REMARK    9  A    between atoms: N_10  and  O_11
REMARK   10  A    between atoms: N_12  and  C_13
REMARK   11  A    between atoms: C_14  and  N_15
REMARK   12  A    between atoms: N_15  and  C_16
REMARK   13  A    between atoms: C_19  and  C_20
REMARK                            x       y       z     vdW  Elec       q    Type
REMARK                         _______ _______ _______ _____ _____    ______ ____
ROOT
ATOM      1  C   UNL     1       5.789   5.735  16.060  0.00  0.00    +0.000 C 
ATOM      2  C   UNL     1       5.027   4.645  15.721  0.00  0.00    +0.000 C 
ATOM      3  C   UNL     1       6.090   4.101  14.825  0.00  0.00    +0.000 C 
ATOM      4  O   UNL     1       6.299   3.151  14.129  0.00  0.00    +0.000 OA
ATOM      5  C   UNL     1       6.824   5.381  15.057  0.00  0.00    +0.000 C 
ATOM      6  O   UNL     1       7.845   5.853  14.609  0.00  0.00    +0.000 OA
ENDROOT
BRANCH   1   7
ATOM      7  N   UNL     1       5.763   6.781  16.875  0.00  0.00    +0.000 N 
ATOM      8  H   UNL     1       5.433   7.659  16.496  0.00  0.00    +0.000 HD
BRANCH   7   9
ATOM      9  C   UNL     1       6.791   7.008  17.941  0.00  0.00    +0.000 C 
BRANCH   9  11
ATOM     10  C   UNL     1       7.855   5.433  19.744  0.00  0.00    +0.000 C 
ATOM     11  C   UNL     1       7.481   5.662  18.288  0.00  0.00    +0.000 C 
ENDBRANCH   9  11
BRANCH   9  12
ATOM     12  C   UNL     1       7.807   8.066  17.424  0.00  0.00    +0.000 C 
BRANCH  12  13
ATOM     13  C   UNL     1       8.603   8.834  18.484  0.00  0.00    +0.000 C 
BRANCH  13  14
ATOM     14  C   UNL     1       8.704  10.320  18.197  0.00  0.00    +0.000 C 
BRANCH  14  15
ATOM     15  C   UNL     1      10.090  10.815  18.584  0.00  0.00    +0.000 C 
BRANCH  15  16
ATOM     16  C   UNL     1      10.534  11.962  17.718  0.00  0.00    +0.000 C 
ATOM     17  O   UNL     1       9.815  12.892  17.369  0.00  0.00    +0.000 OA
ATOM     18  N   UNL     1      11.853  11.878  17.353  0.00  0.00    +0.000 N 
ATOM     19  H   UNL     1      12.449  11.070  17.492  0.00  0.00    +0.000 HD
BRANCH  18  20
ATOM     20  O   UNL     1      12.332  12.911  16.521  0.00  0.00    +0.000 OA
ATOM     21  H   UNL     1      11.553  13.096  15.953  0.00  0.00    +0.000 HD
ENDBRANCH  18  20
ENDBRANCH  15  16
ENDBRANCH  14  15
ENDBRANCH  13  14
ENDBRANCH  12  13
ENDBRANCH   9  12
ENDBRANCH   7   9
ENDBRANCH   1   7
BRANCH   2  22
ATOM     22  N   UNL     1       3.856   4.126  16.050  0.00  0.00    +0.000 N 
ATOM     23  H   UNL     1       3.091   4.081  15.382  0.00  0.00    +0.000 HD
BRANCH  22  24
ATOM     24  C   UNL     1       3.419   3.813  17.360  0.00  0.00    +0.000 A 
ATOM     25  C   UNL     1       4.279   3.194  18.277  0.00  0.00    +0.000 A 
ATOM     26  C   UNL     1       3.871   2.920  19.577  0.00  0.00    +0.000 A 
ATOM     27  C   UNL     1       2.574   3.233  19.994  0.00  0.00    +0.000 A 
ATOM     28  C   UNL     1       1.684   3.784  19.059  0.00  0.00    +0.000 A 
ATOM     29  C   UNL     1       2.101   4.078  17.758  0.00  0.00    +0.000 A 
BRANCH  27  30
ATOM     30  C   UNL     1       2.189   3.024  21.436  0.00  0.00    +0.000 C 
ATOM     31  F   UNL     1       2.375   4.137  22.204  0.00  0.00    +0.000 F 
ATOM     32  F   UNL     1       0.872   2.704  21.574  0.00  0.00    +0.000 F 
ATOM     33  F   UNL     1       2.885   2.027  22.044  0.00  0.00    +0.000 F 
ENDBRANCH  27  30
ENDBRANCH  22  24
ENDBRANCH   2  22
TORSDOF 12
ENDMDL
MODEL 6
REMARK VINA RESULT:      -7.4      3.412      7.149
REMARK  Name = 
REMARK  13 active torsions:
REMARK  status: ('A' for Active; 'I' for Inactive)
REMARK    1  A    between atoms: C_1  and  C_2
REMARK    2  A    between atoms: C_2  and  C_3
REMARK    3  A    between atoms: C_3  and  C_4
REMARK    4  A    between atoms: C_3  and  N_12
REMARK    5  A    between atoms: C_4  and  C_5
REMARK    6  A    between atoms: C_5  and  C_6
REMARK    7  A    between atoms: C_6  and  C_7
REMARK    8  A    between atoms: C_7  and  C_8
REMARK    9  A    between atoms: N_10  and  O_11
REMARK   10  A    between atoms: N_12  and  C_13
REMARK   11  A    between atoms: C_14  and  N_15
REMARK   12  A    between atoms: N_15  and  C_16
REMARK   13  A    between atoms: C_19  and  C_20
REMARK                            x       y       z     vdW  Elec       q    Type
REMARK                         _______ _______ _______ _____ _____    ______ ____
ROOT
ATOM      1  C   UNL     1       3.619   4.502  18.510  0.00  0.00    +0.000 C 
ATOM      2  C   UNL     1       2.816   5.147  19.416  0.00  0.00    +0.000 C 
ATOM      3  C   UNL     1       1.843   4.016  19.455  0.00  0.00    +0.000 C 
ATOM      4  O   UNL     1       0.832   3.700  20.010  0.00  0.00    +0.000 OA
ATOM      5  C   UNL     1       2.625   3.415  18.333  0.00  0.00    +0.000 C 
ATOM      6  O   UNL     1       2.474   2.434  17.639  0.00  0.00    +0.000 OA
ENDROOT
BRANCH   1   7
ATOM      7  N   UNL     1       4.790   4.648  17.903  0.00  0.00    +0.000 N 
ATOM      8  H   UNL     1       5.508   5.168  18.392  0.00  0.00    +0.000 HD
BRANCH   7   9
ATOM      9  C   UNL     1       4.923   4.814  16.420  0.00  0.00    +0.000 C 
BRANCH   9  11
ATOM     10  C   UNL     1       5.858   7.137  17.192  0.00  0.00    +0.000 C 
ATOM     11  C   UNL     1       5.219   6.303  16.092  0.00  0.00    +0.000 C 
ENDBRANCH   9  11
BRANCH   9  12
ATOM     12  C   UNL     1       6.056   3.873  15.921  0.00  0.00    +0.000 C 
BRANCH  12  13
ATOM     13  C   UNL     1       6.650   4.179  14.543  0.00  0.00    +0.000 C 
BRANCH  13  14
ATOM     14  C   UNL     1       5.668   3.964  13.407  0.00  0.00    +0.000 C 
BRANCH  14  15
ATOM     15  C   UNL     1       6.425   3.517  12.164  0.00  0.00    +0.000 C 
BRANCH  15  16
ATOM     16  C   UNL     1       5.776   2.325  11.515  0.00  0.00    +0.000 C 
ATOM     17  O   UNL     1       4.621   2.299  11.101  0.00  0.00    +0.000 OA
ATOM     18  N   UNL     1       6.616   1.246  11.414  0.00  0.00    +0.000 N 
ATOM     19  H   UNL     1       7.522   1.166  11.861  0.00  0.00    +0.000 HD
BRANCH  18  20
ATOM     20  O   UNL     1       6.066   0.085  10.833  0.00  0.00    +0.000 OA
ATOM     21  H   UNL     1       5.171   0.056  11.238  0.00  0.00    +0.000 HD
ENDBRANCH  18  20
ENDBRANCH  15  16
ENDBRANCH  14  15
ENDBRANCH  13  14
ENDBRANCH  12  13
ENDBRANCH   9  12
ENDBRANCH   7   9
ENDBRANCH   1   7
BRANCH   2  22
ATOM     22  N   UNL     1       2.830   6.270  20.115  0.00  0.00    +0.000 N 
ATOM     23  H   UNL     1       3.216   6.303  21.055  0.00  0.00    +0.000 HD
BRANCH  22  24
ATOM     24  C   UNL     1       2.127   7.458  19.801  0.00  0.00    +0.000 A 
ATOM     25  C   UNL     1       2.110   7.962  18.494  0.00  0.00    +0.000 A 
ATOM     26  C   UNL     1       1.390   9.105  18.170  0.00  0.00    +0.000 A 
ATOM     27  C   UNL     1       0.683   9.800  19.155  0.00  0.00    +0.000 A 
ATOM     28  C   UNL     1       0.757   9.345  20.480  0.00  0.00    +0.000 A 
ATOM     29  C   UNL     1       1.465   8.184  20.802  0.00  0.00    +0.000 A 
BRANCH  27  30
ATOM     30  C   UNL     1      -0.176  10.975  18.760  0.00  0.00    +0.000 C 
ATOM     31  F   UNL     1      -0.946  10.726  17.661  0.00  0.00    +0.000 F 
ATOM     32  F   UNL     1      -1.050  11.324  19.744  0.00  0.00    +0.000 F 
ATOM     33  F   UNL     1       0.537  12.095  18.474  0.00  0.00    +0.000 F 
ENDBRANCH  27  30
ENDBRANCH  22  24
ENDBRANCH   2  22
TORSDOF 12
ENDMDL
MODEL 7
REMARK VINA RESULT:      -7.4      3.054      6.477
REMARK  Name = 
REMARK  13 active torsions:
REMARK  status: ('A' for Active; 'I' for Inactive)
REMARK    1  A    between atoms: C_1  and  C_2
REMARK    2  A    between atoms: C_2  and  C_3
REMARK    3  A    between atoms: C_3  and  C_4
REMARK    4  A    between atoms: C_3  and  N_12
REMARK    5  A    between atoms: C_4  and  C_5
REMARK    6  A    between atoms: C_5  and  C_6
REMARK    7  A    between atoms: C_6  and  C_7
REMARK    8  A    between atoms: C_7  and  C_8
REMARK    9  A    between atoms: N_10  and  O_11
REMARK   10  A    between atoms: N_12  and  C_13
REMARK   11  A    between atoms: C_14  and  N_15
REMARK   12  A    between atoms: N_15  and  C_16
REMARK   13  A    between atoms: C_19  and  C_20
REMARK                            x       y       z     vdW  Elec       q    Type
REMARK                         _______ _______ _______ _____ _____    ______ ____
ROOT
ATOM      1  C   UNL     1       4.406   3.978  18.363  0.00  0.00    +0.000 C 
ATOM      2  C   UNL     1       3.374   4.857  18.153  0.00  0.00    +0.000 C 
ATOM      3  C   UNL     1       2.359   3.883  18.654  0.00  0.00    +0.000 C 
ATOM      4  O   UNL     1       1.183   3.815  18.859  0.00  0.00    +0.000 OA
ATOM      5  C   UNL     1       3.465   2.880  18.696  0.00  0.00    +0.000 C 
ATOM      6  O   UNL     1       3.511   1.695  18.941  0.00  0.00    +0.000 OA
ENDROOT
BRANCH   1   7
ATOM      7  N   UNL     1       5.731   3.932  18.306  0.00  0.00    +0.000 N 
ATOM      8  H   UNL     1       6.215   3.469  19.065  0.00  0.00    +0.000 HD
BRANCH   7   9
ATOM      9  C   UNL     1       6.561   5.042  17.737  0.00  0.00    +0.000 C 
BRANCH   9  11
ATOM     10  C   UNL     1       8.195   6.873  18.656  0.00  0.00    +0.000 C 
ATOM     11  C   UNL     1       7.639   5.461  18.772  0.00  0.00    +0.000 C 
ENDBRANCH   9  11
BRANCH   9  12
ATOM     12  C   UNL     1       7.195   4.547  16.406  0.00  0.00    +0.000 C 
BRANCH  12  13
ATOM     13  C   UNL     1       6.667   5.179  15.114  0.00  0.00    +0.000 C 
BRANCH  13  14
ATOM     14  C   UNL     1       5.894   4.206  14.245  0.00  0.00    +0.000 C 
BRANCH  14  15
ATOM     15  C   UNL     1       6.646   3.988  12.940  0.00  0.00    +0.000 C 
BRANCH  15  16
ATOM     16  C   UNL     1       5.999   2.926  12.094  0.00  0.00    +0.000 C 
ATOM     17  O   UNL     1       4.808   2.897  11.800  0.00  0.00    +0.000 OA
ATOM     18  N   UNL     1       6.885   1.974  11.659  0.00  0.00    +0.000 N 
ATOM     19  H   UNL     1       7.839   1.870  11.983  0.00  0.00    +0.000 HD
BRANCH  18  20
ATOM     20  O   UNL     1       6.341   0.934  10.877  0.00  0.00    +0.000 OA
ATOM     21  H   UNL     1       5.826   1.430  10.203  0.00  0.00    +0.000 HD
ENDBRANCH  18  20
ENDBRANCH  15  16
ENDBRANCH  14  15
ENDBRANCH  13  14
ENDBRANCH  12  13
ENDBRANCH   9  12
ENDBRANCH   7   9
ENDBRANCH   1   7
BRANCH   2  22
ATOM     22  N   UNL     1       3.216   6.111  17.761  0.00  0.00    +0.000 N 
ATOM     23  H   UNL     1       3.770   6.501  17.003  0.00  0.00    +0.000 HD
BRANCH  22  24
ATOM     24  C   UNL     1       2.496   7.117  18.449  0.00  0.00    +0.000 A 
ATOM     25  C   UNL     1       2.217   6.996  19.816  0.00  0.00    +0.000 A 
ATOM     26  C   UNL     1       1.545   7.998  20.507  0.00  0.00    +0.000 A 
ATOM     27  C   UNL     1       1.106   9.146  19.841  0.00  0.00    +0.000 A 
ATOM     28  C   UNL     1       1.315   9.239  18.457  0.00  0.00    +0.000 A 
ATOM     29  C   UNL     1       2.008   8.241  17.767  0.00  0.00    +0.000 A 
BRANCH  27  30
ATOM     30  C   UNL     1       0.475  10.264  20.631  0.00  0.00    +0.000 C 
ATOM     31  F   UNL     1      -0.001  11.271  19.842  0.00  0.00    +0.000 F 
ATOM     32  F   UNL     1      -0.595   9.837  21.358  0.00  0.00    +0.000 F 
ATOM     33  F   UNL     1       1.324  10.848  21.516  0.00  0.00    +0.000 F 
ENDBRANCH  27  30
ENDBRANCH  22  24
ENDBRANCH   2  22
TORSDOF 12
ENDMDL
MODEL 8
REMARK VINA RESULT:      -7.3      3.274      6.513
REMARK  Name = 
REMARK  13 active torsions:
REMARK  status: ('A' for Active; 'I' for Inactive)
REMARK    1  A    between atoms: C_1  and  C_2
REMARK    2  A    between atoms: C_2  and  C_3
REMARK    3  A    between atoms: C_3  and  C_4
REMARK    4  A    between atoms: C_3  and  N_12
REMARK    5  A    between atoms: C_4  and  C_5
REMARK    6  A    between atoms: C_5  and  C_6
REMARK    7  A    between atoms: C_6  and  C_7
REMARK    8  A    between atoms: C_7  and  C_8
REMARK    9  A    between atoms: N_10  and  O_11
REMARK   10  A    between atoms: N_12  and  C_13
REMARK   11  A    between atoms: C_14  and  N_15
REMARK   12  A    between atoms: N_15  and  C_16
REMARK   13  A    between atoms: C_19  and  C_20
REMARK                            x       y       z     vdW  Elec       q    Type
REMARK                         _______ _______ _______ _____ _____    ______ ____
ROOT
ATOM      1  C   UNL     1       4.296   3.494  19.171  0.00  0.00    +0.000 C 
ATOM      2  C   UNL     1       3.197   4.004  19.813  0.00  0.00    +0.000 C 
ATOM      3  C   UNL     1       2.374   2.801  19.496  0.00  0.00    +0.000 C 
ATOM      4  O   UNL     1       1.277   2.366  19.696  0.00  0.00    +0.000 OA
ATOM      5  C   UNL     1       3.515   2.348  18.645  0.00  0.00    +0.000 C 
ATOM      6  O   UNL     1       3.678   1.412  17.894  0.00  0.00    +0.000 OA
ENDROOT
BRANCH   1   7
ATOM      7  N   UNL     1       5.576   3.776  18.963  0.00  0.00    +0.000 N 
ATOM      8  H   UNL     1       6.188   3.789  19.768  0.00  0.00    +0.000 HD
BRANCH   7   9
ATOM      9  C   UNL     1       6.036   4.753  17.924  0.00  0.00    +0.000 C 
BRANCH   9  11
ATOM     10  C   UNL     1       7.764   6.667  18.392  0.00  0.00    +0.000 C 
ATOM     11  C   UNL     1       7.498   5.178  18.227  0.00  0.00    +0.000 C 
ENDBRANCH   9  11
BRANCH   9  12
ATOM     12  C   UNL     1       5.904   4.081  16.527  0.00  0.00    +0.000 C 
BRANCH  12  13
ATOM     13  C   UNL     1       5.515   4.991  15.358  0.00  0.00    +0.000 C 
BRANCH  13  14
ATOM     14  C   UNL     1       5.337   4.242  14.051  0.00  0.00    +0.000 C 
BRANCH  14  15
ATOM     15  C   UNL     1       6.581   4.421  13.194  0.00  0.00    +0.000 C 
BRANCH  15  16
ATOM     16  C   UNL     1       6.739   3.303  12.200  0.00  0.00    +0.000 C 
ATOM     17  O   UNL     1       7.657   3.213  11.391  0.00  0.00    +0.000 OA
ATOM     18  N   UNL     1       5.744   2.363  12.288  0.00  0.00    +0.000 N 
ATOM     19  H   UNL     1       4.896   2.458  12.834  0.00  0.00    +0.000 HD
BRANCH  18  20
ATOM     20  O   UNL     1       5.818   1.296  11.370  0.00  0.00    +0.000 OA
ATOM     21  H   UNL     1       6.768   1.305  11.118  0.00  0.00    +0.000 HD
ENDBRANCH  18  20
ENDBRANCH  15  16
ENDBRANCH  14  15
ENDBRANCH  13  14
ENDBRANCH  12  13
ENDBRANCH   9  12
ENDBRANCH   7   9
ENDBRANCH   1   7
BRANCH   2  22
ATOM     22  N   UNL     1       2.888   5.070  20.533  0.00  0.00    +0.000 N 
ATOM     23  H   UNL     1       2.749   5.007  21.538  0.00  0.00    +0.000 HD
BRANCH  22  24
ATOM     24  C   UNL     1       2.472   6.327  20.030  0.00  0.00    +0.000 A 
ATOM     25  C   UNL     1       2.813   6.732  18.733  0.00  0.00    +0.000 A 
ATOM     26  C   UNL     1       2.375   7.946  18.218  0.00  0.00    +0.000 A 
ATOM     27  C   UNL     1       1.601   8.809  18.999  0.00  0.00    +0.000 A 
ATOM     28  C   UNL     1       1.320   8.444  20.324  0.00  0.00    +0.000 A 
ATOM     29  C   UNL     1       1.743   7.214  20.834  0.00  0.00    +0.000 A 
BRANCH  27  30
ATOM     30  C   UNL     1       1.050  10.071  18.383  0.00  0.00    +0.000 C 
ATOM     31  F   UNL     1      -0.023   9.842  17.571  0.00  0.00    +0.000 F 
ATOM     32  F   UNL     1       0.611  10.951  19.325  0.00  0.00    +0.000 F 
ATOM     33  F   UNL     1       1.956  10.746  17.629  0.00  0.00    +0.000 F 
ENDBRANCH  27  30
ENDBRANCH  22  24
ENDBRANCH   2  22
TORSDOF 12
ENDMDL
MODEL 9
REMARK VINA RESULT:      -7.3      3.175      6.262
REMARK  Name = 
REMARK  13 active torsions:
REMARK  status: ('A' for Active; 'I' for Inactive)
REMARK    1  A    between atoms: C_1  and  C_2
REMARK    2  A    between atoms: C_2  and  C_3
REMARK    3  A    between atoms: C_3  and  C_4
REMARK    4  A    between atoms: C_3  and  N_12
REMARK    5  A    between atoms: C_4  and  C_5
REMARK    6  A    between atoms: C_5  and  C_6
REMARK    7  A    between atoms: C_6  and  C_7
REMARK    8  A    between atoms: C_7  and  C_8
REMARK    9  A    between atoms: N_10  and  O_11
REMARK   10  A    between atoms: N_12  and  C_13
REMARK   11  A    between atoms: C_14  and  N_15
REMARK   12  A    between atoms: N_15  and  C_16
REMARK   13  A    between atoms: C_19  and  C_20
REMARK                            x       y       z     vdW  Elec       q    Type
REMARK                         _______ _______ _______ _____ _____    ______ ____
ROOT
ATOM      1  C   UNL     1       4.210   3.443  19.081  0.00  0.00    +0.000 C 
ATOM      2  C   UNL     1       3.191   4.061  19.762  0.00  0.00    +0.000 C 
ATOM      3  C   UNL     1       2.241   2.945  19.481  0.00  0.00    +0.000 C 
ATOM      4  O   UNL     1       1.115   2.622  19.724  0.00  0.00    +0.000 OA
ATOM      5  C   UNL     1       3.298   2.380  18.590  0.00  0.00    +0.000 C 
ATOM      6  O   UNL     1       3.340   1.432  17.838  0.00  0.00    +0.000 OA
ENDROOT
BRANCH   1   7
ATOM      7  N   UNL     1       5.502   3.596  18.824  0.00  0.00    +0.000 N 
ATOM      8  H   UNL     1       6.158   3.124  19.433  0.00  0.00    +0.000 HD
BRANCH   7   9
ATOM      9  C   UNL     1       6.082   4.873  18.298  0.00  0.00    +0.000 C 
BRANCH   9  11
ATOM     10  C   UNL     1       8.102   6.387  19.003  0.00  0.00    +0.000 C 
ATOM     11  C   UNL     1       6.884   5.579  19.424  0.00  0.00    +0.000 C 
ENDBRANCH   9  11
BRANCH   9  12
ATOM     12  C   UNL     1       6.977   4.536  17.071  0.00  0.00    +0.000 C 
BRANCH  12  13
ATOM     13  C   UNL     1       6.972   5.542  15.916  0.00  0.00    +0.000 C 
BRANCH  13  14
ATOM     14  C   UNL     1       5.682   5.530  15.118  0.00  0.00    +0.000 C 
BRANCH  14  15
ATOM     15  C   UNL     1       5.487   4.156  14.495  0.00  0.00    +0.000 C 
BRANCH  15  16
ATOM     16  C   UNL     1       6.388   3.948  13.308  0.00  0.00    +0.000 C 
ATOM     17  O   UNL     1       7.236   4.749  12.929  0.00  0.00    +0.000 OA
ATOM     18  N   UNL     1       6.178   2.748  12.679  0.00  0.00    +0.000 N 
ATOM     19  H   UNL     1       5.404   2.119  12.861  0.00  0.00    +0.000 HD
BRANCH  18  20
ATOM     20  O   UNL     1       6.975   2.497  11.544  0.00  0.00    +0.000 OA
ATOM     21  H   UNL     1       6.851   3.318  11.019  0.00  0.00    +0.000 HD
ENDBRANCH  18  20
ENDBRANCH  15  16
ENDBRANCH  14  15
ENDBRANCH  13  14
ENDBRANCH  12  13
ENDBRANCH   9  12
ENDBRANCH   7   9
ENDBRANCH   1   7
BRANCH   2  22
ATOM     22  N   UNL     1       3.018   5.153  20.488  0.00  0.00    +0.000 N 
ATOM     23  H   UNL     1       3.073   5.128  21.502  0.00  0.00    +0.000 HD
BRANCH  22  24
ATOM     24  C   UNL     1       2.504   6.390  20.027  0.00  0.00    +0.000 A 
ATOM     25  C   UNL     1       2.727   6.818  18.712  0.00  0.00    +0.000 A 
ATOM     26  C   UNL     1       2.193   8.011  18.241  0.00  0.00    +0.000 A 
ATOM     27  C   UNL     1       1.437   8.831  19.084  0.00  0.00    +0.000 A 
ATOM     28  C   UNL     1       1.274   8.446  20.424  0.00  0.00    +0.000 A 
ATOM     29  C   UNL     1       1.794   7.236  20.891  0.00  0.00    +0.000 A 
BRANCH  27  30
ATOM     30  C   UNL     1       0.780  10.066  18.522  0.00  0.00    +0.000 C 
ATOM     31  F   UNL     1      -0.088  10.652  19.397  0.00  0.00    +0.000 F 
ATOM     32  F   UNL     1       1.689  11.032  18.210  0.00  0.00    +0.000 F 
ATOM     33  F   UNL     1       0.072   9.834  17.386  0.00  0.00    +0.000 F 
ENDBRANCH  27  30
ENDBRANCH  22  24
ENDBRANCH   2  22
TORSDOF 12
ENDMDL
