MODEL 1
REMARK VINA RESULT:      -7.9      0.000      0.000
REMARK  Name = 
REMARK  4 active torsions:
REMARK  status: ('A' for Active; 'I' for Inactive)
REMARK    1  A    between atoms: N_1  and  C_2
REMARK    2  A    between atoms: C_2  and  N_4
REMARK    3  A    between atoms: N_4  and  N_5
REMARK    4  A    between atoms: C_8  and  C_9
REMARK                            x       y       z     vdW  Elec       q    Type
REMARK                         _______ _______ _______ _____ _____    ______ ____
ROOT
ATOM      1  N   UNL     1       4.237   3.056  18.809  0.00  0.00    +0.000 NA
ATOM      2  C   UNL     1       4.264   4.290  18.395  0.00  0.00    +0.000 C 
ATOM      3  C   UNL     1       3.700   5.481  19.132  0.00  0.00    +0.000 C 
ATOM      4  C   UNL     1       3.040   6.412  18.116  0.00  0.00    +0.000 C 
ATOM      5  N   UNL     1       4.046   6.910  17.179  0.00  0.00    +0.000 N 
ATOM      6  C   UNL     1       4.756   5.881  16.525  0.00  0.00    +0.000 A 
ATOM      7  C   UNL     1       5.434   6.169  15.333  0.00  0.00    +0.000 A 
ATOM      8  C   UNL     1       6.208   5.197  14.693  0.00  0.00    +0.000 A 
ATOM      9  C   UNL     1       6.341   3.925  15.251  0.00  0.00    +0.000 A 
ATOM     10  C   UNL     1       5.702   3.628  16.452  0.00  0.00    +0.000 A 
ATOM     11  C   UNL     1       4.927   4.602  17.093  0.00  0.00    +0.000 A 
ATOM     12  H   UNL     1       3.673   7.600  16.530  0.00  0.00    +0.000 HD
ENDROOT
BRANCH   4  13
ATOM     13  C   UNL     1       2.356   7.565  18.830  0.00  0.00    +0.000 A 
ATOM     14  C   UNL     1       1.987   7.470  20.181  0.00  0.00    +0.000 A 
ATOM     15  C   UNL     1       1.233   8.477  20.785  0.00  0.00    +0.000 A 
ATOM     16  C   UNL     1       0.857   9.600  20.053  0.00  0.00    +0.000 A 
ATOM     17  C   UNL     1       1.249   9.727  18.722  0.00  0.00    +0.000 A 
ATOM     18  C   UNL     1       1.995   8.717  18.114  0.00  0.00    +0.000 A 
ENDBRANCH   4  13
BRANCH   1  19
ATOM     19  N   UNL     1       3.658   2.757  20.007  0.00  0.00    +0.000 N 
ATOM     20  H   UNL     1       4.185   2.750  20.871  0.00  0.00    +0.000 HD
BRANCH  19  21
ATOM     21  C   UNL     1       2.338   2.407  20.080  0.00  0.00    +0.000 C 
ATOM     22  S   UNL     1       1.372   2.840  21.356  0.00  0.00    +0.000 S 
BRANCH  21  23
ATOM     23  N   UNL     1       1.867   1.683  19.038  0.00  0.00    +0.000 N 
ATOM     24  H   UNL     1       1.950   2.008  18.089  0.00  0.00    +0.000 HD
ATOM     25  H   UNL     1       1.305   0.873  19.266  0.00  0.00    +0.000 HD
ENDBRANCH  21  23
ENDBRANCH  19  21
ENDBRANCH   1  19
TORSDOF 4
ENDMDL
MODEL 2
REMARK VINA RESULT:      -7.7      0.129      1.061
REMARK  Name = 
REMARK  4 active torsions:
REMARK  status: ('A' for Active; 'I' for Inactive)
REMARK    1  A    between atoms: N_1  and  C_2
REMARK    2  A    between atoms: C_2  and  N_4
REMARK    3  A    between atoms: N_4  and  N_5
REMARK    4  A    between atoms: C_8  and  C_9
REMARK                            x       y       z     vdW  Elec       q    Type
REMARK                         _______ _______ _______ _____ _____    ______ ____
ROOT
ATOM      1  N   UNL     1       4.307   3.126  18.882  0.00  0.00    +0.000 NA
ATOM      2  C   UNL     1       4.277   4.355  18.454  0.00  0.00    +0.000 C 
ATOM      3  C   UNL     1       3.631   5.522  19.163  0.00  0.00    +0.000 C 
ATOM      4  C   UNL     1       2.946   6.404  18.121  0.00  0.00    +0.000 C 
ATOM      5  N   UNL     1       3.944   6.946  17.201  0.00  0.00    +0.000 N 
ATOM      6  C   UNL     1       4.725   5.950  16.577  0.00  0.00    +0.000 A 
ATOM      7  C   UNL     1       5.414   6.261  15.397  0.00  0.00    +0.000 A 
ATOM      8  C   UNL     1       6.255   5.326  14.787  0.00  0.00    +0.000 A 
ATOM      9  C   UNL     1       6.443   4.070  15.363  0.00  0.00    +0.000 A 
ATOM     10  C   UNL     1       5.794   3.751  16.552  0.00  0.00    +0.000 A 
ATOM     11  C   UNL     1       4.952   4.689  17.164  0.00  0.00    +0.000 A 
ATOM     12  H   UNL     1       3.550   7.607  16.535  0.00  0.00    +0.000 HD
ENDROOT
BRANCH   4  13
ATOM     13  C   UNL     1       2.184   7.525  18.805  0.00  0.00    +0.000 A 
ATOM     14  C   UNL     1       1.844   8.701  18.118  0.00  0.00    +0.000 A 
ATOM     15  C   UNL     1       1.273   9.780  18.794  0.00  0.00    +0.000 A 
ATOM     16  C   UNL     1       1.014   9.690  20.160  0.00  0.00    +0.000 A 
ATOM     17  C   UNL     1       1.310   8.514  20.847  0.00  0.00    +0.000 A 
ATOM     18  C   UNL     1       1.890   7.438  20.175  0.00  0.00    +0.000 A 
ENDBRANCH   4  13
BRANCH   1  19
ATOM     19  N   UNL     1       3.717   2.810  20.071  0.00  0.00    +0.000 N 
ATOM     20  H   UNL     1       4.231   2.809  20.942  0.00  0.00    +0.000 HD
BRANCH  19  21
ATOM     21  C   UNL     1       2.404   2.431  20.122  0.00  0.00    +0.000 C 
ATOM     22  S   UNL     1       1.414   2.828  21.392  0.00  0.00    +0.000 S 
BRANCH  21  23
ATOM     23  N   UNL     1       1.961   1.711  19.066  0.00  0.00    +0.000 N 
ATOM     24  H   UNL     1       1.276   0.982  19.173  0.00  0.00    +0.000 HD
ATOM     25  H   UNL     1       2.452   1.844  18.190  0.00  0.00    +0.000 HD
ENDBRANCH  21  23
ENDBRANCH  19  21
ENDBRANCH   1  19
TORSDOF 4
ENDMDL
MODEL 3
REMARK VINA RESULT:      -7.6      2.650      4.216
REMARK  Name = 
REMARK  4 active torsions:
REMARK  status: ('A' for Active; 'I' for Inactive)
REMARK    1  A    between atoms: N_1  and  C_2
REMARK    2  A    between atoms: C_2  and  N_4
REMARK    3  A    between atoms: N_4  and  N_5
REMARK    4  A    between atoms: C_8  and  C_9
REMARK                            x       y       z     vdW  Elec       q    Type
REMARK                         _______ _______ _______ _____ _____    ______ ____
ROOT
ATOM      1  N   UNL     1       5.387   5.290  17.303  0.00  0.00    +0.000 NA
ATOM      2  C   UNL     1       4.178   5.404  17.774  0.00  0.00    +0.000 C 
ATOM      3  C   UNL     1       3.423   6.699  17.963  0.00  0.00    +0.000 C 
ATOM      4  C   UNL     1       2.642   6.618  19.274  0.00  0.00    +0.000 C 
ATOM      5  N   UNL     1       1.657   5.540  19.195  0.00  0.00    +0.000 N 
ATOM      6  C   UNL     1       2.225   4.289  18.874  0.00  0.00    +0.000 A 
ATOM      7  C   UNL     1       1.509   3.119  19.163  0.00  0.00    +0.000 A 
ATOM      8  C   UNL     1       2.003   1.864  18.796  0.00  0.00    +0.000 A 
ATOM      9  C   UNL     1       3.212   1.759  18.107  0.00  0.00    +0.000 A 
ATOM     10  C   UNL     1       3.923   2.911  17.780  0.00  0.00    +0.000 A 
ATOM     11  C   UNL     1       3.427   4.169  18.148  0.00  0.00    +0.000 A 
ATOM     12  H   UNL     1       1.054   5.497  20.013  0.00  0.00    +0.000 HD
ENDROOT
BRANCH   4  13
ATOM     13  C   UNL     1       1.962   7.945  19.560  0.00  0.00    +0.000 A 
ATOM     14  C   UNL     1       1.381   8.213  20.809  0.00  0.00    +0.000 A 
ATOM     15  C   UNL     1       0.636   9.375  21.014  0.00  0.00    +0.000 A 
ATOM     16  C   UNL     1       0.480  10.293  19.978  0.00  0.00    +0.000 A 
ATOM     17  C   UNL     1       1.083  10.060  18.744  0.00  0.00    +0.000 A 
ATOM     18  C   UNL     1       1.820   8.894  18.535  0.00  0.00    +0.000 A 
ENDBRANCH   4  13
BRANCH   1  19
ATOM     19  N   UNL     1       6.076   6.407  16.934  0.00  0.00    +0.000 N 
ATOM     20  H   UNL     1       5.825   6.948  16.115  0.00  0.00    +0.000 HD
BRANCH  19  21
ATOM     21  C   UNL     1       7.176   6.817  17.636  0.00  0.00    +0.000 C 
ATOM     22  S   UNL     1       7.774   5.965  18.927  0.00  0.00    +0.000 S 
BRANCH  21  23
ATOM     23  N   UNL     1       7.749   7.965  17.206  0.00  0.00    +0.000 N 
ATOM     24  H   UNL     1       7.202   8.781  16.993  0.00  0.00    +0.000 HD
ATOM     25  H   UNL     1       8.734   7.920  16.976  0.00  0.00    +0.000 HD
ENDBRANCH  21  23
ENDBRANCH  19  21
ENDBRANCH   1  19
TORSDOF 4
ENDMDL
MODEL 4
REMARK VINA RESULT:      -7.6      2.859      4.123
REMARK  Name = 
REMARK  4 active torsions:
REMARK  status: ('A' for Active; 'I' for Inactive)
REMARK    1  A    between atoms: N_1  and  C_2
REMARK    2  A    between atoms: C_2  and  N_4
REMARK    3  A    between atoms: N_4  and  N_5
REMARK    4  A    between atoms: C_8  and  C_9
REMARK                            x       y       z     vdW  Elec       q    Type
REMARK                         _______ _______ _______ _____ _____    ______ ____
ROOT
ATOM      1  N   UNL     1       5.762   4.383  19.211  0.00  0.00    +0.000 NA
ATOM      2  C   UNL     1       4.527   4.716  18.967  0.00  0.00    +0.000 C 
ATOM      3  C   UNL     1       4.026   6.116  18.703  0.00  0.00    +0.000 C 
ATOM      4  C   UNL     1       2.678   6.290  19.401  0.00  0.00    +0.000 C 
ATOM      5  N   UNL     1       1.705   5.358  18.833  0.00  0.00    +0.000 N 
ATOM      6  C   UNL     1       2.126   4.012  18.886  0.00  0.00    +0.000 A 
ATOM      7  C   UNL     1       1.171   2.993  18.774  0.00  0.00    +0.000 A 
ATOM      8  C   UNL     1       1.553   1.648  18.748  0.00  0.00    +0.000 A 
ATOM      9  C   UNL     1       2.902   1.301  18.807  0.00  0.00    +0.000 A 
ATOM     10  C   UNL     1       3.870   2.299  18.885  0.00  0.00    +0.000 A 
ATOM     11  C   UNL     1       3.486   3.646  18.910  0.00  0.00    +0.000 A 
ATOM     12  H   UNL     1       0.768   5.489  19.208  0.00  0.00    +0.000 HD
ENDROOT
BRANCH   4  13
ATOM     13  C   UNL     1       2.196   7.722  19.258  0.00  0.00    +0.000 A 
ATOM     14  C   UNL     1       1.487   8.359  20.289  0.00  0.00    +0.000 A 
ATOM     15  C   UNL     1       0.926   9.622  20.092  0.00  0.00    +0.000 A 
ATOM     16  C   UNL     1       1.082  10.271  18.870  0.00  0.00    +0.000 A 
ATOM     17  C   UNL     1       1.816   9.667  17.850  0.00  0.00    +0.000 A 
ATOM     18  C   UNL     1       2.370   8.401  18.042  0.00  0.00    +0.000 A 
ENDBRANCH   4  13
BRANCH   1  19
ATOM     19  N   UNL     1       6.728   5.346  19.242  0.00  0.00    +0.000 N 
ATOM     20  H   UNL     1       6.964   5.843  20.091  0.00  0.00    +0.000 HD
BRANCH  19  21
ATOM     21  C   UNL     1       7.389   5.713  18.102  0.00  0.00    +0.000 C 
ATOM     22  S   UNL     1       7.625   7.300  17.685  0.00  0.00    +0.000 S 
BRANCH  21  23
ATOM     23  N   UNL     1       7.842   4.694  17.336  0.00  0.00    +0.000 N 
ATOM     24  H   UNL     1       8.283   4.858  16.446  0.00  0.00    +0.000 HD
ATOM     25  H   UNL     1       7.592   3.759  17.631  0.00  0.00    +0.000 HD
ENDBRANCH  21  23
ENDBRANCH  19  21
ENDBRANCH   1  19
TORSDOF 4
ENDMDL
MODEL 5
REMARK VINA RESULT:      -7.6      1.091      1.520
REMARK  Name = 
REMARK  4 active torsions:
REMARK  status: ('A' for Active; 'I' for Inactive)
REMARK    1  A    between atoms: N_1  and  C_2
REMARK    2  A    between atoms: C_2  and  N_4
REMARK    3  A    between atoms: N_4  and  N_5
REMARK    4  A    between atoms: C_8  and  C_9
REMARK                            x       y       z     vdW  Elec       q    Type
REMARK                         _______ _______ _______ _____ _____    ______ ____
ROOT
ATOM      1  N   UNL     1       3.630   3.574  19.289  0.00  0.00    +0.000 NA
ATOM      2  C   UNL     1       3.742   4.775  18.799  0.00  0.00    +0.000 C 
ATOM      3  C   UNL     1       3.151   6.030  19.397  0.00  0.00    +0.000 C 
ATOM      4  C   UNL     1       2.628   6.908  18.261  0.00  0.00    +0.000 C 
ATOM      5  N   UNL     1       3.737   7.310  17.397  0.00  0.00    +0.000 N 
ATOM      6  C   UNL     1       4.470   6.218  16.888  0.00  0.00    +0.000 A 
ATOM      7  C   UNL     1       5.272   6.403  15.753  0.00  0.00    +0.000 A 
ATOM      8  C   UNL     1       6.070   5.367  15.259  0.00  0.00    +0.000 A 
ATOM      9  C   UNL     1       6.101   4.133  15.909  0.00  0.00    +0.000 A 
ATOM     10  C   UNL     1       5.338   3.938  17.058  0.00  0.00    +0.000 A 
ATOM     11  C   UNL     1       4.539   4.977  17.552  0.00  0.00    +0.000 A 
ATOM     12  H   UNL     1       3.455   7.964  16.671  0.00  0.00    +0.000 HD
ENDROOT
BRANCH   4  13
ATOM     13  C   UNL     1       1.919   8.127  18.825  0.00  0.00    +0.000 A 
ATOM     14  C   UNL     1       1.700   9.271  18.043  0.00  0.00    +0.000 A 
ATOM     15  C   UNL     1       1.179  10.434  18.612  0.00  0.00    +0.000 A 
ATOM     16  C   UNL     1       0.851  10.460  19.965  0.00  0.00    +0.000 A 
ATOM     17  C   UNL     1       1.026   9.320  20.747  0.00  0.00    +0.000 A 
ATOM     18  C   UNL     1       1.556   8.160  20.181  0.00  0.00    +0.000 A 
ENDBRANCH   4  13
BRANCH   1  19
ATOM     19  N   UNL     1       2.926   3.376  20.441  0.00  0.00    +0.000 N 
ATOM     20  H   UNL     1       3.322   3.567  21.352  0.00  0.00    +0.000 HD
BRANCH  19  21
ATOM     21  C   UNL     1       1.660   2.860  20.409  0.00  0.00    +0.000 C 
ATOM     22  S   UNL     1       0.906   2.442  18.992  0.00  0.00    +0.000 S 
BRANCH  21  23
ATOM     23  N   UNL     1       1.060   2.709  21.612  0.00  0.00    +0.000 N 
ATOM     24  H   UNL     1       0.070   2.848  21.731  0.00  0.00    +0.000 HD
ATOM     25  H   UNL     1       1.671   2.589  22.411  0.00  0.00    +0.000 HD
ENDBRANCH  21  23
ENDBRANCH  19  21
ENDBRANCH   1  19
TORSDOF 4
ENDMDL
MODEL 6
REMARK VINA RESULT:      -7.5      2.545      4.559
REMARK  Name = 
REMARK  4 active torsions:
REMARK  status: ('A' for Active; 'I' for Inactive)
REMARK    1  A    between atoms: N_1  and  C_2
REMARK    2  A    between atoms: C_2  and  N_4
REMARK    3  A    between atoms: N_4  and  N_5
REMARK    4  A    between atoms: C_8  and  C_9
REMARK                            x       y       z     vdW  Elec       q    Type
REMARK                         _______ _______ _______ _____ _____    ______ ____
ROOT
ATOM      1  N   UNL     1       4.853   4.917  17.627  0.00  0.00    +0.000 NA
ATOM      2  C   UNL     1       3.832   5.226  18.375  0.00  0.00    +0.000 C 
ATOM      3  C   UNL     1       2.947   6.437  18.202  0.00  0.00    +0.000 C 
ATOM      4  C   UNL     1       2.608   6.991  19.585  0.00  0.00    +0.000 C 
ATOM      5  N   UNL     1       1.851   5.995  20.342  0.00  0.00    +0.000 N 
ATOM      6  C   UNL     1       2.514   4.754  20.450  0.00  0.00    +0.000 A 
ATOM      7  C   UNL     1       2.133   3.861  21.460  0.00  0.00    +0.000 A 
ATOM      8  C   UNL     1       2.714   2.593  21.556  0.00  0.00    +0.000 A 
ATOM      9  C   UNL     1       3.669   2.186  20.624  0.00  0.00    +0.000 A 
ATOM     10  C   UNL     1       4.038   3.045  19.593  0.00  0.00    +0.000 A 
ATOM     11  C   UNL     1       3.455   4.316  19.497  0.00  0.00    +0.000 A 
ATOM     12  H   UNL     1       1.529   6.344  21.242  0.00  0.00    +0.000 HD
ENDROOT
BRANCH   4  13
ATOM     13  C   UNL     1       1.815   8.279  19.453  0.00  0.00    +0.000 A 
ATOM     14  C   UNL     1       1.098   8.809  20.537  0.00  0.00    +0.000 A 
ATOM     15  C   UNL     1       0.260   9.912  20.365  0.00  0.00    +0.000 A 
ATOM     16  C   UNL     1       0.145  10.511  19.113  0.00  0.00    +0.000 A 
ATOM     17  C   UNL     1       0.880  10.020  18.036  0.00  0.00    +0.000 A 
ATOM     18  C   UNL     1       1.711   8.912  18.204  0.00  0.00    +0.000 A 
ENDBRANCH   4  13
BRANCH   1  19
ATOM     19  N   UNL     1       5.195   5.725  16.583  0.00  0.00    +0.000 N 
ATOM     20  H   UNL     1       4.624   6.511  16.302  0.00  0.00    +0.000 HD
BRANCH  19  21
ATOM     21  C   UNL     1       6.313   5.470  15.836  0.00  0.00    +0.000 C 
ATOM     22  S   UNL     1       6.330   4.346  14.617  0.00  0.00    +0.000 S 
BRANCH  21  23
ATOM     23  N   UNL     1       7.407   6.200  16.155  0.00  0.00    +0.000 N 
ATOM     24  H   UNL     1       7.336   7.058  16.676  0.00  0.00    +0.000 HD
ATOM     25  H   UNL     1       8.280   5.919  15.726  0.00  0.00    +0.000 HD
ENDBRANCH  21  23
ENDBRANCH  19  21
ENDBRANCH   1  19
TORSDOF 4
ENDMDL
MODEL 7
REMARK VINA RESULT:      -7.5      2.242      6.313
REMARK  Name = 
REMARK  4 active torsions:
REMARK  status: ('A' for Active; 'I' for Inactive)
REMARK    1  A    between atoms: N_1  and  C_2
REMARK    2  A    between atoms: C_2  and  N_4
REMARK    3  A    between atoms: N_4  and  N_5
REMARK    4  A    between atoms: C_8  and  C_9
REMARK                            x       y       z     vdW  Elec       q    Type
REMARK                         _______ _______ _______ _____ _____    ______ ____
ROOT
ATOM      1  N   UNL     1       2.265   7.001  19.011  0.00  0.00    +0.000 NA
ATOM      2  C   UNL     1       3.100   6.017  18.831  0.00  0.00    +0.000 C 
ATOM      3  C   UNL     1       4.229   5.991  17.828  0.00  0.00    +0.000 C 
ATOM      4  C   UNL     1       4.308   4.590  17.224  0.00  0.00    +0.000 C 
ATOM      5  N   UNL     1       4.624   3.619  18.271  0.00  0.00    +0.000 N 
ATOM      6  C   UNL     1       3.715   3.647  19.350  0.00  0.00    +0.000 A 
ATOM      7  C   UNL     1       3.632   2.538  20.202  0.00  0.00    +0.000 A 
ATOM      8  C   UNL     1       2.799   2.554  21.325  0.00  0.00    +0.000 A 
ATOM      9  C   UNL     1       2.053   3.692  21.629  0.00  0.00    +0.000 A 
ATOM     10  C   UNL     1       2.145   4.817  20.814  0.00  0.00    +0.000 A 
ATOM     11  C   UNL     1       2.981   4.801  19.690  0.00  0.00    +0.000 A 
ATOM     12  H   UNL     1       4.769   2.680  17.907  0.00  0.00    +0.000 HD
ENDROOT
BRANCH   4  13
ATOM     13  C   UNL     1       5.354   4.553  16.125  0.00  0.00    +0.000 A 
ATOM     14  C   UNL     1       6.614   5.147  16.296  0.00  0.00    +0.000 A 
ATOM     15  C   UNL     1       7.512   5.232  15.231  0.00  0.00    +0.000 A 
ATOM     16  C   UNL     1       7.170   4.706  13.988  0.00  0.00    +0.000 A 
ATOM     17  C   UNL     1       5.939   4.077  13.813  0.00  0.00    +0.000 A 
ATOM     18  C   UNL     1       5.036   4.000  14.874  0.00  0.00    +0.000 A 
ENDBRANCH   4  13
BRANCH   1  19
ATOM     19  N   UNL     1       2.375   8.129  18.252  0.00  0.00    +0.000 N 
ATOM     20  H   UNL     1       2.977   8.173  17.440  0.00  0.00    +0.000 HD
BRANCH  19  21
ATOM     21  C   UNL     1       1.705   9.271  18.593  0.00  0.00    +0.000 C 
ATOM     22  S   UNL     1       0.865   9.418  20.015  0.00  0.00    +0.000 S 
BRANCH  21  23
ATOM     23  N   UNL     1       1.774  10.279  17.693  0.00  0.00    +0.000 N 
ATOM     24  H   UNL     1       2.577  10.884  17.637  0.00  0.00    +0.000 HD
ATOM     25  H   UNL     1       0.928  10.485  17.176  0.00  0.00    +0.000 HD
ENDBRANCH  21  23
ENDBRANCH  19  21
ENDBRANCH   1  19
TORSDOF 4
ENDMDL
MODEL 8
REMARK VINA RESULT:      -7.5      2.646      4.345
REMARK  Name = 
REMARK  4 active torsions:
REMARK  status: ('A' for Active; 'I' for Inactive)
REMARK    1  A    between atoms: N_1  and  C_2
REMARK    2  A    between atoms: C_2  and  N_4
REMARK    3  A    between atoms: N_4  and  N_5
REMARK    4  A    between atoms: C_8  and  C_9
REMARK                            x       y       z     vdW  Elec       q    Type
REMARK                         _______ _______ _______ _____ _____    ______ ____
ROOT
ATOM      1  N   UNL     1       5.404   5.243  17.330  0.00  0.00    +0.000 NA
ATOM      2  C   UNL     1       4.187   5.354  17.780  0.00  0.00    +0.000 C 
ATOM      3  C   UNL     1       3.409   6.642  17.910  0.00  0.00    +0.000 C 
ATOM      4  C   UNL     1       2.611   6.597  19.212  0.00  0.00    +0.000 C 
ATOM      5  N   UNL     1       1.645   5.501  19.160  0.00  0.00    +0.000 N 
ATOM      6  C   UNL     1       2.237   4.249  18.894  0.00  0.00    +0.000 A 
ATOM      7  C   UNL     1       1.536   3.079  19.216  0.00  0.00    +0.000 A 
ATOM      8  C   UNL     1       2.054   1.819  18.902  0.00  0.00    +0.000 A 
ATOM      9  C   UNL     1       3.274   1.709  18.235  0.00  0.00    +0.000 A 
ATOM     10  C   UNL     1       3.972   2.859  17.875  0.00  0.00    +0.000 A 
ATOM     11  C   UNL     1       3.451   4.121  18.190  0.00  0.00    +0.000 A 
ATOM     12  H   UNL     1       1.031   5.478  19.971  0.00  0.00    +0.000 HD
ENDROOT
BRANCH   4  13
ATOM     13  C   UNL     1       1.907   7.923  19.440  0.00  0.00    +0.000 A 
ATOM     14  C   UNL     1       1.798   8.876  18.416  0.00  0.00    +0.000 A 
ATOM     15  C   UNL     1       1.277  10.145  18.677  0.00  0.00    +0.000 A 
ATOM     16  C   UNL     1       0.839  10.468  19.958  0.00  0.00    +0.000 A 
ATOM     17  C   UNL     1       0.905   9.519  20.977  0.00  0.00    +0.000 A 
ATOM     18  C   UNL     1       1.434   8.254  20.720  0.00  0.00    +0.000 A 
ENDBRANCH   4  13
BRANCH   1  19
ATOM     19  N   UNL     1       6.081   6.356  16.929  0.00  0.00    +0.000 N 
ATOM     20  H   UNL     1       5.834   6.862  16.087  0.00  0.00    +0.000 HD
BRANCH  19  21
ATOM     21  C   UNL     1       7.164   6.810  17.631  0.00  0.00    +0.000 C 
ATOM     22  S   UNL     1       7.787   5.990  18.931  0.00  0.00    +0.000 S 
BRANCH  21  23
ATOM     23  N   UNL     1       7.699   7.973  17.193  0.00  0.00    +0.000 N 
ATOM     24  H   UNL     1       8.610   8.008  16.768  0.00  0.00    +0.000 HD
ATOM     25  H   UNL     1       7.204   8.821  17.439  0.00  0.00    +0.000 HD
ENDBRANCH  21  23
ENDBRANCH  19  21
ENDBRANCH   1  19
TORSDOF 4
ENDMDL
MODEL 9
REMARK VINA RESULT:      -7.5      2.512      4.640
REMARK  Name = 
REMARK  4 active torsions:
REMARK  status: ('A' for Active; 'I' for Inactive)
REMARK    1  A    between atoms: N_1  and  C_2
REMARK    2  A    between atoms: C_2  and  N_4
REMARK    3  A    between atoms: N_4  and  N_5
REMARK    4  A    between atoms: C_8  and  C_9
REMARK                            x       y       z     vdW  Elec       q    Type
REMARK                         _______ _______ _______ _____ _____    ______ ____
ROOT
ATOM      1  N   UNL     1       4.821   4.853  17.582  0.00  0.00    +0.000 NA
ATOM      2  C   UNL     1       3.802   5.182  18.324  0.00  0.00    +0.000 C 
ATOM      3  C   UNL     1       2.929   6.400  18.134  0.00  0.00    +0.000 C 
ATOM      4  C   UNL     1       2.592   6.973  19.510  0.00  0.00    +0.000 C 
ATOM      5  N   UNL     1       1.823   5.994  20.277  0.00  0.00    +0.000 N 
ATOM      6  C   UNL     1       2.474   4.749  20.400  0.00  0.00    +0.000 A 
ATOM      7  C   UNL     1       2.082   3.871  21.421  0.00  0.00    +0.000 A 
ATOM      8  C   UNL     1       2.650   2.599  21.533  0.00  0.00    +0.000 A 
ATOM      9  C   UNL     1       3.603   2.171  20.609  0.00  0.00    +0.000 A 
ATOM     10  C   UNL     1       3.983   3.014  19.568  0.00  0.00    +0.000 A 
ATOM     11  C   UNL     1       3.413   4.289  19.456  0.00  0.00    +0.000 A 
ATOM     12  H   UNL     1       1.503   6.358  21.171  0.00  0.00    +0.000 HD
ENDROOT
BRANCH   4  13
ATOM     13  C   UNL     1       1.813   8.268  19.360  0.00  0.00    +0.000 A 
ATOM     14  C   UNL     1       1.842   9.003  18.165  0.00  0.00    +0.000 A 
ATOM     15  C   UNL     1       1.241  10.259  18.087  0.00  0.00    +0.000 A 
ATOM     16  C   UNL     1       0.585  10.788  19.196  0.00  0.00    +0.000 A 
ATOM     17  C   UNL     1       0.514  10.054  20.378  0.00  0.00    +0.000 A 
ATOM     18  C   UNL     1       1.123   8.801  20.460  0.00  0.00    +0.000 A 
ENDBRANCH   4  13
BRANCH   1  19
ATOM     19  N   UNL     1       5.174   5.645  16.529  0.00  0.00    +0.000 N 
ATOM     20  H   UNL     1       4.653   6.478  16.285  0.00  0.00    +0.000 HD
BRANCH  19  21
ATOM     21  C   UNL     1       6.230   5.314  15.726  0.00  0.00    +0.000 C 
ATOM     22  S   UNL     1       6.118   4.157  14.543  0.00  0.00    +0.000 S 
BRANCH  21  23
ATOM     23  N   UNL     1       7.376   5.997  15.955  0.00  0.00    +0.000 N 
ATOM     24  H   UNL     1       8.277   5.552  15.895  0.00  0.00    +0.000 HD
ATOM     25  H   UNL     1       7.278   6.934  16.327  0.00  0.00    +0.000 HD
ENDBRANCH  21  23
ENDBRANCH  19  21
ENDBRANCH   1  19
TORSDOF 4
ENDMDL
