MODEL 1
REMARK VINA RESULT:      -8.5      0.000      0.000
REMARK  Name = 
REMARK  7 active torsions:
REMARK  status: ('A' for Active; 'I' for Inactive)
REMARK    1  A    between atoms: C_1  and  C_2
REMARK    2  A    between atoms: C_2  and  C_3
REMARK    3  A    between atoms: N_9  and  C_10
REMARK    4  A    between atoms: C_10  and  C_11
REMARK    5  A    between atoms: N_13  and  C_14
REMARK    6  A    between atoms: C_25  and  C_26
REMARK    7  A    between atoms: C_25  and  C_27
REMARK                            x       y       z     vdW  Elec       q    Type
REMARK                         _______ _______ _______ _____ _____    ______ ____
ROOT
ATOM      1  C   UNL     1       2.377   2.440  17.238  0.00  0.00    +0.000 C 
ATOM      2  C   UNL     1       2.997   3.379  18.276  0.00  0.00    +0.000 C 
ATOM      3  C   UNL     1       2.943   2.687  19.643  0.00  0.00    +0.000 C 
ATOM      4  C   UNL     1       4.399   3.818  17.864  0.00  0.00    +0.000 C 
ATOM      5  C   UNL     1       4.552   5.216  18.462  0.00  0.00    +0.000 C 
ATOM      6  N   UNL     1       5.388   5.158  19.649  0.00  0.00    +0.000 N 
ATOM      7  C   UNL     1       6.660   5.630  19.407  0.00  0.00    +0.000 C 
ATOM      8  O   UNL     1       7.612   5.391  20.131  0.00  0.00    +0.000 OA
ATOM      9  N   UNL     1       6.662   6.280  18.216  0.00  0.00    +0.000 N 
ATOM     10  C   UNL     1       5.468   6.095  17.576  0.00  0.00    +0.000 C 
ATOM     11  O   UNL     1       5.232   6.519  16.453  0.00  0.00    +0.000 OA
ATOM     12  C   UNL     1       3.093   5.711  18.653  0.00  0.00    +0.000 C 
ATOM     13  C   UNL     1       2.668   6.839  17.704  0.00  0.00    +0.000 C 
ATOM     14  C   UNL     1       2.757   6.159  20.084  0.00  0.00    +0.000 C 
ATOM     15  O   UNL     1       2.225   4.586  18.345  0.00  0.00    +0.000 OA
ATOM     16  H   UNL     1       5.258   4.516  20.422  0.00  0.00    +0.000 HD
ENDROOT
BRANCH   9  17
ATOM     17  C   UNL     1       7.821   6.903  17.602  0.00  0.00    +0.000 C 
BRANCH  17  18
ATOM     18  C   UNL     1       7.883   8.406  17.886  0.00  0.00    +0.000 C 
ATOM     19  O   UNL     1       7.059   9.181  17.408  0.00  0.00    +0.000 OA
ATOM     20  N   UNL     1       8.964   8.787  18.672  0.00  0.00    +0.000 N 
ATOM     21  H   UNL     1       9.777   8.172  18.644  0.00  0.00    +0.000 HD
BRANCH  20  22
ATOM     22  C   UNL     1       9.179  10.117  19.095  0.00  0.00    +0.000 A 
ATOM     23  C   UNL     1       9.124  10.384  20.474  0.00  0.00    +0.000 A 
ATOM     24  C   UNL     1       9.368  11.671  20.965  0.00  0.00    +0.000 A 
ATOM     25  C   UNL     1       9.602  12.690  20.060  0.00  0.00    +0.000 A 
ATOM     26  C   UNL     1       9.586  12.447  18.683  0.00  0.00    +0.000 A 
ATOM     27  C   UNL     1       9.400  11.162  18.187  0.00  0.00    +0.000 A 
ATOM     28  C   UNL     1       9.729  13.731  17.925  0.00  0.00    +0.000 C 
ATOM     29  C   UNL     1      10.360  14.638  18.990  0.00  0.00    +0.000 C 
ATOM     30  C   UNL     1       9.842  14.140  20.348  0.00  0.00    +0.000 C 
ENDBRANCH  20  22
ENDBRANCH  17  18
ENDBRANCH   9  17
TORSDOF 3
ENDMDL
MODEL 2
REMARK VINA RESULT:      -7.8      0.661      1.482
REMARK  Name = 
REMARK  7 active torsions:
REMARK  status: ('A' for Active; 'I' for Inactive)
REMARK    1  A    between atoms: C_1  and  C_2
REMARK    2  A    between atoms: C_2  and  C_3
REMARK    3  A    between atoms: N_9  and  C_10
REMARK    4  A    between atoms: C_10  and  C_11
REMARK    5  A    between atoms: N_13  and  C_14
REMARK    6  A    between atoms: C_25  and  C_26
REMARK    7  A    between atoms: C_25  and  C_27
REMARK                            x       y       z     vdW  Elec       q    Type
REMARK                         _______ _______ _______ _____ _____    ______ ____
ROOT
ATOM      1  C   UNL     1       3.109   2.011  17.236  0.00  0.00    +0.000 C 
ATOM      2  C   UNL     1       3.689   2.995  18.254  0.00  0.00    +0.000 C 
ATOM      3  C   UNL     1       3.860   2.262  19.590  0.00  0.00    +0.000 C 
ATOM      4  C   UNL     1       4.973   3.640  17.738  0.00  0.00    +0.000 C 
ATOM      5  C   UNL     1       4.988   5.026  18.379  0.00  0.00    +0.000 C 
ATOM      6  N   UNL     1       5.933   5.050  19.484  0.00  0.00    +0.000 N 
ATOM      7  C   UNL     1       7.099   5.703  19.149  0.00  0.00    +0.000 C 
ATOM      8  O   UNL     1       8.140   5.579  19.774  0.00  0.00    +0.000 OA
ATOM      9  N   UNL     1       6.899   6.383  17.992  0.00  0.00    +0.000 N 
ATOM     10  C   UNL     1       5.687   6.051  17.454  0.00  0.00    +0.000 C 
ATOM     11  O   UNL     1       5.290   6.473  16.376  0.00  0.00    +0.000 OA
ATOM     12  C   UNL     1       3.499   5.305  18.721  0.00  0.00    +0.000 C 
ATOM     13  C   UNL     1       2.836   6.390  17.865  0.00  0.00    +0.000 C 
ATOM     14  C   UNL     1       3.243   5.657  20.195  0.00  0.00    +0.000 C 
ATOM     15  O   UNL     1       2.769   4.080  18.444  0.00  0.00    +0.000 OA
ATOM     16  H   UNL     1       5.966   4.373  20.237  0.00  0.00    +0.000 HD
ENDROOT
BRANCH   9  17
ATOM     17  C   UNL     1       7.899   7.181  17.305  0.00  0.00    +0.000 C 
BRANCH  17  18
ATOM     18  C   UNL     1       7.883   8.641  17.764  0.00  0.00    +0.000 C 
ATOM     19  O   UNL     1       6.921   9.372  17.539  0.00  0.00    +0.000 OA
ATOM     20  N   UNL     1       9.054   9.047  18.393  0.00  0.00    +0.000 N 
ATOM     21  H   UNL     1       9.898   8.530  18.146  0.00  0.00    +0.000 HD
BRANCH  20  22
ATOM     22  C   UNL     1       9.229  10.337  18.939  0.00  0.00    +0.000 A 
ATOM     23  C   UNL     1       9.628  11.370  18.073  0.00  0.00    +0.000 A 
ATOM     24  C   UNL     1       9.780  12.679  18.540  0.00  0.00    +0.000 A 
ATOM     25  C   UNL     1       9.591  12.926  19.887  0.00  0.00    +0.000 A 
ATOM     26  C   UNL     1       9.265  11.891  20.769  0.00  0.00    +0.000 A 
ATOM     27  C   UNL     1       9.057  10.597  20.307  0.00  0.00    +0.000 A 
ATOM     28  C   UNL     1       9.252  12.393  22.181  0.00  0.00    +0.000 C 
ATOM     29  C   UNL     1       9.071  13.901  21.959  0.00  0.00    +0.000 C 
ATOM     30  C   UNL     1       9.740  14.227  20.615  0.00  0.00    +0.000 C 
ENDBRANCH  20  22
ENDBRANCH  17  18
ENDBRANCH   9  17
TORSDOF 3
ENDMDL
MODEL 3
REMARK VINA RESULT:      -7.8      1.247      2.711
REMARK  Name = 
REMARK  7 active torsions:
REMARK  status: ('A' for Active; 'I' for Inactive)
REMARK    1  A    between atoms: C_1  and  C_2
REMARK    2  A    between atoms: C_2  and  C_3
REMARK    3  A    between atoms: N_9  and  C_10
REMARK    4  A    between atoms: C_10  and  C_11
REMARK    5  A    between atoms: N_13  and  C_14
REMARK    6  A    between atoms: C_25  and  C_26
REMARK    7  A    between atoms: C_25  and  C_27
REMARK                            x       y       z     vdW  Elec       q    Type
REMARK                         _______ _______ _______ _____ _____    ______ ____
ROOT
ATOM      1  C   UNL     1       1.220   5.389  20.073  0.00  0.00    +0.000 C 
ATOM      2  C   UNL     1       2.115   4.832  18.964  0.00  0.00    +0.000 C 
ATOM      3  C   UNL     1       1.282   4.727  17.681  0.00  0.00    +0.000 C 
ATOM      4  C   UNL     1       3.387   5.659  18.805  0.00  0.00    +0.000 C 
ATOM      5  C   UNL     1       4.437   4.657  18.328  0.00  0.00    +0.000 C 
ATOM      6  N   UNL     1       4.668   4.823  16.903  0.00  0.00    +0.000 N 
ATOM      7  C   UNL     1       5.853   5.478  16.646  0.00  0.00    +0.000 C 
ATOM      8  O   UNL     1       6.108   6.008  15.577  0.00  0.00    +0.000 OA
ATOM      9  N   UNL     1       6.588   5.508  17.787  0.00  0.00    +0.000 N 
ATOM     10  C   UNL     1       5.844   5.051  18.839  0.00  0.00    +0.000 C 
ATOM     11  O   UNL     1       6.247   5.037  19.993  0.00  0.00    +0.000 OA
ATOM     12  C   UNL     1       3.891   3.281  18.797  0.00  0.00    +0.000 C 
ATOM     13  C   UNL     1       4.685   2.628  19.935  0.00  0.00    +0.000 C 
ATOM     14  C   UNL     1       3.750   2.240  17.675  0.00  0.00    +0.000 C 
ATOM     15  O   UNL     1       2.559   3.517  19.328  0.00  0.00    +0.000 OA
ATOM     16  H   UNL     1       3.944   4.854  16.195  0.00  0.00    +0.000 HD
ENDROOT
BRANCH   9  17
ATOM     17  C   UNL     1       7.893   6.128  17.927  0.00  0.00    +0.000 C 
BRANCH  17  18
ATOM     18  C   UNL     1       7.802   7.655  17.965  0.00  0.00    +0.000 C 
ATOM     19  O   UNL     1       6.914   8.258  17.368  0.00  0.00    +0.000 OA
ATOM     20  N   UNL     1       8.828   8.264  18.679  0.00  0.00    +0.000 N 
ATOM     21  H   UNL     1       9.698   7.736  18.751  0.00  0.00    +0.000 HD
BRANCH  20  22
ATOM     22  C   UNL     1       8.904   9.659  18.883  0.00  0.00    +0.000 A 
ATOM     23  C   UNL     1       8.682  10.497  17.776  0.00  0.00    +0.000 A 
ATOM     24  C   UNL     1       8.702  11.889  17.917  0.00  0.00    +0.000 A 
ATOM     25  C   UNL     1       9.008  12.424  19.154  0.00  0.00    +0.000 A 
ATOM     26  C   UNL     1       9.302  11.597  20.242  0.00  0.00    +0.000 A 
ATOM     27  C   UNL     1       9.231  10.214  20.129  0.00  0.00    +0.000 A 
ATOM     28  C   UNL     1       9.732  12.417  21.420  0.00  0.00    +0.000 C 
ATOM     29  C   UNL     1       9.139  13.787  21.062  0.00  0.00    +0.000 C 
ATOM     30  C   UNL     1       9.130  13.869  19.527  0.00  0.00    +0.000 C 
ENDBRANCH  20  22
ENDBRANCH  17  18
ENDBRANCH   9  17
TORSDOF 3
ENDMDL
MODEL 4
REMARK VINA RESULT:      -7.7      0.757      1.487
REMARK  Name = 
REMARK  7 active torsions:
REMARK  status: ('A' for Active; 'I' for Inactive)
REMARK    1  A    between atoms: C_1  and  C_2
REMARK    2  A    between atoms: C_2  and  C_3
REMARK    3  A    between atoms: N_9  and  C_10
REMARK    4  A    between atoms: C_10  and  C_11
REMARK    5  A    between atoms: N_13  and  C_14
REMARK    6  A    between atoms: C_25  and  C_26
REMARK    7  A    between atoms: C_25  and  C_27
REMARK                            x       y       z     vdW  Elec       q    Type
REMARK                         _______ _______ _______ _____ _____    ______ ____
ROOT
ATOM      1  C   UNL     1       1.520   3.415  16.960  0.00  0.00    +0.000 C 
ATOM      2  C   UNL     1       2.282   4.180  18.045  0.00  0.00    +0.000 C 
ATOM      3  C   UNL     1       2.059   3.466  19.384  0.00  0.00    +0.000 C 
ATOM      4  C   UNL     1       3.753   4.352  17.677  0.00  0.00    +0.000 C 
ATOM      5  C   UNL     1       4.158   5.672  18.331  0.00  0.00    +0.000 C 
ATOM      6  N   UNL     1       4.936   5.412  19.531  0.00  0.00    +0.000 N 
ATOM      7  C   UNL     1       6.280   5.636  19.331  0.00  0.00    +0.000 C 
ATOM      8  O   UNL     1       7.149   5.193  20.064  0.00  0.00    +0.000 OA
ATOM      9  N   UNL     1       6.439   6.313  18.166  0.00  0.00    +0.000 N 
ATOM     10  C   UNL     1       5.250   6.385  17.497  0.00  0.00    +0.000 C 
ATOM     11  O   UNL     1       5.130   6.886  16.387  0.00  0.00    +0.000 OA
ATOM     12  C   UNL     1       2.817   6.435  18.512  0.00  0.00    +0.000 C 
ATOM     13  C   UNL     1       2.644   7.655  17.600  0.00  0.00    +0.000 C 
ATOM     14  C   UNL     1       2.538   6.890  19.953  0.00  0.00    +0.000 C 
ATOM     15  O   UNL     1       1.757   5.511  18.145  0.00  0.00    +0.000 OA
ATOM     16  H   UNL     1       4.663   4.783  20.276  0.00  0.00    +0.000 HD
ENDROOT
BRANCH   9  17
ATOM     17  C   UNL     1       7.713   6.720  17.599  0.00  0.00    +0.000 C 
BRANCH  17  18
ATOM     18  C   UNL     1       7.955   8.223  17.751  0.00  0.00    +0.000 C 
ATOM     19  O   UNL     1       7.472   9.031  16.962  0.00  0.00    +0.000 OA
ATOM     20  N   UNL     1       8.794   8.556  18.808  0.00  0.00    +0.000 N 
ATOM     21  H   UNL     1       9.451   7.834  19.102  0.00  0.00    +0.000 HD
BRANCH  20  22
ATOM     22  C   UNL     1       9.106   9.888  19.156  0.00  0.00    +0.000 A 
ATOM     23  C   UNL     1       9.502  10.760  18.127  0.00  0.00    +0.000 A 
ATOM     24  C   UNL     1       9.786  12.103  18.396  0.00  0.00    +0.000 A 
ATOM     25  C   UNL     1       9.730  12.541  19.706  0.00  0.00    +0.000 A 
ATOM     26  C   UNL     1       9.407  11.662  20.745  0.00  0.00    +0.000 A 
ATOM     27  C   UNL     1       9.069  10.340  20.483  0.00  0.00    +0.000 A 
ATOM     28  C   UNL     1       9.548  12.347  22.070  0.00  0.00    +0.000 C 
ATOM     29  C   UNL     1       9.457  13.822  21.656  0.00  0.00    +0.000 C 
ATOM     30  C   UNL     1      10.031  13.911  20.233  0.00  0.00    +0.000 C 
ENDBRANCH  20  22
ENDBRANCH  17  18
ENDBRANCH   9  17
TORSDOF 3
ENDMDL
MODEL 5
REMARK VINA RESULT:      -7.6      4.503      7.350
REMARK  Name = 
REMARK  7 active torsions:
REMARK  status: ('A' for Active; 'I' for Inactive)
REMARK    1  A    between atoms: C_1  and  C_2
REMARK    2  A    between atoms: C_2  and  C_3
REMARK    3  A    between atoms: N_9  and  C_10
REMARK    4  A    between atoms: C_10  and  C_11
REMARK    5  A    between atoms: N_13  and  C_14
REMARK    6  A    between atoms: C_25  and  C_26
REMARK    7  A    between atoms: C_25  and  C_27
REMARK                            x       y       z     vdW  Elec       q    Type
REMARK                         _______ _______ _______ _____ _____    ______ ____
ROOT
ATOM      1  C   UNL     1       1.932   2.617  22.136  0.00  0.00    +0.000 C 
ATOM      2  C   UNL     1       1.860   3.186  20.717  0.00  0.00    +0.000 C 
ATOM      3  C   UNL     1       0.433   3.689  20.471  0.00  0.00    +0.000 C 
ATOM      4  C   UNL     1       2.934   4.245  20.485  0.00  0.00    +0.000 C 
ATOM      5  C   UNL     1       3.262   4.136  18.997  0.00  0.00    +0.000 C 
ATOM      6  N   UNL     1       2.639   5.231  18.272  0.00  0.00    +0.000 N 
ATOM      7  C   UNL     1       3.551   6.204  17.925  0.00  0.00    +0.000 C 
ATOM      8  O   UNL     1       3.233   7.338  17.607  0.00  0.00    +0.000 OA
ATOM      9  N   UNL     1       4.802   5.709  18.104  0.00  0.00    +0.000 N 
ATOM     10  C   UNL     1       4.744   4.498  18.734  0.00  0.00    +0.000 C 
ATOM     11  O   UNL     1       5.735   3.867  19.074  0.00  0.00    +0.000 OA
ATOM     12  C   UNL     1       2.822   2.697  18.613  0.00  0.00    +0.000 C 
ATOM     13  C   UNL     1       3.974   1.734  18.302  0.00  0.00    +0.000 C 
ATOM     14  C   UNL     1       1.833   2.629  17.439  0.00  0.00    +0.000 C 
ATOM     15  O   UNL     1       2.144   2.143  19.773  0.00  0.00    +0.000 OA
ATOM     16  H   UNL     1       1.664   5.496  18.343  0.00  0.00    +0.000 HD
ENDROOT
BRANCH   9  17
ATOM     17  C   UNL     1       6.034   6.439  17.865  0.00  0.00    +0.000 C 
BRANCH  17  18
ATOM     18  C   UNL     1       6.694   6.034  16.544  0.00  0.00    +0.000 C 
ATOM     19  O   UNL     1       7.830   6.403  16.258  0.00  0.00    +0.000 OA
ATOM     20  N   UNL     1       5.876   5.277  15.714  0.00  0.00    +0.000 N 
ATOM     21  H   UNL     1       4.871   5.398  15.843  0.00  0.00    +0.000 HD
BRANCH  20  22
ATOM     22  C   UNL     1       6.306   4.756  14.474  0.00  0.00    +0.000 A 
ATOM     23  C   UNL     1       7.373   5.401  13.825  0.00  0.00    +0.000 A 
ATOM     24  C   UNL     1       7.875   4.913  12.614  0.00  0.00    +0.000 A 
ATOM     25  C   UNL     1       7.259   3.819  12.036  0.00  0.00    +0.000 A 
ATOM     26  C   UNL     1       6.151   3.216  12.639  0.00  0.00    +0.000 A 
ATOM     27  C   UNL     1       5.678   3.658  13.869  0.00  0.00    +0.000 A 
ATOM     28  C   UNL     1       5.590   2.148  11.750  0.00  0.00    +0.000 C 
ATOM     29  C   UNL     1       6.796   1.847  10.849  0.00  0.00    +0.000 C 
ATOM     30  C   UNL     1       7.592   3.156  10.735  0.00  0.00    +0.000 C 
ENDBRANCH  20  22
ENDBRANCH  17  18
ENDBRANCH   9  17
TORSDOF 3
ENDMDL
MODEL 6
REMARK VINA RESULT:      -7.5      5.871      9.618
REMARK  Name = 
REMARK  7 active torsions:
REMARK  status: ('A' for Active; 'I' for Inactive)
REMARK    1  A    between atoms: C_1  and  C_2
REMARK    2  A    between atoms: C_2  and  C_3
REMARK    3  A    between atoms: N_9  and  C_10
REMARK    4  A    between atoms: C_10  and  C_11
REMARK    5  A    between atoms: N_13  and  C_14
REMARK    6  A    between atoms: C_25  and  C_26
REMARK    7  A    between atoms: C_25  and  C_27
REMARK                            x       y       z     vdW  Elec       q    Type
REMARK                         _______ _______ _______ _____ _____    ______ ____
ROOT
ATOM      1  C   UNL     1      -2.734  11.154  16.550  0.00  0.00    +0.000 C 
ATOM      2  C   UNL     1      -2.345  11.675  17.935  0.00  0.00    +0.000 C 
ATOM      3  C   UNL     1      -3.605  12.224  18.614  0.00  0.00    +0.000 C 
ATOM      4  C   UNL     1      -1.623  10.606  18.751  0.00  0.00    +0.000 C 
ATOM      5  C   UNL     1      -0.671  11.392  19.651  0.00  0.00    +0.000 C 
ATOM      6  N   UNL     1      -1.202  11.449  21.003  0.00  0.00    +0.000 N 
ATOM      7  C   UNL     1      -0.545  10.584  21.850  0.00  0.00    +0.000 C 
ATOM      8  O   UNL     1      -1.002  10.220  22.922  0.00  0.00    +0.000 OA
ATOM      9  N   UNL     1       0.590  10.157  21.241  0.00  0.00    +0.000 N 
ATOM     10  C   UNL     1       0.612  10.574  19.940  0.00  0.00    +0.000 C 
ATOM     11  O   UNL     1       1.493  10.269  19.149  0.00  0.00    +0.000 OA
ATOM     12  C   UNL     1      -0.477  12.745  18.914  0.00  0.00    +0.000 C 
ATOM     13  C   UNL     1       0.916  12.953  18.308  0.00  0.00    +0.000 C 
ATOM     14  C   UNL     1      -0.802  13.982  19.765  0.00  0.00    +0.000 C 
ATOM     15  O   UNL     1      -1.401  12.746  17.792  0.00  0.00    +0.000 OA
ATOM     16  H   UNL     1      -2.144  11.732  21.247  0.00  0.00    +0.000 HD
ENDROOT
BRANCH   9  17
ATOM     17  C   UNL     1       1.544   9.220  21.807  0.00  0.00    +0.000 C 
BRANCH  17  18
ATOM     18  C   UNL     1       1.399   7.820  21.206  0.00  0.00    +0.000 C 
ATOM     19  O   UNL     1       0.465   7.086  21.516  0.00  0.00    +0.000 OA
ATOM     20  N   UNL     1       2.432   7.467  20.346  0.00  0.00    +0.000 N 
ATOM     21  H   UNL     1       3.323   7.940  20.496  0.00  0.00    +0.000 HD
BRANCH  20  22
ATOM     22  C   UNL     1       2.466   6.242  19.644  0.00  0.00    +0.000 A 
ATOM     23  C   UNL     1       3.118   6.216  18.399  0.00  0.00    +0.000 A 
ATOM     24  C   UNL     1       3.224   5.027  17.671  0.00  0.00    +0.000 A 
ATOM     25  C   UNL     1       2.619   3.888  18.171  0.00  0.00    +0.000 A 
ATOM     26  C   UNL     1       1.906   3.923  19.373  0.00  0.00    +0.000 A 
ATOM     27  C   UNL     1       1.841   5.085  20.133  0.00  0.00    +0.000 A 
ATOM     28  C   UNL     1       1.237   2.605  19.621  0.00  0.00    +0.000 C 
ATOM     29  C   UNL     1       2.073   1.675  18.731  0.00  0.00    +0.000 C 
ATOM     30  C   UNL     1       2.564   2.526  17.550  0.00  0.00    +0.000 C 
ENDBRANCH  20  22
ENDBRANCH  17  18
ENDBRANCH   9  17
TORSDOF 3
ENDMDL
MODEL 7
REMARK VINA RESULT:      -7.5      7.026     10.841
REMARK  Name = 
REMARK  7 active torsions:
REMARK  status: ('A' for Active; 'I' for Inactive)
REMARK    1  A    between atoms: C_1  and  C_2
REMARK    2  A    between atoms: C_2  and  C_3
REMARK    3  A    between atoms: N_9  and  C_10
REMARK    4  A    between atoms: C_10  and  C_11
REMARK    5  A    between atoms: N_13  and  C_14
REMARK    6  A    between atoms: C_25  and  C_26
REMARK    7  A    between atoms: C_25  and  C_27
REMARK                            x       y       z     vdW  Elec       q    Type
REMARK                         _______ _______ _______ _____ _____    ______ ____
ROOT
ATOM      1  C   UNL     1      -2.077  16.279  23.211  0.00  0.00    +0.000 C 
ATOM      2  C   UNL     1      -1.977  15.240  22.092  0.00  0.00    +0.000 C 
ATOM      3  C   UNL     1      -1.805  15.981  20.761  0.00  0.00    +0.000 C 
ATOM      4  C   UNL     1      -0.878  14.220  22.374  0.00  0.00    +0.000 C 
ATOM      5  C   UNL     1      -1.372  12.934  21.713  0.00  0.00    +0.000 C 
ATOM      6  N   UNL     1      -0.658  12.714  20.466  0.00  0.00    +0.000 N 
ATOM      7  C   UNL     1       0.300  11.731  20.588  0.00  0.00    +0.000 C 
ATOM      8  O   UNL     1       1.221  11.591  19.801  0.00  0.00    +0.000 OA
ATOM      9  N   UNL     1       0.088  11.061  21.749  0.00  0.00    +0.000 N 
ATOM     10  C   UNL     1      -0.873  11.691  22.489  0.00  0.00    +0.000 C 
ATOM     11  O   UNL     1      -1.206  11.330  23.609  0.00  0.00    +0.000 OA
ATOM     12  C   UNL     1      -2.911  13.120  21.619  0.00  0.00    +0.000 C 
ATOM     13  C   UNL     1      -3.725  12.217  22.553  0.00  0.00    +0.000 C 
ATOM     14  C   UNL     1      -3.484  12.957  20.202  0.00  0.00    +0.000 C 
ATOM     15  O   UNL     1      -3.194  14.483  22.038  0.00  0.00    +0.000 OA
ATOM     16  H   UNL     1      -0.543  13.401  19.731  0.00  0.00    +0.000 HD
ENDROOT
BRANCH   9  17
ATOM     17  C   UNL     1       0.901   9.964  22.244  0.00  0.00    +0.000 C 
BRANCH  17  18
ATOM     18  C   UNL     1       0.694   8.684  21.431  0.00  0.00    +0.000 C 
ATOM     19  O   UNL     1      -0.432   8.268  21.169  0.00  0.00    +0.000 OA
ATOM     20  N   UNL     1       1.875   8.040  21.082  0.00  0.00    +0.000 N 
ATOM     21  H   UNL     1       2.677   8.215  21.688  0.00  0.00    +0.000 HD
BRANCH  20  22
ATOM     22  C   UNL     1       1.913   6.873  20.288  0.00  0.00    +0.000 A 
ATOM     23  C   UNL     1       2.415   6.984  18.980  0.00  0.00    +0.000 A 
ATOM     24  C   UNL     1       2.518   5.860  18.155  0.00  0.00    +0.000 A 
ATOM     25  C   UNL     1       2.057   4.647  18.629  0.00  0.00    +0.000 A 
ATOM     26  C   UNL     1       1.488   4.542  19.903  0.00  0.00    +0.000 A 
ATOM     27  C   UNL     1       1.431   5.640  20.752  0.00  0.00    +0.000 A 
ATOM     28  C   UNL     1       0.946   3.162  20.120  0.00  0.00    +0.000 C 
ATOM     29  C   UNL     1       1.735   2.363  19.074  0.00  0.00    +0.000 C 
ATOM     30  C   UNL     1       2.025   3.330  17.915  0.00  0.00    +0.000 C 
ENDBRANCH  20  22
ENDBRANCH  17  18
ENDBRANCH   9  17
TORSDOF 3
ENDMDL
MODEL 8
REMARK VINA RESULT:      -7.3      5.923      9.491
REMARK  Name = 
REMARK  7 active torsions:
REMARK  status: ('A' for Active; 'I' for Inactive)
REMARK    1  A    between atoms: C_1  and  C_2
REMARK    2  A    between atoms: C_2  and  C_3
REMARK    3  A    between atoms: N_9  and  C_10
REMARK    4  A    between atoms: C_10  and  C_11
REMARK    5  A    between atoms: N_13  and  C_14
REMARK    6  A    between atoms: C_25  and  C_26
REMARK    7  A    between atoms: C_25  and  C_27
REMARK                            x       y       z     vdW  Elec       q    Type
REMARK                         _______ _______ _______ _____ _____    ______ ____
ROOT
ATOM      1  C   UNL     1      -2.701  10.833  15.797  0.00  0.00    +0.000 C 
ATOM      2  C   UNL     1      -2.525  11.014  17.306  0.00  0.00    +0.000 C 
ATOM      3  C   UNL     1      -3.900  10.877  17.971  0.00  0.00    +0.000 C 
ATOM      4  C   UNL     1      -1.474  10.059  17.865  0.00  0.00    +0.000 C 
ATOM      5  C   UNL     1      -0.864  10.811  19.046  0.00  0.00    +0.000 C 
ATOM      6  N   UNL     1      -1.384  10.278  20.294  0.00  0.00    +0.000 N 
ATOM      7  C   UNL     1      -0.466   9.474  20.933  0.00  0.00    +0.000 C 
ATOM      8  O   UNL     1      -0.768   8.675  21.804  0.00  0.00    +0.000 OA
ATOM      9  N   UNL     1       0.748   9.657  20.356  0.00  0.00    +0.000 N 
ATOM     10  C   UNL     1       0.624  10.426  19.232  0.00  0.00    +0.000 C 
ATOM     11  O   UNL     1       1.559  10.687  18.488  0.00  0.00    +0.000 OA
ATOM     12  C   UNL     1      -1.159  12.305  18.741  0.00  0.00    +0.000 C 
ATOM     13  C   UNL     1       0.073  13.141  18.372  0.00  0.00    +0.000 C 
ATOM     14  C   UNL     1      -1.902  13.046  19.863  0.00  0.00    +0.000 C 
ATOM     15  O   UNL     1      -2.021  12.331  17.571  0.00  0.00    +0.000 OA
ATOM     16  H   UNL     1      -2.366  10.141  20.504  0.00  0.00    +0.000 HD
ENDROOT
BRANCH   9  17
ATOM     17  C   UNL     1       1.970   8.972  20.737  0.00  0.00    +0.000 C 
BRANCH  17  18
ATOM     18  C   UNL     1       2.121   7.627  20.023  0.00  0.00    +0.000 C 
ATOM     19  O   UNL     1       2.417   7.565  18.833  0.00  0.00    +0.000 OA
ATOM     20  N   UNL     1       1.844   6.528  20.827  0.00  0.00    +0.000 N 
ATOM     21  H   UNL     1       1.218   6.695  21.615  0.00  0.00    +0.000 HD
BRANCH  20  22
ATOM     22  C   UNL     1       1.974   5.194  20.382  0.00  0.00    +0.000 A 
ATOM     23  C   UNL     1       0.821   4.390  20.370  0.00  0.00    +0.000 A 
ATOM     24  C   UNL     1       0.870   3.073  19.902  0.00  0.00    +0.000 A 
ATOM     25  C   UNL     1       2.091   2.556  19.511  0.00  0.00    +0.000 A 
ATOM     26  C   UNL     1       3.256   3.326  19.589  0.00  0.00    +0.000 A 
ATOM     27  C   UNL     1       3.210   4.653  19.999  0.00  0.00    +0.000 A 
ATOM     28  C   UNL     1       4.454   2.496  19.240  0.00  0.00    +0.000 C 
ATOM     29  C   UNL     1       3.804   1.353  18.447  0.00  0.00    +0.000 C 
ATOM     30  C   UNL     1       2.391   1.172  19.022  0.00  0.00    +0.000 C 
ENDBRANCH  20  22
ENDBRANCH  17  18
ENDBRANCH   9  17
TORSDOF 3
ENDMDL
MODEL 9
REMARK VINA RESULT:      -7.3      1.097      1.168
REMARK  Name = 
REMARK  7 active torsions:
REMARK  status: ('A' for Active; 'I' for Inactive)
REMARK    1  A    between atoms: C_1  and  C_2
REMARK    2  A    between atoms: C_2  and  C_3
REMARK    3  A    between atoms: N_9  and  C_10
REMARK    4  A    between atoms: C_10  and  C_11
REMARK    5  A    between atoms: N_13  and  C_14
REMARK    6  A    between atoms: C_25  and  C_26
REMARK    7  A    between atoms: C_25  and  C_27
REMARK                            x       y       z     vdW  Elec       q    Type
REMARK                         _______ _______ _______ _____ _____    ______ ____
ROOT
ATOM      1  C   UNL     1       1.253   2.770  17.861  0.00  0.00    +0.000 C 
ATOM      2  C   UNL     1       2.114   3.655  18.765  0.00  0.00    +0.000 C 
ATOM      3  C   UNL     1       2.165   3.016  20.158  0.00  0.00    +0.000 C 
ATOM      4  C   UNL     1       3.490   3.906  18.153  0.00  0.00    +0.000 C 
ATOM      5  C   UNL     1       3.886   5.291  18.661  0.00  0.00    +0.000 C 
ATOM      6  N   UNL     1       4.863   5.165  19.730  0.00  0.00    +0.000 N 
ATOM      7  C   UNL     1       6.137   5.470  19.301  0.00  0.00    +0.000 C 
ATOM      8  O   UNL     1       7.144   5.137  19.905  0.00  0.00    +0.000 OA
ATOM      9  N   UNL     1       6.054   6.079  18.092  0.00  0.00    +0.000 N 
ATOM     10  C   UNL     1       4.771   6.024  17.623  0.00  0.00    +0.000 C 
ATOM     11  O   UNL     1       4.437   6.441  16.523  0.00  0.00    +0.000 OA
ATOM     12  C   UNL     1       2.535   5.967  19.019  0.00  0.00    +0.000 C 
ATOM     13  C   UNL     1       2.122   7.111  18.084  0.00  0.00    +0.000 C 
ATOM     14  C   UNL     1       2.453   6.495  20.460  0.00  0.00    +0.000 C 
ATOM     15  O   UNL     1       1.507   4.950  18.879  0.00  0.00    +0.000 OA
ATOM     16  H   UNL     1       4.764   4.568  20.542  0.00  0.00    +0.000 HD
ENDROOT
BRANCH   9  17
ATOM     17  C   UNL     1       7.185   6.537  17.304  0.00  0.00    +0.000 C 
BRANCH  17  18
ATOM     18  C   UNL     1       7.969   7.643  18.013  0.00  0.00    +0.000 C 
ATOM     19  O   UNL     1       8.711   7.394  18.960  0.00  0.00    +0.000 OA
ATOM     20  N   UNL     1       7.717   8.918  17.521  0.00  0.00    +0.000 N 
ATOM     21  H   UNL     1       6.814   9.053  17.067  0.00  0.00    +0.000 HD
BRANCH  20  22
ATOM     22  C   UNL     1       8.375  10.073  17.997  0.00  0.00    +0.000 A 
ATOM     23  C   UNL     1       9.334   9.911  19.012  0.00  0.00    +0.000 A 
ATOM     24  C   UNL     1      10.051  11.008  19.501  0.00  0.00    +0.000 A 
ATOM     25  C   UNL     1       9.753  12.265  19.009  0.00  0.00    +0.000 A 
ATOM     26  C   UNL     1       8.750  12.444  18.052  0.00  0.00    +0.000 A 
ATOM     27  C   UNL     1       8.069  11.356  17.519  0.00  0.00    +0.000 A 
ATOM     28  C   UNL     1       8.531  13.903  17.791  0.00  0.00    +0.000 C 
ATOM     29  C   UNL     1       9.858  14.496  18.283  0.00  0.00    +0.000 C 
ATOM     30  C   UNL     1      10.354  13.577  19.411  0.00  0.00    +0.000 C 
ENDBRANCH  20  22
ENDBRANCH  17  18
ENDBRANCH   9  17
TORSDOF 3
ENDMDL
