MODEL 1
REMARK VINA RESULT:      -8.1      0.000      0.000
REMARK  Name = 
REMARK  5 active torsions:
REMARK  status: ('A' for Active; 'I' for Inactive)
REMARK    1  A    between atoms: C_2  and  C_3
REMARK    2  A    between atoms: C_3  and  N_4
REMARK    3  A    between atoms: N_4  and  C_5
REMARK    4  A    between atoms: C_7  and  N_8
REMARK    5  A    between atoms: N_17  and  C_18
REMARK                            x       y       z     vdW  Elec       q    Type
REMARK                         _______ _______ _______ _____ _____    ______ ____
ROOT
ATOM      1  N   UNL     1       2.551   2.730  20.828  0.00  0.00    +0.000 N 
ATOM      2  H   UNL     1       1.690   2.175  20.809  0.00  0.00    +0.000 HD
ENDROOT
BRANCH   1   3
ATOM      3  C   UNL     1       2.959   2.974  19.486  0.00  0.00    +0.000 A 
ATOM      4  C   UNL     1       4.266   3.369  19.163  0.00  0.00    +0.000 A 
ATOM      5  C   UNL     1       4.660   3.599  17.832  0.00  0.00    +0.000 A 
ATOM      6  C   UNL     1       3.752   3.379  16.791  0.00  0.00    +0.000 A 
ATOM      7  C   UNL     1       2.467   2.919  17.090  0.00  0.00    +0.000 A 
ATOM      8  C   UNL     1       2.087   2.713  18.417  0.00  0.00    +0.000 A 
ATOM      9  F   UNL     1       0.839   2.289  18.671  0.00  0.00    +0.000 F 
BRANCH   5  10
ATOM     10  N   UNL     1       5.979   4.052  17.580  0.00  0.00    +0.000 N 
ATOM     11  C   UNL     1       6.616   4.281  16.389  0.00  0.00    +0.000 A 
ATOM     12  N   UNL     1       7.842   4.692  16.621  0.00  0.00    +0.000 NA
ATOM     13  N   UNL     1       7.966   4.732  17.984  0.00  0.00    +0.000 NA
ATOM     14  N   UNL     1       6.844   4.354  18.576  0.00  0.00    +0.000 NA
ENDBRANCH   5  10
ENDBRANCH   1   3
BRANCH   1  15
ATOM     15  C   UNL     1       2.392   3.966  21.622  0.00  0.00    +0.000 C 
BRANCH  15  17
ATOM     16  O   UNL     1       0.519   4.887  20.484  0.00  0.00    +0.000 OA
ATOM     17  C   UNL     1       1.660   5.087  20.897  0.00  0.00    +0.000 C 
ATOM     18  N   UNL     1       2.401   6.233  20.683  0.00  0.00    +0.000 N 
ATOM     19  H   UNL     1       3.398   6.180  20.886  0.00  0.00    +0.000 HD
BRANCH  18  20
ATOM     20  C   UNL     1       1.921   7.438  20.106  0.00  0.00    +0.000 A 
ATOM     21  C   UNL     1       1.102   8.324  20.816  0.00  0.00    +0.000 A 
ATOM     22  C   UNL     1       0.679   9.531  20.254  0.00  0.00    +0.000 A 
ATOM     23  C   UNL     1       1.071   9.874  18.961  0.00  0.00    +0.000 A 
ATOM     24  C   UNL     1       1.873   9.001  18.228  0.00  0.00    +0.000 A 
ATOM     25  C   UNL     1       2.297   7.793  18.797  0.00  0.00    +0.000 A 
ATOM     26 CL   UNL     1       3.260   6.733  17.825  0.00  0.00    +0.000 Cl
ENDBRANCH  18  20
ENDBRANCH  15  17
ENDBRANCH   1  15
TORSDOF 5
ENDMDL
MODEL 2
REMARK VINA RESULT:      -7.9      1.036      1.142
REMARK  Name = 
REMARK  5 active torsions:
REMARK  status: ('A' for Active; 'I' for Inactive)
REMARK    1  A    between atoms: C_2  and  C_3
REMARK    2  A    between atoms: C_3  and  N_4
REMARK    3  A    between atoms: N_4  and  C_5
REMARK    4  A    between atoms: C_7  and  N_8
REMARK    5  A    between atoms: N_17  and  C_18
REMARK                            x       y       z     vdW  Elec       q    Type
REMARK                         _______ _______ _______ _____ _____    ______ ____
ROOT
ATOM      1  N   UNL     1       2.776   2.733  20.469  0.00  0.00    +0.000 N 
ATOM      2  H   UNL     1       1.955   2.193  20.177  0.00  0.00    +0.000 HD
ENDROOT
BRANCH   1   3
ATOM      3  C   UNL     1       3.432   3.220  19.303  0.00  0.00    +0.000 A 
ATOM      4  C   UNL     1       4.586   4.015  19.373  0.00  0.00    +0.000 A 
ATOM      5  C   UNL     1       5.230   4.484  18.213  0.00  0.00    +0.000 A 
ATOM      6  C   UNL     1       4.750   4.111  16.954  0.00  0.00    +0.000 A 
ATOM      7  C   UNL     1       3.642   3.265  16.866  0.00  0.00    +0.000 A 
ATOM      8  C   UNL     1       3.005   2.822  18.026  0.00  0.00    +0.000 A 
ATOM      9  F   UNL     1       1.931   2.025  17.907  0.00  0.00    +0.000 F 
BRANCH   5  10
ATOM     10  N   UNL     1       6.358   5.329  18.354  0.00  0.00    +0.000 N 
ATOM     11  C   UNL     1       6.760   6.394  17.591  0.00  0.00    +0.000 A 
ATOM     12  N   UNL     1       7.872   6.889  18.082  0.00  0.00    +0.000 NA
ATOM     13  N   UNL     1       8.163   6.127  19.182  0.00  0.00    +0.000 NA
ATOM     14  N   UNL     1       7.250   5.184  19.362  0.00  0.00    +0.000 NA
ENDBRANCH   5  10
ENDBRANCH   1   3
BRANCH   1  15
ATOM     15  C   UNL     1       2.419   3.801  21.427  0.00  0.00    +0.000 C 
BRANCH  15  17
ATOM     16  O   UNL     1       0.579   4.720  20.234  0.00  0.00    +0.000 OA
ATOM     17  C   UNL     1       1.638   4.955  20.814  0.00  0.00    +0.000 C 
ATOM     18  N   UNL     1       2.252   6.190  20.891  0.00  0.00    +0.000 N 
ATOM     19  H   UNL     1       3.221   6.201  21.206  0.00  0.00    +0.000 HD
BRANCH  18  20
ATOM     20  C   UNL     1       1.695   7.425  20.470  0.00  0.00    +0.000 A 
ATOM     21  C   UNL     1       0.870   8.188  21.306  0.00  0.00    +0.000 A 
ATOM     22  C   UNL     1       0.369   9.426  20.898  0.00  0.00    +0.000 A 
ATOM     23  C   UNL     1       0.686   9.926  19.636  0.00  0.00    +0.000 A 
ATOM     24  C   UNL     1       1.492   9.178  18.779  0.00  0.00    +0.000 A 
ATOM     25  C   UNL     1       1.994   7.938  19.194  0.00  0.00    +0.000 A 
ATOM     26 CL   UNL     1       2.958   7.037  18.073  0.00  0.00    +0.000 Cl
ENDBRANCH  18  20
ENDBRANCH  15  17
ENDBRANCH   1  15
TORSDOF 5
ENDMDL
MODEL 3
REMARK VINA RESULT:      -7.8      1.493      1.694
REMARK  Name = 
REMARK  5 active torsions:
REMARK  status: ('A' for Active; 'I' for Inactive)
REMARK    1  A    between atoms: C_2  and  C_3
REMARK    2  A    between atoms: C_3  and  N_4
REMARK    3  A    between atoms: N_4  and  C_5
REMARK    4  A    between atoms: C_7  and  N_8
REMARK    5  A    between atoms: N_17  and  C_18
REMARK                            x       y       z     vdW  Elec       q    Type
REMARK                         _______ _______ _______ _____ _____    ______ ____
ROOT
ATOM      1  N   UNL     1       3.252   2.999  19.965  0.00  0.00    +0.000 N 
ATOM      2  H   UNL     1       2.404   2.494  19.690  0.00  0.00    +0.000 HD
ENDROOT
BRANCH   1   3
ATOM      3  C   UNL     1       3.843   3.557  18.795  0.00  0.00    +0.000 A 
ATOM      4  C   UNL     1       4.899   4.478  18.859  0.00  0.00    +0.000 A 
ATOM      5  C   UNL     1       5.480   5.017  17.696  0.00  0.00    +0.000 A 
ATOM      6  C   UNL     1       5.040   4.591  16.439  0.00  0.00    +0.000 A 
ATOM      7  C   UNL     1       4.035   3.623  16.357  0.00  0.00    +0.000 A 
ATOM      8  C   UNL     1       3.458   3.112  17.521  0.00  0.00    +0.000 A 
ATOM      9  F   UNL     1       2.482   2.197  17.407  0.00  0.00    +0.000 F 
BRANCH   5  10
ATOM     10  N   UNL     1       6.505   5.985  17.832  0.00  0.00    +0.000 N 
ATOM     11  C   UNL     1       7.482   6.103  18.786  0.00  0.00    +0.000 A 
ATOM     12  N   UNL     1       8.221   7.158  18.528  0.00  0.00    +0.000 NA
ATOM     13  N   UNL     1       7.702   7.701  17.383  0.00  0.00    +0.000 NA
ATOM     14  N   UNL     1       6.668   6.997  16.947  0.00  0.00    +0.000 NA
ENDBRANCH   5  10
ENDBRANCH   1   3
BRANCH   1  15
ATOM     15  C   UNL     1       2.980   4.001  21.015  0.00  0.00    +0.000 C 
BRANCH  15  17
ATOM     16  O   UNL     1       0.844   4.760  20.298  0.00  0.00    +0.000 OA
ATOM     17  C   UNL     1       1.990   5.083  20.607  0.00  0.00    +0.000 C 
ATOM     18  N   UNL     1       2.510   6.361  20.532  0.00  0.00    +0.000 N 
ATOM     19  H   UNL     1       3.523   6.449  20.605  0.00  0.00    +0.000 HD
BRANCH  18  20
ATOM     20  C   UNL     1       1.776   7.544  20.255  0.00  0.00    +0.000 A 
ATOM     21  C   UNL     1       0.909   8.113  21.196  0.00  0.00    +0.000 A 
ATOM     22  C   UNL     1       0.231   9.305  20.929  0.00  0.00    +0.000 A 
ATOM     23  C   UNL     1       0.410   9.953  19.708  0.00  0.00    +0.000 A 
ATOM     24  C   UNL     1       1.255   9.396  18.749  0.00  0.00    +0.000 A 
ATOM     25  C   UNL     1       1.935   8.202  19.022  0.00  0.00    +0.000 A 
ATOM     26 CL   UNL     1       2.942   7.540  17.779  0.00  0.00    +0.000 Cl
ENDBRANCH  18  20
ENDBRANCH  15  17
ENDBRANCH   1  15
TORSDOF 5
ENDMDL
MODEL 4
REMARK VINA RESULT:      -7.6      2.514      3.646
REMARK  Name = 
REMARK  5 active torsions:
REMARK  status: ('A' for Active; 'I' for Inactive)
REMARK    1  A    between atoms: C_2  and  C_3
REMARK    2  A    between atoms: C_3  and  N_4
REMARK    3  A    between atoms: N_4  and  C_5
REMARK    4  A    between atoms: C_7  and  N_8
REMARK    5  A    between atoms: N_17  and  C_18
REMARK                            x       y       z     vdW  Elec       q    Type
REMARK                         _______ _______ _______ _____ _____    ______ ____
ROOT
ATOM      1  N   UNL     1       5.365   3.465  19.004  0.00  0.00    +0.000 N 
ATOM      2  H   UNL     1       5.937   2.623  19.128  0.00  0.00    +0.000 HD
ENDROOT
BRANCH   1   3
ATOM      3  C   UNL     1       6.067   4.365  18.154  0.00  0.00    +0.000 A 
ATOM      4  C   UNL     1       6.141   4.177  16.766  0.00  0.00    +0.000 A 
ATOM      5  C   UNL     1       6.832   5.078  15.934  0.00  0.00    +0.000 A 
ATOM      6  C   UNL     1       7.416   6.222  16.484  0.00  0.00    +0.000 A 
ATOM      7  C   UNL     1       7.292   6.462  17.856  0.00  0.00    +0.000 A 
ATOM      8  C   UNL     1       6.619   5.549  18.669  0.00  0.00    +0.000 A 
ATOM      9  F   UNL     1       6.535   5.799  19.985  0.00  0.00    +0.000 F 
BRANCH   5  10
ATOM     10  N   UNL     1       6.917   4.797  14.548  0.00  0.00    +0.000 N 
ATOM     11  C   UNL     1       6.242   3.873  13.795  0.00  0.00    +0.000 A 
ATOM     12  N   UNL     1       6.637   3.953  12.545  0.00  0.00    +0.000 NA
ATOM     13  N   UNL     1       7.568   4.957  12.516  0.00  0.00    +0.000 NA
ATOM     14  N   UNL     1       7.741   5.481  13.720  0.00  0.00    +0.000 NA
ENDBRANCH   5  10
ENDBRANCH   1   3
BRANCH   1  15
ATOM     15  C   UNL     1       4.008   3.142  18.518  0.00  0.00    +0.000 C 
BRANCH  15  17
ATOM     16  O   UNL     1       2.159   4.360  17.652  0.00  0.00    +0.000 OA
ATOM     17  C   UNL     1       3.051   4.326  18.499  0.00  0.00    +0.000 C 
ATOM     18  N   UNL     1       3.335   5.329  19.404  0.00  0.00    +0.000 N 
ATOM     19  H   UNL     1       4.227   5.267  19.893  0.00  0.00    +0.000 HD
BRANCH  18  20
ATOM     20  C   UNL     1       2.551   6.490  19.635  0.00  0.00    +0.000 A 
ATOM     21  C   UNL     1       1.720   6.610  20.756  0.00  0.00    +0.000 A 
ATOM     22  C   UNL     1       0.992   7.778  20.998  0.00  0.00    +0.000 A 
ATOM     23  C   UNL     1       1.084   8.853  20.116  0.00  0.00    +0.000 A 
ATOM     24  C   UNL     1       1.892   8.750  18.984  0.00  0.00    +0.000 A 
ATOM     25  C   UNL     1       2.622   7.579  18.747  0.00  0.00    +0.000 A 
ATOM     26 CL   UNL     1       3.578   7.497  17.307  0.00  0.00    +0.000 Cl
ENDBRANCH  18  20
ENDBRANCH  15  17
ENDBRANCH   1  15
TORSDOF 5
ENDMDL
MODEL 5
REMARK VINA RESULT:      -7.5      1.411      1.770
REMARK  Name = 
REMARK  5 active torsions:
REMARK  status: ('A' for Active; 'I' for Inactive)
REMARK    1  A    between atoms: C_2  and  C_3
REMARK    2  A    between atoms: C_3  and  N_4
REMARK    3  A    between atoms: N_4  and  C_5
REMARK    4  A    between atoms: C_7  and  N_8
REMARK    5  A    between atoms: N_17  and  C_18
REMARK                            x       y       z     vdW  Elec       q    Type
REMARK                         _______ _______ _______ _____ _____    ______ ____
ROOT
ATOM      1  N   UNL     1       3.341   3.096  21.093  0.00  0.00    +0.000 N 
ATOM      2  H   UNL     1       3.211   2.106  21.328  0.00  0.00    +0.000 HD
ENDROOT
BRANCH   1   3
ATOM      3  C   UNL     1       3.488   3.207  19.682  0.00  0.00    +0.000 A 
ATOM      4  C   UNL     1       4.482   4.005  19.095  0.00  0.00    +0.000 A 
ATOM      5  C   UNL     1       4.622   4.102  17.698  0.00  0.00    +0.000 A 
ATOM      6  C   UNL     1       3.794   3.346  16.863  0.00  0.00    +0.000 A 
ATOM      7  C   UNL     1       2.843   2.494  17.432  0.00  0.00    +0.000 A 
ATOM      8  C   UNL     1       2.706   2.423  18.819  0.00  0.00    +0.000 A 
ATOM      9  F   UNL     1       1.770   1.608  19.332  0.00  0.00    +0.000 F 
BRANCH   5  10
ATOM     10  N   UNL     1       5.610   4.970  17.171  0.00  0.00    +0.000 N 
ATOM     11  C   UNL     1       6.835   4.682  16.630  0.00  0.00    +0.000 A 
ATOM     12  N   UNL     1       7.428   5.797  16.270  0.00  0.00    +0.000 NA
ATOM     13  N   UNL     1       6.549   6.800  16.581  0.00  0.00    +0.000 NA
ATOM     14  N   UNL     1       5.441   6.313  17.120  0.00  0.00    +0.000 NA
ENDBRANCH   5  10
ENDBRANCH   1   3
BRANCH   1  15
ATOM     15  C   UNL     1       2.253   3.937  21.634  0.00  0.00    +0.000 C 
BRANCH  15  17
ATOM     16  O   UNL     1       0.733   4.716  19.981  0.00  0.00    +0.000 OA
ATOM     17  C   UNL     1       1.724   4.980  20.659  0.00  0.00    +0.000 C 
ATOM     18  N   UNL     1       2.482   6.130  20.557  0.00  0.00    +0.000 N 
ATOM     19  H   UNL     1       3.392   6.122  21.016  0.00  0.00    +0.000 HD
BRANCH  18  20
ATOM     20  C   UNL     1       2.158   7.275  19.784  0.00  0.00    +0.000 A 
ATOM     21  C   UNL     1       2.491   7.371  18.428  0.00  0.00    +0.000 A 
ATOM     22  C   UNL     1       2.122   8.482  17.666  0.00  0.00    +0.000 A 
ATOM     23  C   UNL     1       1.407   9.524  18.253  0.00  0.00    +0.000 A 
ATOM     24  C   UNL     1       1.077   9.459  19.606  0.00  0.00    +0.000 A 
ATOM     25  C   UNL     1       1.447   8.342  20.365  0.00  0.00    +0.000 A 
ATOM     26 CL   UNL     1       1.043   8.335  22.048  0.00  0.00    +0.000 Cl
ENDBRANCH  18  20
ENDBRANCH  15  17
ENDBRANCH   1  15
TORSDOF 5
ENDMDL
MODEL 6
REMARK VINA RESULT:      -7.5      1.894      2.287
REMARK  Name = 
REMARK  5 active torsions:
REMARK  status: ('A' for Active; 'I' for Inactive)
REMARK    1  A    between atoms: C_2  and  C_3
REMARK    2  A    between atoms: C_3  and  N_4
REMARK    3  A    between atoms: N_4  and  C_5
REMARK    4  A    between atoms: C_7  and  N_8
REMARK    5  A    between atoms: N_17  and  C_18
REMARK                            x       y       z     vdW  Elec       q    Type
REMARK                         _______ _______ _______ _____ _____    ______ ____
ROOT
ATOM      1  N   UNL     1       3.732   2.995  20.347  0.00  0.00    +0.000 N 
ATOM      2  H   UNL     1       3.586   1.985  20.245  0.00  0.00    +0.000 HD
ENDROOT
BRANCH   1   3
ATOM      3  C   UNL     1       4.215   3.508  19.110  0.00  0.00    +0.000 A 
ATOM      4  C   UNL     1       5.182   4.522  19.049  0.00  0.00    +0.000 A 
ATOM      5  C   UNL     1       5.657   5.016  17.820  0.00  0.00    +0.000 A 
ATOM      6  C   UNL     1       5.203   4.453  16.623  0.00  0.00    +0.000 A 
ATOM      7  C   UNL     1       4.290   3.395  16.668  0.00  0.00    +0.000 A 
ATOM      8  C   UNL     1       3.816   2.929  17.895  0.00  0.00    +0.000 A 
ATOM      9  F   UNL     1       2.926   1.924  17.901  0.00  0.00    +0.000 F 
BRANCH   5  10
ATOM     10  N   UNL     1       6.592   6.081  17.828  0.00  0.00    +0.000 N 
ATOM     11  C   UNL     1       7.624   6.336  18.692  0.00  0.00    +0.000 A 
ATOM     12  N   UNL     1       8.236   7.440  18.328  0.00  0.00    +0.000 NA
ATOM     13  N   UNL     1       7.580   7.874  17.207  0.00  0.00    +0.000 NA
ATOM     14  N   UNL     1       6.588   7.056  16.889  0.00  0.00    +0.000 NA
ENDBRANCH   5  10
ENDBRANCH   1   3
BRANCH   1  15
ATOM     15  C   UNL     1       2.515   3.681  20.828  0.00  0.00    +0.000 C 
BRANCH  15  17
ATOM     16  O   UNL     1       1.240   4.563  19.025  0.00  0.00    +0.000 OA
ATOM     17  C   UNL     1       2.037   4.813  19.928  0.00  0.00    +0.000 C 
ATOM     18  N   UNL     1       2.630   6.039  20.158  0.00  0.00    +0.000 N 
ATOM     19  H   UNL     1       3.428   6.051  20.792  0.00  0.00    +0.000 HD
BRANCH  18  20
ATOM     20  C   UNL     1       2.298   7.258  19.512  0.00  0.00    +0.000 A 
ATOM     21  C   UNL     1       2.737   7.551  18.215  0.00  0.00    +0.000 A 
ATOM     22  C   UNL     1       2.362   8.732  17.571  0.00  0.00    +0.000 A 
ATOM     23  C   UNL     1       1.536   9.649  18.219  0.00  0.00    +0.000 A 
ATOM     24  C   UNL     1       1.100   9.387  19.517  0.00  0.00    +0.000 A 
ATOM     25  C   UNL     1       1.476   8.200  20.158  0.00  0.00    +0.000 A 
ATOM     26 CL   UNL     1       0.935   7.949  21.783  0.00  0.00    +0.000 Cl
ENDBRANCH  18  20
ENDBRANCH  15  17
ENDBRANCH   1  15
TORSDOF 5
ENDMDL
MODEL 7
REMARK VINA RESULT:      -7.4      1.017      1.147
REMARK  Name = 
REMARK  5 active torsions:
REMARK  status: ('A' for Active; 'I' for Inactive)
REMARK    1  A    between atoms: C_2  and  C_3
REMARK    2  A    between atoms: C_3  and  N_4
REMARK    3  A    between atoms: N_4  and  C_5
REMARK    4  A    between atoms: C_7  and  N_8
REMARK    5  A    between atoms: N_17  and  C_18
REMARK                            x       y       z     vdW  Elec       q    Type
REMARK                         _______ _______ _______ _____ _____    ______ ____
ROOT
ATOM      1  N   UNL     1       3.625   3.222  20.957  0.00  0.00    +0.000 N 
ATOM      2  H   UNL     1       3.978   2.329  21.316  0.00  0.00    +0.000 HD
ENDROOT
BRANCH   1   3
ATOM      3  C   UNL     1       3.782   3.231  19.542  0.00  0.00    +0.000 A 
ATOM      4  C   UNL     1       4.805   3.953  18.909  0.00  0.00    +0.000 A 
ATOM      5  C   UNL     1       4.955   3.949  17.509  0.00  0.00    +0.000 A 
ATOM      6  C   UNL     1       4.104   3.165  16.723  0.00  0.00    +0.000 A 
ATOM      7  C   UNL     1       3.123   2.386  17.343  0.00  0.00    +0.000 A 
ATOM      8  C   UNL     1       2.977   2.416  18.730  0.00  0.00    +0.000 A 
ATOM      9  F   UNL     1       2.013   1.670  19.292  0.00  0.00    +0.000 F 
BRANCH   5  10
ATOM     10  N   UNL     1       5.973   4.745  16.930  0.00  0.00    +0.000 N 
ATOM     11  C   UNL     1       6.445   5.976  17.304  0.00  0.00    +0.000 A 
ATOM     12  N   UNL     1       7.396   6.349  16.478  0.00  0.00    +0.000 NA
ATOM     13  N   UNL     1       7.528   5.324  15.580  0.00  0.00    +0.000 NA
ATOM     14  N   UNL     1       6.678   4.344  15.847  0.00  0.00    +0.000 NA
ENDBRANCH   5  10
ENDBRANCH   1   3
BRANCH   1  15
ATOM     15  C   UNL     1       2.237   3.481  21.391  0.00  0.00    +0.000 C 
BRANCH  15  17
ATOM     16  O   UNL     1       0.583   4.521  20.036  0.00  0.00    +0.000 OA
ATOM     17  C   UNL     1       1.588   4.687  20.727  0.00  0.00    +0.000 C 
ATOM     18  N   UNL     1       2.257   5.883  20.892  0.00  0.00    +0.000 N 
ATOM     19  H   UNL     1       3.188   5.835  21.305  0.00  0.00    +0.000 HD
BRANCH  18  20
ATOM     20  C   UNL     1       1.815   7.155  20.442  0.00  0.00    +0.000 A 
ATOM     21  C   UNL     1       1.121   8.036  21.280  0.00  0.00    +0.000 A 
ATOM     22  C   UNL     1       0.735   9.304  20.840  0.00  0.00    +0.000 A 
ATOM     23  C   UNL     1       1.039   9.716  19.544  0.00  0.00    +0.000 A 
ATOM     24  C   UNL     1       1.714   8.850  18.685  0.00  0.00    +0.000 A 
ATOM     25  C   UNL     1       2.101   7.580  19.131  0.00  0.00    +0.000 A 
ATOM     26 CL   UNL     1       2.904   6.536  18.008  0.00  0.00    +0.000 Cl
ENDBRANCH  18  20
ENDBRANCH  15  17
ENDBRANCH   1  15
TORSDOF 5
ENDMDL
MODEL 8
REMARK VINA RESULT:      -7.3      2.539      3.420
REMARK  Name = 
REMARK  5 active torsions:
REMARK  status: ('A' for Active; 'I' for Inactive)
REMARK    1  A    between atoms: C_2  and  C_3
REMARK    2  A    between atoms: C_3  and  N_4
REMARK    3  A    between atoms: N_4  and  C_5
REMARK    4  A    between atoms: C_7  and  N_8
REMARK    5  A    between atoms: N_17  and  C_18
REMARK                            x       y       z     vdW  Elec       q    Type
REMARK                         _______ _______ _______ _____ _____    ______ ____
ROOT
ATOM      1  N   UNL     1       2.338   6.706  20.083  0.00  0.00    +0.000 N 
ATOM      2  H   UNL     1       1.431   6.475  20.503  0.00  0.00    +0.000 HD
ENDROOT
BRANCH   1   3
ATOM      3  C   UNL     1       2.926   5.506  19.595  0.00  0.00    +0.000 A 
ATOM      4  C   UNL     1       4.194   5.486  18.995  0.00  0.00    +0.000 A 
ATOM      5  C   UNL     1       4.769   4.292  18.522  0.00  0.00    +0.000 A 
ATOM      6  C   UNL     1       4.095   3.080  18.698  0.00  0.00    +0.000 A 
ATOM      7  C   UNL     1       2.861   3.072  19.354  0.00  0.00    +0.000 A 
ATOM      8  C   UNL     1       2.297   4.268  19.802  0.00  0.00    +0.000 A 
ATOM      9  F   UNL     1       1.102   4.227  20.412  0.00  0.00    +0.000 F 
BRANCH   5  10
ATOM     10  N   UNL     1       6.028   4.351  17.875  0.00  0.00    +0.000 N 
ATOM     11  C   UNL     1       6.328   4.380  16.538  0.00  0.00    +0.000 A 
ATOM     12  N   UNL     1       7.632   4.429  16.384  0.00  0.00    +0.000 NA
ATOM     13  N   UNL     1       8.154   4.446  17.650  0.00  0.00    +0.000 NA
ATOM     14  N   UNL     1       7.194   4.407  18.561  0.00  0.00    +0.000 NA
ENDBRANCH   5  10
ENDBRANCH   1   3
BRANCH   1  15
ATOM     15  C   UNL     1       2.214   7.757  19.052  0.00  0.00    +0.000 C 
BRANCH  15  17
ATOM     16  O   UNL     1       1.083   9.069  20.680  0.00  0.00    +0.000 OA
ATOM     17  C   UNL     1       1.491   9.012  19.521  0.00  0.00    +0.000 C 
ATOM     18  N   UNL     1       1.272   9.966  18.547  0.00  0.00    +0.000 N 
ATOM     19  H   UNL     1       1.472   9.694  17.585  0.00  0.00    +0.000 HD
BRANCH  18  20
ATOM     20  C   UNL     1       0.696  11.247  18.750  0.00  0.00    +0.000 A 
ATOM     21  C   UNL     1       1.470  12.358  19.108  0.00  0.00    +0.000 A 
ATOM     22  C   UNL     1       0.898  13.624  19.256  0.00  0.00    +0.000 A 
ATOM     23  C   UNL     1      -0.468  13.802  19.045  0.00  0.00    +0.000 A 
ATOM     24  C   UNL     1      -1.262  12.708  18.704  0.00  0.00    +0.000 A 
ATOM     25  C   UNL     1      -0.684  11.441  18.555  0.00  0.00    +0.000 A 
ATOM     26 CL   UNL     1      -1.726  10.115  18.166  0.00  0.00    +0.000 Cl
ENDBRANCH  18  20
ENDBRANCH  15  17
ENDBRANCH   1  15
TORSDOF 5
ENDMDL
MODEL 9
REMARK VINA RESULT:      -7.3      3.298      6.610
REMARK  Name = 
REMARK  5 active torsions:
REMARK  status: ('A' for Active; 'I' for Inactive)
REMARK    1  A    between atoms: C_2  and  C_3
REMARK    2  A    between atoms: C_3  and  N_4
REMARK    3  A    between atoms: N_4  and  C_5
REMARK    4  A    between atoms: C_7  and  N_8
REMARK    5  A    between atoms: N_17  and  C_18
REMARK                            x       y       z     vdW  Elec       q    Type
REMARK                         _______ _______ _______ _____ _____    ______ ____
ROOT
ATOM      1  N   UNL     1       5.938   4.563  19.320  0.00  0.00    +0.000 N 
ATOM      2  H   UNL     1       6.003   4.654  20.339  0.00  0.00    +0.000 HD
ENDROOT
BRANCH   1   3
ATOM      3  C   UNL     1       4.593   4.818  18.930  0.00  0.00    +0.000 A 
ATOM      4  C   UNL     1       4.079   6.119  18.826  0.00  0.00    +0.000 A 
ATOM      5  C   UNL     1       2.749   6.358  18.433  0.00  0.00    +0.000 A 
ATOM      6  C   UNL     1       1.926   5.285  18.080  0.00  0.00    +0.000 A 
ATOM      7  C   UNL     1       2.443   3.987  18.111  0.00  0.00    +0.000 A 
ATOM      8  C   UNL     1       3.758   3.766  18.521  0.00  0.00    +0.000 A 
ATOM      9  F   UNL     1       4.218   2.504  18.557  0.00  0.00    +0.000 F 
BRANCH   5  10
ATOM     10  N   UNL     1       2.277   7.694  18.404  0.00  0.00    +0.000 N 
ATOM     11  C   UNL     1       1.589   8.403  19.353  0.00  0.00    +0.000 A 
ATOM     12  N   UNL     1       1.346   9.613  18.905  0.00  0.00    +0.000 NA
ATOM     13  N   UNL     1       1.906   9.663  17.656  0.00  0.00    +0.000 NA
ATOM     14  N   UNL     1       2.479   8.511  17.344  0.00  0.00    +0.000 NA
ENDBRANCH   5  10
ENDBRANCH   1   3
BRANCH   1  15
ATOM     15  C   UNL     1       6.919   5.424  18.627  0.00  0.00    +0.000 C 
BRANCH  15  17
ATOM     16  O   UNL     1       8.319   4.165  17.174  0.00  0.00    +0.000 OA
ATOM     17  C   UNL     1       7.345   4.912  17.258  0.00  0.00    +0.000 C 
ATOM     18  N   UNL     1       6.631   5.420  16.190  0.00  0.00    +0.000 N 
ATOM     19  H   UNL     1       5.996   6.192  16.389  0.00  0.00    +0.000 HD
BRANCH  18  20
ATOM     20  C   UNL     1       6.781   5.039  14.831  0.00  0.00    +0.000 A 
ATOM     21  C   UNL     1       7.771   5.595  14.012  0.00  0.00    +0.000 A 
ATOM     22  C   UNL     1       7.941   5.175  12.691  0.00  0.00    +0.000 A 
ATOM     23  C   UNL     1       7.115   4.184  12.162  0.00  0.00    +0.000 A 
ATOM     24  C   UNL     1       6.111   3.628  12.953  0.00  0.00    +0.000 A 
ATOM     25  C   UNL     1       5.946   4.050  14.278  0.00  0.00    +0.000 A 
ATOM     26 CL   UNL     1       4.659   3.350  15.198  0.00  0.00    +0.000 Cl
ENDBRANCH  18  20
ENDBRANCH  15  17
ENDBRANCH   1  15
TORSDOF 5
ENDMDL
