MODEL 1
REMARK VINA RESULT:      -7.1      0.000      0.000
REMARK  Name = 
REMARK  5 active torsions:
REMARK  status: ('A' for Active; 'I' for Inactive)
REMARK    1  A    between atoms: C_1  and  O_2
REMARK    2  A    between atoms: O_2  and  C_3
REMARK    3  A    between atoms: C_6  and  C_7
REMARK    4  A    between atoms: C_17  and  C_18
REMARK    5  A    between atoms: C_20  and  C_21
REMARK                            x       y       z     vdW  Elec       q    Type
REMARK                         _______ _______ _______ _____ _____    ______ ____
ROOT
ATOM      1  C   UNL     1       0.386  12.513  19.799  0.00  0.00    +0.000 C 
ATOM      2  C   UNL     1      -0.454  13.151  20.935  0.00  0.00    +0.000 C 
ATOM      3  C   UNL     1      -0.666  12.351  22.209  0.00  0.00    +0.000 C 
ATOM      4  O   UNL     1      -1.194  12.862  23.195  0.00  0.00    +0.000 OA
ATOM      5  C   UNL     1      -0.292  10.962  22.192  0.00  0.00    +0.000 A 
ATOM      6  C   UNL     1      -0.468   9.944  23.134  0.00  0.00    +0.000 A 
ATOM      7  N   UNL     1       0.005   8.770  22.712  0.00  0.00    +0.000 NA
ATOM      8  N   UNL     1       0.536   9.026  21.474  0.00  0.00    +0.000 N 
ATOM      9  C   UNL     1       1.209   8.012  20.704  0.00  0.00    +0.000 A 
ATOM     10  N   UNL     1       1.221   6.742  21.168  0.00  0.00    +0.000 NA
ATOM     11  C   UNL     1       1.871   5.821  20.429  0.00  0.00    +0.000 A 
ATOM     12  C   UNL     1       1.856   4.409  20.928  0.00  0.00    +0.000 C 
ATOM     13  C   UNL     1       2.534   6.139  19.258  0.00  0.00    +0.000 A 
ATOM     14  C   UNL     1       2.482   7.455  18.856  0.00  0.00    +0.000 A 
ATOM     15  C   UNL     1       3.178   7.929  17.618  0.00  0.00    +0.000 C 
ATOM     16  N   UNL     1       1.814   8.391  19.556  0.00  0.00    +0.000 NA
ATOM     17  C   UNL     1       0.329  10.359  21.127  0.00  0.00    +0.000 A 
ATOM     18  C   UNL     1       0.659  10.990  19.826  0.00  0.00    +0.000 C 
ENDROOT
BRANCH   1  22
ATOM     19  C   UNL     1       4.109  14.670  19.239  0.00  0.00    +0.000 A 
ATOM     20  C   UNL     1       3.379  14.233  18.132  0.00  0.00    +0.000 A 
ATOM     21  C   UNL     1       2.171  13.551  18.296  0.00  0.00    +0.000 A 
ATOM     22  C   UNL     1       1.688  13.275  19.581  0.00  0.00    +0.000 A 
ATOM     23  C   UNL     1       2.423  13.723  20.690  0.00  0.00    +0.000 A 
ATOM     24  C   UNL     1       3.626  14.414  20.520  0.00  0.00    +0.000 A 
BRANCH  19  26
ATOM     25  C   UNL     1       6.043  14.741  17.877  0.00  0.00    +0.000 C 
ATOM     26  O   UNL     1       5.291  15.294  18.949  0.00  0.00    +0.000 OA
ENDBRANCH  19  26
ENDBRANCH   1  22
TORSDOF 2
ENDMDL
MODEL 2
REMARK VINA RESULT:      -6.9      0.822      1.028
REMARK  Name = 
REMARK  5 active torsions:
REMARK  status: ('A' for Active; 'I' for Inactive)
REMARK    1  A    between atoms: C_1  and  O_2
REMARK    2  A    between atoms: O_2  and  C_3
REMARK    3  A    between atoms: C_6  and  C_7
REMARK    4  A    between atoms: C_17  and  C_18
REMARK    5  A    between atoms: C_20  and  C_21
REMARK                            x       y       z     vdW  Elec       q    Type
REMARK                         _______ _______ _______ _____ _____    ______ ____
ROOT
ATOM      1  C   UNL     1      -0.210  12.531  19.532  0.00  0.00    +0.000 C 
ATOM      2  C   UNL     1      -1.034  13.167  20.681  0.00  0.00    +0.000 C 
ATOM      3  C   UNL     1      -1.079  12.445  22.018  0.00  0.00    +0.000 C 
ATOM      4  O   UNL     1      -1.589  12.975  23.003  0.00  0.00    +0.000 OA
ATOM      5  C   UNL     1      -0.568  11.101  22.065  0.00  0.00    +0.000 A 
ATOM      6  C   UNL     1      -0.578  10.144  23.084  0.00  0.00    +0.000 A 
ATOM      7  N   UNL     1      -0.017   8.992  22.708  0.00  0.00    +0.000 NA
ATOM      8  N   UNL     1       0.402   9.207  21.420  0.00  0.00    +0.000 N 
ATOM      9  C   UNL     1       1.123   8.209  20.672  0.00  0.00    +0.000 A 
ATOM     10  N   UNL     1       1.294   6.984  21.217  0.00  0.00    +0.000 NA
ATOM     11  C   UNL     1       1.984   6.078  20.497  0.00  0.00    +0.000 A 
ATOM     12  C   UNL     1       2.144   4.711  21.088  0.00  0.00    +0.000 C 
ATOM     13  C   UNL     1       2.532   6.371  19.261  0.00  0.00    +0.000 A 
ATOM     14  C   UNL     1       2.321   7.643  18.778  0.00  0.00    +0.000 A 
ATOM     15  C   UNL     1       2.882   8.089  17.463  0.00  0.00    +0.000 C 
ATOM     16  N   UNL     1       1.609   8.559  19.461  0.00  0.00    +0.000 NA
ATOM     17  C   UNL     1       0.039  10.485  21.001  0.00  0.00    +0.000 A 
ATOM     18  C   UNL     1       0.217  11.047  19.640  0.00  0.00    +0.000 C 
ENDROOT
BRANCH   1  22
ATOM     19  C   UNL     1       3.229  14.950  18.460  0.00  0.00    +0.000 A 
ATOM     20  C   UNL     1       2.129  15.536  19.089  0.00  0.00    +0.000 A 
ATOM     21  C   UNL     1       1.021  14.768  19.454  0.00  0.00    +0.000 A 
ATOM     22  C   UNL     1       0.991  13.397  19.169  0.00  0.00    +0.000 A 
ATOM     23  C   UNL     1       2.103  12.812  18.543  0.00  0.00    +0.000 A 
ATOM     24  C   UNL     1       3.213  13.584  18.190  0.00  0.00    +0.000 A 
BRANCH  19  26
ATOM     25  C   UNL     1       5.535  15.246  18.017  0.00  0.00    +0.000 C 
ATOM     26  O   UNL     1       4.235  15.812  18.122  0.00  0.00    +0.000 OA
ENDBRANCH  19  26
ENDBRANCH   1  22
TORSDOF 2
ENDMDL
MODEL 3
REMARK VINA RESULT:      -6.6      4.196      6.625
REMARK  Name = 
REMARK  5 active torsions:
REMARK  status: ('A' for Active; 'I' for Inactive)
REMARK    1  A    between atoms: C_1  and  O_2
REMARK    2  A    between atoms: O_2  and  C_3
REMARK    3  A    between atoms: C_6  and  C_7
REMARK    4  A    between atoms: C_17  and  C_18
REMARK    5  A    between atoms: C_20  and  C_21
REMARK                            x       y       z     vdW  Elec       q    Type
REMARK                         _______ _______ _______ _____ _____    ______ ____
ROOT
ATOM      1  C   UNL     1       0.820  11.857  19.091  0.00  0.00    +0.000 C 
ATOM      2  C   UNL     1       1.445  12.674  20.250  0.00  0.00    +0.000 C 
ATOM      3  C   UNL     1       0.515  13.247  21.308  0.00  0.00    +0.000 C 
ATOM      4  O   UNL     1       0.965  13.773  22.324  0.00  0.00    +0.000 OA
ATOM      5  C   UNL     1      -0.898  13.213  21.040  0.00  0.00    +0.000 A 
ATOM      6  C   UNL     1      -1.984  13.756  21.733  0.00  0.00    +0.000 A 
ATOM      7  N   UNL     1      -3.148  13.518  21.124  0.00  0.00    +0.000 NA
ATOM      8  N   UNL     1      -2.825  12.773  20.020  0.00  0.00    +0.000 N 
ATOM      9  C   UNL     1      -3.827  12.256  19.124  0.00  0.00    +0.000 A 
ATOM     10  N   UNL     1      -5.117  12.610  19.316  0.00  0.00    +0.000 NA
ATOM     11  C   UNL     1      -6.031  12.099  18.468  0.00  0.00    +0.000 A 
ATOM     12  C   UNL     1      -7.456  12.518  18.662  0.00  0.00    +0.000 C 
ATOM     13  C   UNL     1      -5.695  11.221  17.453  0.00  0.00    +0.000 A 
ATOM     14  C   UNL     1      -4.361  10.903  17.327  0.00  0.00    +0.000 A 
ATOM     15  C   UNL     1      -3.874   9.947  16.282  0.00  0.00    +0.000 C 
ATOM     16  N   UNL     1      -3.422  11.424  18.139  0.00  0.00    +0.000 NA
ATOM     17  C   UNL     1      -1.444  12.608  19.937  0.00  0.00    +0.000 A 
ATOM     18  C   UNL     1      -0.702  11.958  18.829  0.00  0.00    +0.000 C 
ENDROOT
BRANCH   1  22
ATOM     19  C   UNL     1       2.064   7.702  19.225  0.00  0.00    +0.000 A 
ATOM     20  C   UNL     1       1.473   8.293  20.344  0.00  0.00    +0.000 A 
ATOM     21  C   UNL     1       1.053   9.624  20.310  0.00  0.00    +0.000 A 
ATOM     22  C   UNL     1       1.245  10.394  19.156  0.00  0.00    +0.000 A 
ATOM     23  C   UNL     1       1.834   9.792  18.033  0.00  0.00    +0.000 A 
ATOM     24  C   UNL     1       2.242   8.456  18.068  0.00  0.00    +0.000 A 
BRANCH  19  26
ATOM     25  C   UNL     1       1.834   5.690  20.449  0.00  0.00    +0.000 C 
ATOM     26  O   UNL     1       2.463   6.405  19.393  0.00  0.00    +0.000 OA
ENDBRANCH  19  26
ENDBRANCH   1  22
TORSDOF 2
ENDMDL
MODEL 4
REMARK VINA RESULT:      -6.6      4.107      6.562
REMARK  Name = 
REMARK  5 active torsions:
REMARK  status: ('A' for Active; 'I' for Inactive)
REMARK    1  A    between atoms: C_1  and  O_2
REMARK    2  A    between atoms: O_2  and  C_3
REMARK    3  A    between atoms: C_6  and  C_7
REMARK    4  A    between atoms: C_17  and  C_18
REMARK    5  A    between atoms: C_20  and  C_21
REMARK                            x       y       z     vdW  Elec       q    Type
REMARK                         _______ _______ _______ _____ _____    ______ ____
ROOT
ATOM      1  C   UNL     1       0.999  11.689  18.911  0.00  0.00    +0.000 C 
ATOM      2  C   UNL     1       1.725  12.579  19.951  0.00  0.00    +0.000 C 
ATOM      3  C   UNL     1       0.890  13.262  21.021  0.00  0.00    +0.000 C 
ATOM      4  O   UNL     1       1.424  13.855  21.956  0.00  0.00    +0.000 OA
ATOM      5  C   UNL     1      -0.540  13.248  20.859  0.00  0.00    +0.000 A 
ATOM      6  C   UNL     1      -1.559  13.876  21.580  0.00  0.00    +0.000 A 
ATOM      7  N   UNL     1      -2.770  13.624  21.077  0.00  0.00    +0.000 NA
ATOM      8  N   UNL     1      -2.546  12.783  20.019  0.00  0.00    +0.000 N 
ATOM      9  C   UNL     1      -3.623  12.225  19.242  0.00  0.00    +0.000 A 
ATOM     10  N   UNL     1      -4.887  12.630  19.495  0.00  0.00    +0.000 NA
ATOM     11  C   UNL     1      -5.872  12.079  18.759  0.00  0.00    +0.000 A 
ATOM     12  C   UNL     1      -7.269  12.553  19.019  0.00  0.00    +0.000 C 
ATOM     13  C   UNL     1      -5.632  11.112  17.800  0.00  0.00    +0.000 A 
ATOM     14  C   UNL     1      -4.319  10.747  17.606  0.00  0.00    +0.000 A 
ATOM     15  C   UNL     1      -3.932   9.695  16.612  0.00  0.00    +0.000 C 
ATOM     16  N   UNL     1      -3.311  11.304  18.303  0.00  0.00    +0.000 NA
ATOM     17  C   UNL     1      -1.179  12.572  19.851  0.00  0.00    +0.000 A 
ATOM     18  C   UNL     1      -0.536  11.813  18.751  0.00  0.00    +0.000 C 
ENDROOT
BRANCH   1  22
ATOM     19  C   UNL     1       2.082   7.517  19.404  0.00  0.00    +0.000 A 
ATOM     20  C   UNL     1       2.317   8.162  18.188  0.00  0.00    +0.000 A 
ATOM     21  C   UNL     1       1.988   9.509  18.020  0.00  0.00    +0.000 A 
ATOM     22  C   UNL     1       1.393  10.224  19.066  0.00  0.00    +0.000 A 
ATOM     23  C   UNL     1       1.166   9.571  20.288  0.00  0.00    +0.000 A 
ATOM     24  C   UNL     1       1.507   8.226  20.454  0.00  0.00    +0.000 A 
BRANCH  19  26
ATOM     25  C   UNL     1       1.884   5.436  20.515  0.00  0.00    +0.000 C 
ATOM     26  O   UNL     1       2.416   6.190  19.433  0.00  0.00    +0.000 OA
ENDBRANCH  19  26
ENDBRANCH   1  22
TORSDOF 2
ENDMDL
MODEL 5
REMARK VINA RESULT:      -6.6      4.965      7.322
REMARK  Name = 
REMARK  5 active torsions:
REMARK  status: ('A' for Active; 'I' for Inactive)
REMARK    1  A    between atoms: C_1  and  O_2
REMARK    2  A    between atoms: O_2  and  C_3
REMARK    3  A    between atoms: C_6  and  C_7
REMARK    4  A    between atoms: C_17  and  C_18
REMARK    5  A    between atoms: C_20  and  C_21
REMARK                            x       y       z     vdW  Elec       q    Type
REMARK                         _______ _______ _______ _____ _____    ______ ____
ROOT
ATOM      1  C   UNL     1      -1.790  10.515  18.265  0.00  0.00    +0.000 C 
ATOM      2  C   UNL     1      -2.158  10.255  16.782  0.00  0.00    +0.000 C 
ATOM      3  C   UNL     1      -3.403  10.923  16.222  0.00  0.00    +0.000 C 
ATOM      4  O   UNL     1      -3.660  10.874  15.021  0.00  0.00    +0.000 OA
ATOM      5  C   UNL     1      -4.299  11.550  17.158  0.00  0.00    +0.000 A 
ATOM      6  C   UNL     1      -5.559  12.129  16.985  0.00  0.00    +0.000 A 
ATOM      7  N   UNL     1      -6.075  12.580  18.131  0.00  0.00    +0.000 NA
ATOM      8  N   UNL     1      -5.117  12.321  19.077  0.00  0.00    +0.000 N 
ATOM      9  C   UNL     1      -5.270  12.720  20.452  0.00  0.00    +0.000 A 
ATOM     10  N   UNL     1      -6.442  13.268  20.845  0.00  0.00    +0.000 NA
ATOM     11  C   UNL     1      -6.547  13.641  22.136  0.00  0.00    +0.000 A 
ATOM     12  C   UNL     1      -7.858  14.218  22.577  0.00  0.00    +0.000 C 
ATOM     13  C   UNL     1      -5.505  13.512  23.036  0.00  0.00    +0.000 A 
ATOM     14  C   UNL     1      -4.341  12.952  22.557  0.00  0.00    +0.000 A 
ATOM     15  C   UNL     1      -3.134  12.779  23.427  0.00  0.00    +0.000 C 
ATOM     16  N   UNL     1      -4.218  12.540  21.281  0.00  0.00    +0.000 NA
ATOM     17  C   UNL     1      -4.036  11.658  18.500  0.00  0.00    +0.000 A 
ATOM     18  C   UNL     1      -2.857  11.113  19.214  0.00  0.00    +0.000 C 
ENDROOT
BRANCH   1  22
ATOM     19  C   UNL     1       1.949  12.692  18.576  0.00  0.00    +0.000 A 
ATOM     20  C   UNL     1       0.738  13.384  18.535  0.00  0.00    +0.000 A 
ATOM     21  C   UNL     1      -0.475  12.697  18.451  0.00  0.00    +0.000 A 
ATOM     22  C   UNL     1      -0.487  11.298  18.381  0.00  0.00    +0.000 A 
ATOM     23  C   UNL     1       0.734  10.608  18.430  0.00  0.00    +0.000 A 
ATOM     24  C   UNL     1       1.944  11.301  18.525  0.00  0.00    +0.000 A 
BRANCH  19  26
ATOM     25  C   UNL     1       3.059  14.519  19.592  0.00  0.00    +0.000 C 
ATOM     26  O   UNL     1       3.068  13.479  18.624  0.00  0.00    +0.000 OA
ENDBRANCH  19  26
ENDBRANCH   1  22
TORSDOF 2
ENDMDL
MODEL 6
REMARK VINA RESULT:      -6.5      4.283      6.491
REMARK  Name = 
REMARK  5 active torsions:
REMARK  status: ('A' for Active; 'I' for Inactive)
REMARK    1  A    between atoms: C_1  and  O_2
REMARK    2  A    between atoms: O_2  and  C_3
REMARK    3  A    between atoms: C_6  and  C_7
REMARK    4  A    between atoms: C_17  and  C_18
REMARK    5  A    between atoms: C_20  and  C_21
REMARK                            x       y       z     vdW  Elec       q    Type
REMARK                         _______ _______ _______ _____ _____    ______ ____
ROOT
ATOM      1  C   UNL     1       0.752  11.579  19.579  0.00  0.00    +0.000 C 
ATOM      2  C   UNL     1       1.038  12.125  21.001  0.00  0.00    +0.000 C 
ATOM      3  C   UNL     1      -0.145  12.473  21.889  0.00  0.00    +0.000 C 
ATOM      4  O   UNL     1       0.019  12.766  23.072  0.00  0.00    +0.000 OA
ATOM      5  C   UNL     1      -1.446  12.515  21.277  0.00  0.00    +0.000 A 
ATOM      6  C   UNL     1      -2.690  12.913  21.775  0.00  0.00    +0.000 A 
ATOM      7  N   UNL     1      -3.658  12.825  20.860  0.00  0.00    +0.000 NA
ATOM      8  N   UNL     1      -3.043  12.326  19.741  0.00  0.00    +0.000 N 
ATOM      9  C   UNL     1      -3.773  12.023  18.536  0.00  0.00    +0.000 A 
ATOM     10  N   UNL     1      -5.084  12.345  18.470  0.00  0.00    +0.000 NA
ATOM     11  C   UNL     1      -5.739  12.037  17.333  0.00  0.00    +0.000 A 
ATOM     12  C   UNL     1      -7.184  12.424  17.249  0.00  0.00    +0.000 C 
ATOM     13  C   UNL     1      -5.129  11.389  16.275  0.00  0.00    +0.000 A 
ATOM     14  C   UNL     1      -3.793  11.087  16.422  0.00  0.00    +0.000 A 
ATOM     15  C   UNL     1      -3.026  10.368  15.356  0.00  0.00    +0.000 C 
ATOM     16  N   UNL     1      -3.105  11.412  17.532  0.00  0.00    +0.000 NA
ATOM     17  C   UNL     1      -1.679  12.164  19.971  0.00  0.00    +0.000 A 
ATOM     18  C   UNL     1      -0.662  11.753  18.973  0.00  0.00    +0.000 C 
ENDROOT
BRANCH   1  22
ATOM     19  C   UNL     1       2.012   7.441  19.240  0.00  0.00    +0.000 A 
ATOM     20  C   UNL     1       2.098   8.292  18.137  0.00  0.00    +0.000 A 
ATOM     21  C   UNL     1       1.711   9.630  18.234  0.00  0.00    +0.000 A 
ATOM     22  C   UNL     1       1.206  10.130  19.441  0.00  0.00    +0.000 A 
ATOM     23  C   UNL     1       1.128   9.271  20.549  0.00  0.00    +0.000 A 
ATOM     24  C   UNL     1       1.527   7.936  20.448  0.00  0.00    +0.000 A 
BRANCH  19  26
ATOM     25  C   UNL     1       3.711   5.801  19.399  0.00  0.00    +0.000 C 
ATOM     26  O   UNL     1       2.388   6.146  19.009  0.00  0.00    +0.000 OA
ENDBRANCH  19  26
ENDBRANCH   1  22
TORSDOF 2
ENDMDL
MODEL 7
REMARK VINA RESULT:      -6.5      1.352      1.579
REMARK  Name = 
REMARK  5 active torsions:
REMARK  status: ('A' for Active; 'I' for Inactive)
REMARK    1  A    between atoms: C_1  and  O_2
REMARK    2  A    between atoms: O_2  and  C_3
REMARK    3  A    between atoms: C_6  and  C_7
REMARK    4  A    between atoms: C_17  and  C_18
REMARK    5  A    between atoms: C_20  and  C_21
REMARK                            x       y       z     vdW  Elec       q    Type
REMARK                         _______ _______ _______ _____ _____    ______ ____
ROOT
ATOM      1  C   UNL     1      -0.919  12.850  19.715  0.00  0.00    +0.000 C 
ATOM      2  C   UNL     1      -1.768  13.379  20.899  0.00  0.00    +0.000 C 
ATOM      3  C   UNL     1      -1.708  12.629  22.219  0.00  0.00    +0.000 C 
ATOM      4  O   UNL     1      -2.240  13.086  23.229  0.00  0.00    +0.000 OA
ATOM      5  C   UNL     1      -1.071  11.339  22.222  0.00  0.00    +0.000 A 
ATOM      6  C   UNL     1      -0.962  10.364  23.218  0.00  0.00    +0.000 A 
ATOM      7  N   UNL     1      -0.304   9.280  22.801  0.00  0.00    +0.000 NA
ATOM      8  N   UNL     1       0.058   9.560  21.509  0.00  0.00    +0.000 N 
ATOM      9  C   UNL     1       0.849   8.652  20.719  0.00  0.00    +0.000 A 
ATOM     10  N   UNL     1       1.151   7.437  21.231  0.00  0.00    +0.000 NA
ATOM     11  C   UNL     1       1.904   6.617  20.472  0.00  0.00    +0.000 A 
ATOM     12  C   UNL     1       2.210   5.259  21.027  0.00  0.00    +0.000 C 
ATOM     13  C   UNL     1       2.388   6.987  19.231  0.00  0.00    +0.000 A 
ATOM     14  C   UNL     1       2.044   8.243  18.783  0.00  0.00    +0.000 A 
ATOM     15  C   UNL     1       2.524   8.769  17.465  0.00  0.00    +0.000 C 
ATOM     16  N   UNL     1       1.267   9.072  19.505  0.00  0.00    +0.000 NA
ATOM     17  C   UNL     1      -0.437  10.806  21.129  0.00  0.00    +0.000 A 
ATOM     18  C   UNL     1      -0.350  11.411  19.778  0.00  0.00    +0.000 C 
ENDROOT
BRANCH   1  22
ATOM     19  C   UNL     1       2.183  15.698  18.673  0.00  0.00    +0.000 A 
ATOM     20  C   UNL     1       2.507  14.357  18.888  0.00  0.00    +0.000 A 
ATOM     21  C   UNL     1       1.517  13.426  19.209  0.00  0.00    +0.000 A 
ATOM     22  C   UNL     1       0.184  13.834  19.343  0.00  0.00    +0.000 A 
ATOM     23  C   UNL     1      -0.136  15.182  19.119  0.00  0.00    +0.000 A 
ATOM     24  C   UNL     1       0.857  16.107  18.788  0.00  0.00    +0.000 A 
BRANCH  19  26
ATOM     25  C   UNL     1       4.335  16.451  19.307  0.00  0.00    +0.000 C 
ATOM     26  O   UNL     1       3.244  16.517  18.399  0.00  0.00    +0.000 OA
ENDBRANCH  19  26
ENDBRANCH   1  22
TORSDOF 2
ENDMDL
MODEL 8
REMARK VINA RESULT:      -6.4      4.727      7.069
REMARK  Name = 
REMARK  5 active torsions:
REMARK  status: ('A' for Active; 'I' for Inactive)
REMARK    1  A    between atoms: C_1  and  O_2
REMARK    2  A    between atoms: O_2  and  C_3
REMARK    3  A    between atoms: C_6  and  C_7
REMARK    4  A    between atoms: C_17  and  C_18
REMARK    5  A    between atoms: C_20  and  C_21
REMARK                            x       y       z     vdW  Elec       q    Type
REMARK                         _______ _______ _______ _____ _____    ______ ____
ROOT
ATOM      1  C   UNL     1      -1.279  11.005  18.544  0.00  0.00    +0.000 C 
ATOM      2  C   UNL     1      -1.597  10.624  17.076  0.00  0.00    +0.000 C 
ATOM      3  C   UNL     1      -2.946  11.027  16.504  0.00  0.00    +0.000 C 
ATOM      4  O   UNL     1      -3.193  10.885  15.308  0.00  0.00    +0.000 OA
ATOM      5  C   UNL     1      -3.940  11.513  17.424  0.00  0.00    +0.000 A 
ATOM      6  C   UNL     1      -5.287  11.841  17.243  0.00  0.00    +0.000 A 
ATOM      7  N   UNL     1      -5.874  12.232  18.376  0.00  0.00    +0.000 NA
ATOM      8  N   UNL     1      -4.881  12.192  19.321  0.00  0.00    +0.000 N 
ATOM      9  C   UNL     1      -5.102  12.609  20.682  0.00  0.00    +0.000 A 
ATOM     10  N   UNL     1      -6.354  12.944  21.066  0.00  0.00    +0.000 NA
ATOM     11  C   UNL     1      -6.523  13.342  22.343  0.00  0.00    +0.000 A 
ATOM     12  C   UNL     1      -7.916  13.682  22.776  0.00  0.00    +0.000 C 
ATOM     13  C   UNL     1      -5.472  13.443  23.236  0.00  0.00    +0.000 A 
ATOM     14  C   UNL     1      -4.226  13.091  22.767  0.00  0.00    +0.000 A 
ATOM     15  C   UNL     1      -3.005  13.178  23.630  0.00  0.00    +0.000 C 
ATOM     16  N   UNL     1      -4.032  12.659  21.507  0.00  0.00    +0.000 NA
ATOM     17  C   UNL     1      -3.698  11.719  18.759  0.00  0.00    +0.000 A 
ATOM     18  C   UNL     1      -2.436  11.431  19.481  0.00  0.00    +0.000 C 
ENDROOT
BRANCH   1  22
ATOM     19  C   UNL     1       1.910  13.937  18.771  0.00  0.00    +0.000 A 
ATOM     20  C   UNL     1       2.212  12.574  18.752  0.00  0.00    +0.000 A 
ATOM     21  C   UNL     1       1.197  11.619  18.663  0.00  0.00    +0.000 A 
ATOM     22  C   UNL     1      -0.144  12.020  18.618  0.00  0.00    +0.000 A 
ATOM     23  C   UNL     1      -0.440  13.391  18.631  0.00  0.00    +0.000 A 
ATOM     24  C   UNL     1       0.580  14.343  18.709  0.00  0.00    +0.000 A 
BRANCH  19  26
ATOM     25  C   UNL     1       2.817  16.091  18.395  0.00  0.00    +0.000 C 
ATOM     26  O   UNL     1       2.987  14.771  18.895  0.00  0.00    +0.000 OA
ENDBRANCH  19  26
ENDBRANCH   1  22
TORSDOF 2
ENDMDL
MODEL 9
REMARK VINA RESULT:      -6.4      3.328      7.233
REMARK  Name = 
REMARK  5 active torsions:
REMARK  status: ('A' for Active; 'I' for Inactive)
REMARK    1  A    between atoms: C_1  and  O_2
REMARK    2  A    between atoms: O_2  and  C_3
REMARK    3  A    between atoms: C_6  and  C_7
REMARK    4  A    between atoms: C_17  and  C_18
REMARK    5  A    between atoms: C_20  and  C_21
REMARK                            x       y       z     vdW  Elec       q    Type
REMARK                         _______ _______ _______ _____ _____    ______ ____
ROOT
ATOM      1  C   UNL     1       1.032  12.004  18.721  0.00  0.00    +0.000 C 
ATOM      2  C   UNL     1       2.253  12.621  17.991  0.00  0.00    +0.000 C 
ATOM      3  C   UNL     1       3.026  13.726  18.692  0.00  0.00    +0.000 C 
ATOM      4  O   UNL     1       4.085  14.146  18.229  0.00  0.00    +0.000 OA
ATOM      5  C   UNL     1       2.438  14.305  19.870  0.00  0.00    +0.000 A 
ATOM      6  C   UNL     1       2.823  15.395  20.656  0.00  0.00    +0.000 A 
ATOM      7  N   UNL     1       1.974  15.625  21.661  0.00  0.00    +0.000 NA
ATOM      8  N   UNL     1       1.025  14.642  21.555  0.00  0.00    +0.000 N 
ATOM      9  C   UNL     1      -0.047  14.505  22.507  0.00  0.00    +0.000 A 
ATOM     10  N   UNL     1      -0.184  15.442  23.472  0.00  0.00    +0.000 NA
ATOM     11  C   UNL     1      -1.190  15.277  24.355  0.00  0.00    +0.000 A 
ATOM     12  C   UNL     1      -1.361  16.333  25.403  0.00  0.00    +0.000 C 
ATOM     13  C   UNL     1      -2.041  14.188  24.318  0.00  0.00    +0.000 A 
ATOM     14  C   UNL     1      -1.831  13.273  23.310  0.00  0.00    +0.000 A 
ATOM     15  C   UNL     1      -2.672  12.041  23.177  0.00  0.00    +0.000 C 
ATOM     16  N   UNL     1      -0.856  13.429  22.395  0.00  0.00    +0.000 NA
ATOM     17  C   UNL     1       1.277  13.846  20.440  0.00  0.00    +0.000 A 
ATOM     18  C   UNL     1       0.416  12.752  19.928  0.00  0.00    +0.000 C 
ENDROOT
BRANCH   1  22
ATOM     19  C   UNL     1       1.794   7.847  19.703  0.00  0.00    +0.000 A 
ATOM     20  C   UNL     1       1.184   8.687  20.637  0.00  0.00    +0.000 A 
ATOM     21  C   UNL     1       0.919  10.023  20.330  0.00  0.00    +0.000 A 
ATOM     22  C   UNL     1       1.285  10.544  19.083  0.00  0.00    +0.000 A 
ATOM     23  C   UNL     1       1.892   9.693  18.146  0.00  0.00    +0.000 A 
ATOM     24  C   UNL     1       2.146   8.355  18.455  0.00  0.00    +0.000 A 
BRANCH  19  26
ATOM     25  C   UNL     1       2.932   5.803  19.347  0.00  0.00    +0.000 C 
ATOM     26  O   UNL     1       2.032   6.571  20.135  0.00  0.00    +0.000 OA
ENDBRANCH  19  26
ENDBRANCH   1  22
TORSDOF 2
ENDMDL
