MODEL 1
REMARK VINA RESULT:      -7.7      0.000      0.000
REMARK  Name = 
REMARK  7 active torsions:
REMARK  status: ('A' for Active; 'I' for Inactive)
REMARK    1  A    between atoms: C_1  and  N_2
REMARK    2  A    between atoms: N_2  and  C_3
REMARK    3  A    between atoms: N_2  and  C_4
REMARK    4  A    between atoms: C_4  and  C_5
REMARK    5  A    between atoms: C_5  and  O_6
REMARK    6  A    between atoms: O_6  and  C_7
REMARK    7  A    between atoms: N_9  and  C_10
REMARK                            x       y       z     vdW  Elec       q    Type
REMARK                         _______ _______ _______ _____ _____    ______ ____
ROOT
ATOM      1  C   UNL     1       4.612   4.394  19.061  0.00  0.00    +0.000 A 
ATOM      2  C   UNL     1       3.791   5.326  19.644  0.00  0.00    +0.000 A 
ATOM      3  N   UNL     1       3.523   6.326  18.727  0.00  0.00    +0.000 N 
ATOM      4  C   UNL     1       4.267   6.076  17.570  0.00  0.00    +0.000 A 
ATOM      5  C   UNL     1       4.459   6.828  16.393  0.00  0.00    +0.000 A 
ATOM      6  C   UNL     1       5.304   6.322  15.400  0.00  0.00    +0.000 A 
ATOM      7  C   UNL     1       5.961   5.111  15.578  0.00  0.00    +0.000 A 
ATOM      8 CL   UNL     1       7.009   4.525  14.344  0.00  0.00    +0.000 Cl
ATOM      9  C   UNL     1       5.800   4.375  16.752  0.00  0.00    +0.000 A 
ATOM     10  C   UNL     1       4.954   4.868  17.769  0.00  0.00    +0.000 A 
ENDROOT
BRANCH   3  11
ATOM     11  C   UNL     1       2.629   7.408  18.973  0.00  0.00    +0.000 A 
ATOM     12  C   UNL     1       2.022   7.538  20.234  0.00  0.00    +0.000 A 
ATOM     13  C   UNL     1       1.137   8.590  20.478  0.00  0.00    +0.000 A 
ATOM     14  C   UNL     1       0.846   9.492  19.463  0.00  0.00    +0.000 A 
ATOM     15  F   UNL     1      -0.009  10.496  19.697  0.00  0.00    +0.000 F 
ATOM     16  C   UNL     1       1.423   9.364  18.205  0.00  0.00    +0.000 A 
ATOM     17  C   UNL     1       2.317   8.320  17.956  0.00  0.00    +0.000 A 
ENDBRANCH   3  11
BRANCH   1  18
ATOM     18  O   UNL     1       5.079   3.245  19.608  0.00  0.00    +0.000 OA
BRANCH  18  19
ATOM     19  C   UNL     1       4.057   2.394  20.141  0.00  0.00    +0.000 C 
BRANCH  19  20
ATOM     20  C   UNL     1       3.151   1.917  18.995  0.00  0.00    +0.000 C 
BRANCH  20  22
ATOM     21  C   UNL     1       1.479   2.540  20.611  0.00  0.00    +0.000 C 
ATOM     22  N   UNL     1       1.707   2.149  19.216  0.00  0.00    +0.000 NA
ATOM     23  C   UNL     1       1.162   3.174  18.324  0.00  0.00    +0.000 C 
ENDBRANCH  20  22
ENDBRANCH  19  20
ENDBRANCH  18  19
ENDBRANCH   1  18
TORSDOF 5
ENDMDL
MODEL 2
REMARK VINA RESULT:      -7.7      0.140      1.020
REMARK  Name = 
REMARK  7 active torsions:
REMARK  status: ('A' for Active; 'I' for Inactive)
REMARK    1  A    between atoms: C_1  and  N_2
REMARK    2  A    between atoms: N_2  and  C_3
REMARK    3  A    between atoms: N_2  and  C_4
REMARK    4  A    between atoms: C_4  and  C_5
REMARK    5  A    between atoms: C_5  and  O_6
REMARK    6  A    between atoms: O_6  and  C_7
REMARK    7  A    between atoms: N_9  and  C_10
REMARK                            x       y       z     vdW  Elec       q    Type
REMARK                         _______ _______ _______ _____ _____    ______ ____
ROOT
ATOM      1  C   UNL     1       4.644   4.368  19.066  0.00  0.00    +0.000 A 
ATOM      2  C   UNL     1       3.808   5.283  19.656  0.00  0.00    +0.000 A 
ATOM      3  N   UNL     1       3.524   6.284  18.746  0.00  0.00    +0.000 N 
ATOM      4  C   UNL     1       4.271   6.055  17.587  0.00  0.00    +0.000 A 
ATOM      5  C   UNL     1       4.450   6.818  16.415  0.00  0.00    +0.000 A 
ATOM      6  C   UNL     1       5.303   6.332  15.418  0.00  0.00    +0.000 A 
ATOM      7  C   UNL     1       5.980   5.131  15.588  0.00  0.00    +0.000 A 
ATOM      8 CL   UNL     1       7.036   4.570  14.349  0.00  0.00    +0.000 Cl
ATOM      9  C   UNL     1       5.831   4.384  16.757  0.00  0.00    +0.000 A 
ATOM     10  C   UNL     1       4.978   4.857  17.777  0.00  0.00    +0.000 A 
ENDROOT
BRANCH   3  11
ATOM     11  C   UNL     1       2.612   7.350  18.999  0.00  0.00    +0.000 A 
ATOM     12  C   UNL     1       2.332   8.283  17.985  0.00  0.00    +0.000 A 
ATOM     13  C   UNL     1       1.448   9.335  18.230  0.00  0.00    +0.000 A 
ATOM     14  C   UNL     1       0.865   9.465  19.484  0.00  0.00    +0.000 A 
ATOM     15  F   UNL     1       0.024  10.481  19.719  0.00  0.00    +0.000 F 
ATOM     16  C   UNL     1       1.149   8.563  20.502  0.00  0.00    +0.000 A 
ATOM     17  C   UNL     1       2.025   7.501  20.262  0.00  0.00    +0.000 A 
ENDBRANCH   3  11
BRANCH   1  18
ATOM     18  O   UNL     1       5.130   3.224  19.605  0.00  0.00    +0.000 OA
BRANCH  18  19
ATOM     19  C   UNL     1       4.127   2.375  20.179  0.00  0.00    +0.000 C 
BRANCH  19  20
ATOM     20  C   UNL     1       3.137   1.954  19.081  0.00  0.00    +0.000 C 
BRANCH  20  22
ATOM     21  C   UNL     1       1.608   2.524  20.851  0.00  0.00    +0.000 C 
ATOM     22  N   UNL     1       1.714   2.011  19.482  0.00  0.00    +0.000 NA
ATOM     23  C   UNL     1       0.912   2.842  18.582  0.00  0.00    +0.000 C 
ENDBRANCH  20  22
ENDBRANCH  19  20
ENDBRANCH  18  19
ENDBRANCH   1  18
TORSDOF 5
ENDMDL
MODEL 3
REMARK VINA RESULT:      -7.4      1.392      1.705
REMARK  Name = 
REMARK  7 active torsions:
REMARK  status: ('A' for Active; 'I' for Inactive)
REMARK    1  A    between atoms: C_1  and  N_2
REMARK    2  A    between atoms: N_2  and  C_3
REMARK    3  A    between atoms: N_2  and  C_4
REMARK    4  A    between atoms: C_4  and  C_5
REMARK    5  A    between atoms: C_5  and  O_6
REMARK    6  A    between atoms: O_6  and  C_7
REMARK    7  A    between atoms: N_9  and  C_10
REMARK                            x       y       z     vdW  Elec       q    Type
REMARK                         _______ _______ _______ _____ _____    ______ ____
ROOT
ATOM      1  C   UNL     1       2.542   4.219  17.507  0.00  0.00    +0.000 A 
ATOM      2  C   UNL     1       1.842   5.165  18.213  0.00  0.00    +0.000 A 
ATOM      3  N   UNL     1       2.544   6.356  18.188  0.00  0.00    +0.000 N 
ATOM      4  C   UNL     1       3.763   6.138  17.540  0.00  0.00    +0.000 A 
ATOM      5  C   UNL     1       4.889   6.963  17.348  0.00  0.00    +0.000 A 
ATOM      6  C   UNL     1       5.998   6.445  16.670  0.00  0.00    +0.000 A 
ATOM      7  C   UNL     1       6.000   5.133  16.214  0.00  0.00    +0.000 A 
ATOM      8 CL   UNL     1       7.388   4.520  15.399  0.00  0.00    +0.000 Cl
ATOM      9  C   UNL     1       4.901   4.300  16.426  0.00  0.00    +0.000 A 
ATOM     10  C   UNL     1       3.773   4.801  17.110  0.00  0.00    +0.000 A 
ENDROOT
BRANCH   3  11
ATOM     11  C   UNL     1       2.060   7.574  18.748  0.00  0.00    +0.000 A 
ATOM     12  C   UNL     1       1.792   7.650  20.126  0.00  0.00    +0.000 A 
ATOM     13  C   UNL     1       1.308   8.836  20.679  0.00  0.00    +0.000 A 
ATOM     14  C   UNL     1       1.074   9.932  19.857  0.00  0.00    +0.000 A 
ATOM     15  F   UNL     1       0.602  11.067  20.389  0.00  0.00    +0.000 F 
ATOM     16  C   UNL     1       1.314   9.864  18.490  0.00  0.00    +0.000 A 
ATOM     17  C   UNL     1       1.809   8.684  17.931  0.00  0.00    +0.000 A 
ENDBRANCH   3  11
BRANCH   1  18
ATOM     18  O   UNL     1       2.183   2.935  17.264  0.00  0.00    +0.000 OA
BRANCH  18  19
ATOM     19  C   UNL     1       2.701   1.993  18.212  0.00  0.00    +0.000 C 
BRANCH  19  20
ATOM     20  C   UNL     1       1.860   2.060  19.497  0.00  0.00    +0.000 C 
BRANCH  20  22
ATOM     21  C   UNL     1       4.048   2.530  20.383  0.00  0.00    +0.000 C 
ATOM     22  N   UNL     1       2.632   2.356  20.723  0.00  0.00    +0.000 NA
ATOM     23  C   UNL     1       2.144   3.548  21.419  0.00  0.00    +0.000 C 
ENDBRANCH  20  22
ENDBRANCH  19  20
ENDBRANCH  18  19
ENDBRANCH   1  18
TORSDOF 5
ENDMDL
MODEL 4
REMARK VINA RESULT:      -7.3      1.384      1.969
REMARK  Name = 
REMARK  7 active torsions:
REMARK  status: ('A' for Active; 'I' for Inactive)
REMARK    1  A    between atoms: C_1  and  N_2
REMARK    2  A    between atoms: N_2  and  C_3
REMARK    3  A    between atoms: N_2  and  C_4
REMARK    4  A    between atoms: C_4  and  C_5
REMARK    5  A    between atoms: C_5  and  O_6
REMARK    6  A    between atoms: O_6  and  C_7
REMARK    7  A    between atoms: N_9  and  C_10
REMARK                            x       y       z     vdW  Elec       q    Type
REMARK                         _______ _______ _______ _____ _____    ______ ____
ROOT
ATOM      1  C   UNL     1       2.589   4.182  17.464  0.00  0.00    +0.000 A 
ATOM      2  C   UNL     1       1.872   5.109  18.179  0.00  0.00    +0.000 A 
ATOM      3  N   UNL     1       2.555   6.312  18.165  0.00  0.00    +0.000 N 
ATOM      4  C   UNL     1       3.776   6.120  17.513  0.00  0.00    +0.000 A 
ATOM      5  C   UNL     1       4.888   6.967  17.328  0.00  0.00    +0.000 A 
ATOM      6  C   UNL     1       6.005   6.473  16.645  0.00  0.00    +0.000 A 
ATOM      7  C   UNL     1       6.029   5.166  16.176  0.00  0.00    +0.000 A 
ATOM      8 CL   UNL     1       7.426   4.584  15.355  0.00  0.00    +0.000 Cl
ATOM      9  C   UNL     1       4.945   4.312  16.382  0.00  0.00    +0.000 A 
ATOM     10  C   UNL     1       3.808   4.788  17.071  0.00  0.00    +0.000 A 
ENDROOT
BRANCH   3  11
ATOM     11  C   UNL     1       2.050   7.516  18.736  0.00  0.00    +0.000 A 
ATOM     12  C   UNL     1       1.813   8.631  17.914  0.00  0.00    +0.000 A 
ATOM     13  C   UNL     1       1.328   9.817  18.468  0.00  0.00    +0.000 A 
ATOM     14  C   UNL     1       1.103   9.894  19.837  0.00  0.00    +0.000 A 
ATOM     15  F   UNL     1       0.646  11.036  20.367  0.00  0.00    +0.000 F 
ATOM     16  C   UNL     1       1.354   8.806  20.664  0.00  0.00    +0.000 A 
ATOM     17  C   UNL     1       1.829   7.613  20.116  0.00  0.00    +0.000 A 
ENDBRANCH   3  11
BRANCH   1  18
ATOM     18  O   UNL     1       2.251   2.894  17.209  0.00  0.00    +0.000 OA
BRANCH  18  19
ATOM     19  C   UNL     1       2.722   1.961  18.190  0.00  0.00    +0.000 C 
BRANCH  19  20
ATOM     20  C   UNL     1       1.849   2.071  19.450  0.00  0.00    +0.000 C 
BRANCH  20  22
ATOM     21  C   UNL     1       4.013   2.562  20.384  0.00  0.00    +0.000 C 
ATOM     22  N   UNL     1       2.601   2.320  20.699  0.00  0.00    +0.000 NA
ATOM     23  C   UNL     1       2.067   3.452  21.459  0.00  0.00    +0.000 C 
ENDBRANCH  20  22
ENDBRANCH  19  20
ENDBRANCH  18  19
ENDBRANCH   1  18
TORSDOF 5
ENDMDL
MODEL 5
REMARK VINA RESULT:      -7.2      3.372      5.328
REMARK  Name = 
REMARK  7 active torsions:
REMARK  status: ('A' for Active; 'I' for Inactive)
REMARK    1  A    between atoms: C_1  and  N_2
REMARK    2  A    between atoms: N_2  and  C_3
REMARK    3  A    between atoms: N_2  and  C_4
REMARK    4  A    between atoms: C_4  and  C_5
REMARK    5  A    between atoms: C_5  and  O_6
REMARK    6  A    between atoms: O_6  and  C_7
REMARK    7  A    between atoms: N_9  and  C_10
REMARK                            x       y       z     vdW  Elec       q    Type
REMARK                         _______ _______ _______ _____ _____    ______ ____
ROOT
ATOM      1  C   UNL     1       2.745   5.556  20.152  0.00  0.00    +0.000 A 
ATOM      2  C   UNL     1       3.625   4.950  19.290  0.00  0.00    +0.000 A 
ATOM      3  N   UNL     1       3.935   5.833  18.271  0.00  0.00    +0.000 N 
ATOM      4  C   UNL     1       3.162   6.986  18.434  0.00  0.00    +0.000 A 
ATOM      5  C   UNL     1       2.995   8.130  17.627  0.00  0.00    +0.000 A 
ATOM      6  C   UNL     1       2.109   9.128  18.047  0.00  0.00    +0.000 A 
ATOM      7  C   UNL     1       1.389   8.986  19.226  0.00  0.00    +0.000 A 
ATOM      8 CL   UNL     1       0.293  10.224  19.705  0.00  0.00    +0.000 Cl
ATOM      9  C   UNL     1       1.526   7.844  20.015  0.00  0.00    +0.000 A 
ATOM     10  C   UNL     1       2.412   6.822  19.609  0.00  0.00    +0.000 A 
ENDROOT
BRANCH   3  11
ATOM     11  C   UNL     1       4.891   5.561  17.250  0.00  0.00    +0.000 A 
ATOM     12  C   UNL     1       6.120   6.243  17.246  0.00  0.00    +0.000 A 
ATOM     13  C   UNL     1       7.057   5.988  16.243  0.00  0.00    +0.000 A 
ATOM     14  C   UNL     1       6.759   5.074  15.241  0.00  0.00    +0.000 A 
ATOM     15  F   UNL     1       7.656   4.838  14.275  0.00  0.00    +0.000 F 
ATOM     16  C   UNL     1       5.540   4.408  15.220  0.00  0.00    +0.000 A 
ATOM     17  C   UNL     1       4.601   4.650  16.226  0.00  0.00    +0.000 A 
ENDBRANCH   3  11
BRANCH   1  18
ATOM     18  O   UNL     1       2.223   5.045  21.294  0.00  0.00    +0.000 OA
BRANCH  18  19
ATOM     19  C   UNL     1       2.479   3.647  21.480  0.00  0.00    +0.000 C 
BRANCH  19  20
ATOM     20  C   UNL     1       1.236   2.848  21.057  0.00  0.00    +0.000 C 
BRANCH  20  22
ATOM     21  C   UNL     1       0.717   2.683  18.712  0.00  0.00    +0.000 C 
ATOM     22  N   UNL     1       1.412   2.040  19.831  0.00  0.00    +0.000 NA
ATOM     23  C   UNL     1       2.822   1.846  19.486  0.00  0.00    +0.000 C 
ENDBRANCH  20  22
ENDBRANCH  19  20
ENDBRANCH  18  19
ENDBRANCH   1  18
TORSDOF 5
ENDMDL
MODEL 6
REMARK VINA RESULT:      -7.2      3.760      6.136
REMARK  Name = 
REMARK  7 active torsions:
REMARK  status: ('A' for Active; 'I' for Inactive)
REMARK    1  A    between atoms: C_1  and  N_2
REMARK    2  A    between atoms: N_2  and  C_3
REMARK    3  A    between atoms: N_2  and  C_4
REMARK    4  A    between atoms: C_4  and  C_5
REMARK    5  A    between atoms: C_5  and  O_6
REMARK    6  A    between atoms: O_6  and  C_7
REMARK    7  A    between atoms: N_9  and  C_10
REMARK                            x       y       z     vdW  Elec       q    Type
REMARK                         _______ _______ _______ _____ _____    ______ ____
ROOT
ATOM      1  C   UNL     1       7.007   6.450  17.191  0.00  0.00    +0.000 A 
ATOM      2  C   UNL     1       6.176   6.236  18.262  0.00  0.00    +0.000 A 
ATOM      3  N   UNL     1       5.356   5.157  17.986  0.00  0.00    +0.000 N 
ATOM      4  C   UNL     1       5.602   4.739  16.675  0.00  0.00    +0.000 A 
ATOM      5  C   UNL     1       4.971   3.777  15.859  0.00  0.00    +0.000 A 
ATOM      6  C   UNL     1       5.430   3.598  14.550  0.00  0.00    +0.000 A 
ATOM      7  C   UNL     1       6.473   4.369  14.053  0.00  0.00    +0.000 A 
ATOM      8 CL   UNL     1       7.002   4.137  12.431  0.00  0.00    +0.000 Cl
ATOM      9  C   UNL     1       7.083   5.343  14.844  0.00  0.00    +0.000 A 
ATOM     10  C   UNL     1       6.634   5.543  16.167  0.00  0.00    +0.000 A 
ENDROOT
BRANCH   3  11
ATOM     11  C   UNL     1       4.431   4.605  18.919  0.00  0.00    +0.000 A 
ATOM     12  C   UNL     1       3.430   5.421  19.473  0.00  0.00    +0.000 A 
ATOM     13  C   UNL     1       2.527   4.889  20.396  0.00  0.00    +0.000 A 
ATOM     14  C   UNL     1       2.639   3.557  20.776  0.00  0.00    +0.000 A 
ATOM     15  F   UNL     1       1.776   3.052  21.668  0.00  0.00    +0.000 F 
ATOM     16  C   UNL     1       3.637   2.745  20.252  0.00  0.00    +0.000 A 
ATOM     17  C   UNL     1       4.537   3.267  19.321  0.00  0.00    +0.000 A 
ENDBRANCH   3  11
BRANCH   1  18
ATOM     18  O   UNL     1       7.980   7.387  17.074  0.00  0.00    +0.000 OA
BRANCH  18  19
ATOM     19  C   UNL     1       8.233   8.121  18.278  0.00  0.00    +0.000 C 
BRANCH  19  20
ATOM     20  C   UNL     1       8.186   9.626  17.968  0.00  0.00    +0.000 C 
BRANCH  20  22
ATOM     21  C   UNL     1       9.351  11.731  17.874  0.00  0.00    +0.000 C 
ATOM     22  N   UNL     1       9.341  10.395  18.479  0.00  0.00    +0.000 NA
ATOM     23  C   UNL     1       9.331  10.518  19.938  0.00  0.00    +0.000 C 
ENDBRANCH  20  22
ENDBRANCH  19  20
ENDBRANCH  18  19
ENDBRANCH   1  18
TORSDOF 5
ENDMDL
MODEL 7
REMARK VINA RESULT:      -7.2      3.385      5.354
REMARK  Name = 
REMARK  7 active torsions:
REMARK  status: ('A' for Active; 'I' for Inactive)
REMARK    1  A    between atoms: C_1  and  N_2
REMARK    2  A    between atoms: N_2  and  C_3
REMARK    3  A    between atoms: N_2  and  C_4
REMARK    4  A    between atoms: C_4  and  C_5
REMARK    5  A    between atoms: C_5  and  O_6
REMARK    6  A    between atoms: O_6  and  C_7
REMARK    7  A    between atoms: N_9  and  C_10
REMARK                            x       y       z     vdW  Elec       q    Type
REMARK                         _______ _______ _______ _____ _____    ______ ____
ROOT
ATOM      1  C   UNL     1       2.623   5.694  20.159  0.00  0.00    +0.000 A 
ATOM      2  C   UNL     1       3.517   5.087  19.312  0.00  0.00    +0.000 A 
ATOM      3  N   UNL     1       3.845   5.968  18.298  0.00  0.00    +0.000 N 
ATOM      4  C   UNL     1       3.070   7.122  18.446  0.00  0.00    +0.000 A 
ATOM      5  C   UNL     1       2.918   8.265  17.635  0.00  0.00    +0.000 A 
ATOM      6  C   UNL     1       2.025   9.264  18.038  0.00  0.00    +0.000 A 
ATOM      7  C   UNL     1       1.285   9.124  19.205  0.00  0.00    +0.000 A 
ATOM      8 CL   UNL     1       0.182  10.363  19.664  0.00  0.00    +0.000 Cl
ATOM      9  C   UNL     1       1.408   7.982  19.998  0.00  0.00    +0.000 A 
ATOM     10  C   UNL     1       2.300   6.960  19.609  0.00  0.00    +0.000 A 
ENDROOT
BRANCH   3  11
ATOM     11  C   UNL     1       4.818   5.694  17.293  0.00  0.00    +0.000 A 
ATOM     12  C   UNL     1       4.545   4.736  16.301  0.00  0.00    +0.000 A 
ATOM     13  C   UNL     1       5.497   4.455  15.320  0.00  0.00    +0.000 A 
ATOM     14  C   UNL     1       6.721   5.112  15.344  0.00  0.00    +0.000 A 
ATOM     15  F   UNL     1       7.637   4.835  14.407  0.00  0.00    +0.000 F 
ATOM     16  C   UNL     1       7.013   6.045  16.331  0.00  0.00    +0.000 A 
ATOM     17  C   UNL     1       6.061   6.340  17.310  0.00  0.00    +0.000 A 
ENDBRANCH   3  11
BRANCH   1  18
ATOM     18  O   UNL     1       2.082   5.185  21.292  0.00  0.00    +0.000 OA
BRANCH  18  19
ATOM     19  C   UNL     1       2.381   3.801  21.513  0.00  0.00    +0.000 C 
BRANCH  19  20
ATOM     20  C   UNL     1       1.193   2.948  21.041  0.00  0.00    +0.000 C 
BRANCH  20  22
ATOM     21  C   UNL     1       0.768   2.575  18.701  0.00  0.00    +0.000 C 
ATOM     22  N   UNL     1       1.483   2.078  19.880  0.00  0.00    +0.000 NA
ATOM     23  C   UNL     1       2.915   1.995  19.587  0.00  0.00    +0.000 C 
ENDBRANCH  20  22
ENDBRANCH  19  20
ENDBRANCH  18  19
ENDBRANCH   1  18
TORSDOF 5
ENDMDL
MODEL 8
REMARK VINA RESULT:      -7.2      3.760      6.109
REMARK  Name = 
REMARK  7 active torsions:
REMARK  status: ('A' for Active; 'I' for Inactive)
REMARK    1  A    between atoms: C_1  and  N_2
REMARK    2  A    between atoms: N_2  and  C_3
REMARK    3  A    between atoms: N_2  and  C_4
REMARK    4  A    between atoms: C_4  and  C_5
REMARK    5  A    between atoms: C_5  and  O_6
REMARK    6  A    between atoms: O_6  and  C_7
REMARK    7  A    between atoms: N_9  and  C_10
REMARK                            x       y       z     vdW  Elec       q    Type
REMARK                         _______ _______ _______ _____ _____    ______ ____
ROOT
ATOM      1  C   UNL     1       6.882   6.591  17.106  0.00  0.00    +0.000 A 
ATOM      2  C   UNL     1       6.060   6.404  18.189  0.00  0.00    +0.000 A 
ATOM      3  N   UNL     1       5.279   5.283  17.973  0.00  0.00    +0.000 N 
ATOM      4  C   UNL     1       5.538   4.805  16.686  0.00  0.00    +0.000 A 
ATOM      5  C   UNL     1       4.942   3.779  15.924  0.00  0.00    +0.000 A 
ATOM      6  C   UNL     1       5.405   3.548  14.625  0.00  0.00    +0.000 A 
ATOM      7  C   UNL     1       6.419   4.328  14.084  0.00  0.00    +0.000 A 
ATOM      8 CL   UNL     1       6.954   4.030  12.475  0.00  0.00    +0.000 Cl
ATOM      9  C   UNL     1       6.994   5.364  14.821  0.00  0.00    +0.000 A 
ATOM     10  C   UNL     1       6.540   5.618  16.133  0.00  0.00    +0.000 A 
ENDROOT
BRANCH   3  11
ATOM     11  C   UNL     1       4.376   4.748  18.938  0.00  0.00    +0.000 A 
ATOM     12  C   UNL     1       4.486   3.400  19.323  0.00  0.00    +0.000 A 
ATOM     13  C   UNL     1       3.599   2.867  20.259  0.00  0.00    +0.000 A 
ATOM     14  C   UNL     1       2.597   3.669  20.790  0.00  0.00    +0.000 A 
ATOM     15  F   UNL     1       1.741   3.153  21.682  0.00  0.00    +0.000 F 
ATOM     16  C   UNL     1       2.463   4.997  20.403  0.00  0.00    +0.000 A 
ATOM     17  C   UNL     1       3.354   5.541  19.474  0.00  0.00    +0.000 A 
ENDBRANCH   3  11
BRANCH   1  18
ATOM     18  O   UNL     1       7.820   7.554  16.937  0.00  0.00    +0.000 OA
BRANCH  18  19
ATOM     19  C   UNL     1       8.207   8.213  18.149  0.00  0.00    +0.000 C 
BRANCH  19  20
ATOM     20  C   UNL     1       8.138   9.735  17.938  0.00  0.00    +0.000 C 
BRANCH  20  22
ATOM     21  C   UNL     1       9.294  11.846  17.915  0.00  0.00    +0.000 C 
ATOM     22  N   UNL     1       9.311  10.479  18.445  0.00  0.00    +0.000 NA
ATOM     23  C   UNL     1       9.359  10.520  19.907  0.00  0.00    +0.000 C 
ENDBRANCH  20  22
ENDBRANCH  19  20
ENDBRANCH  18  19
ENDBRANCH   1  18
TORSDOF 5
ENDMDL
MODEL 9
REMARK VINA RESULT:      -7.0      2.490      4.513
REMARK  Name = 
REMARK  7 active torsions:
REMARK  status: ('A' for Active; 'I' for Inactive)
REMARK    1  A    between atoms: C_1  and  N_2
REMARK    2  A    between atoms: N_2  and  C_3
REMARK    3  A    between atoms: N_2  and  C_4
REMARK    4  A    between atoms: C_4  and  C_5
REMARK    5  A    between atoms: C_5  and  O_6
REMARK    6  A    between atoms: O_6  and  C_7
REMARK    7  A    between atoms: N_9  and  C_10
REMARK                            x       y       z     vdW  Elec       q    Type
REMARK                         _______ _______ _______ _____ _____    ______ ____
ROOT
ATOM      1  C   UNL     1       4.836   5.939  17.163  0.00  0.00    +0.000 A 
ATOM      2  C   UNL     1       4.146   7.105  17.380  0.00  0.00    +0.000 A 
ATOM      3  N   UNL     1       3.078   6.846  18.221  0.00  0.00    +0.000 N 
ATOM      4  C   UNL     1       3.029   5.470  18.463  0.00  0.00    +0.000 A 
ATOM      5  C   UNL     1       2.090   4.665  19.139  0.00  0.00    +0.000 A 
ATOM      6  C   UNL     1       2.300   3.283  19.191  0.00  0.00    +0.000 A 
ATOM      7  C   UNL     1       3.401   2.709  18.569  0.00  0.00    +0.000 A 
ATOM      8 CL   UNL     1       3.620   1.003  18.636  0.00  0.00    +0.000 Cl
ATOM      9  C   UNL     1       4.319   3.495  17.872  0.00  0.00    +0.000 A 
ATOM     10  C   UNL     1       4.126   4.892  17.804  0.00  0.00    +0.000 A 
ENDROOT
BRANCH   3  11
ATOM     11  C   UNL     1       2.203   7.852  18.725  0.00  0.00    +0.000 A 
ATOM     12  C   UNL     1       1.696   8.833  17.856  0.00  0.00    +0.000 A 
ATOM     13  C   UNL     1       0.847   9.828  18.345  0.00  0.00    +0.000 A 
ATOM     14  C   UNL     1       0.525   9.852  19.697  0.00  0.00    +0.000 A 
ATOM     15  F   UNL     1      -0.283  10.811  20.165  0.00  0.00    +0.000 F 
ATOM     16  C   UNL     1       1.035   8.900  20.570  0.00  0.00    +0.000 A 
ATOM     17  C   UNL     1       1.877   7.896  20.087  0.00  0.00    +0.000 A 
ENDBRANCH   3  11
BRANCH   1  18
ATOM     18  O   UNL     1       5.961   5.769  16.428  0.00  0.00    +0.000 OA
BRANCH  18  19
ATOM     19  C   UNL     1       5.737   5.745  15.013  0.00  0.00    +0.000 C 
BRANCH  19  20
ATOM     20  C   UNL     1       5.593   4.286  14.551  0.00  0.00    +0.000 C 
BRANCH  20  22
ATOM     21  C   UNL     1       5.866   3.351  12.349  0.00  0.00    +0.000 C 
ATOM     22  N   UNL     1       6.573   3.865  13.526  0.00  0.00    +0.000 NA
ATOM     23  C   UNL     1       7.466   4.954  13.126  0.00  0.00    +0.000 C 
ENDBRANCH  20  22
ENDBRANCH  19  20
ENDBRANCH  18  19
ENDBRANCH   1  18
TORSDOF 5
ENDMDL
