MODEL 1
REMARK VINA RESULT:      -7.5      0.000      0.000
REMARK  Name = 
REMARK  8 active torsions:
REMARK  status: ('A' for Active; 'I' for Inactive)
REMARK    1  A    between atoms: C_1  and  C_2
REMARK    2  A    between atoms: C_2  and  N_3
REMARK    3  A    between atoms: N_6  and  C_7
REMARK    4  A    between atoms: C_13  and  C_14
REMARK    5  A    between atoms: C_17  and  O_18
REMARK    6  A    between atoms: O_18  and  C_19
REMARK    7  A    between atoms: C_20  and  O_21
REMARK    8  A    between atoms: O_21  and  C_22
REMARK                            x       y       z     vdW  Elec       q    Type
REMARK                         _______ _______ _______ _____ _____    ______ ____
ROOT
ATOM      1  C   UNL     1       2.978   4.182  18.445  0.00  0.00    +0.000 A 
ATOM      2  C   UNL     1       2.835   2.969  19.120  0.00  0.00    +0.000 A 
ATOM      3  C   UNL     1       2.254   2.972  20.370  0.00  0.00    +0.000 A 
ATOM      4  N   UNL     1       1.835   4.088  20.986  0.00  0.00    +0.000 NA
ATOM      5  C   UNL     1       1.998   5.253  20.335  0.00  0.00    +0.000 A 
ATOM      6  C   UNL     1       1.519   6.403  20.941  0.00  0.00    +0.000 A 
ATOM      7  C   UNL     1       1.586   7.658  20.327  0.00  0.00    +0.000 A 
ATOM      8  C   UNL     1       2.231   7.674  19.089  0.00  0.00    +0.000 A 
ATOM      9  N   UNL     1       2.732   6.585  18.449  0.00  0.00    +0.000 NA
ATOM     10  C   UNL     1       2.586   5.379  19.061  0.00  0.00    +0.000 A 
ENDROOT
BRANCH   1  14
ATOM     11  N   UNL     1       5.044   4.299  15.429  0.00  0.00    +0.000 N 
ATOM     12  C   UNL     1       4.828   4.259  16.785  0.00  0.00    +0.000 C 
ATOM     13  O   UNL     1       5.761   4.212  17.581  0.00  0.00    +0.000 OA
ATOM     14  N   UNL     1       3.488   4.241  17.115  0.00  0.00    +0.000 N 
ATOM     15  H   UNL     1       4.318   4.691  14.852  0.00  0.00    +0.000 HD
ATOM     16  H   UNL     1       2.835   3.940  16.403  0.00  0.00    +0.000 HD
BRANCH  11  18
ATOM     17  C   UNL     1       6.468   3.899  13.445  0.00  0.00    +0.000 C 
ATOM     18  C   UNL     1       6.403   4.280  14.916  0.00  0.00    +0.000 C 
ENDBRANCH  11  18
ENDBRANCH   1  14
BRANCH   7  19
ATOM     19  C   UNL     1       0.957   8.858  20.926  0.00  0.00    +0.000 A 
ATOM     20  C   UNL     1       0.638   8.907  22.290  0.00  0.00    +0.000 A 
ATOM     21  C   UNL     1      -0.005  10.016  22.844  0.00  0.00    +0.000 A 
ATOM     22  C   UNL     1      -0.370  11.112  22.055  0.00  0.00    +0.000 A 
ATOM     23  C   UNL     1      -0.063  11.096  20.686  0.00  0.00    +0.000 A 
ATOM     24  C   UNL     1       0.612   9.982  20.149  0.00  0.00    +0.000 A 
BRANCH  22  25
ATOM     25  O   UNL     1      -1.007  12.081  22.787  0.00  0.00    +0.000 OA
ATOM     26  C   UNL     1      -2.386  11.926  23.080  0.00  0.00    +0.000 C 
ENDBRANCH  22  25
BRANCH  23  27
ATOM     27  O   UNL     1      -0.448  12.166  19.921  0.00  0.00    +0.000 OA
ATOM     28  C   UNL     1      -1.676  12.086  19.209  0.00  0.00    +0.000 C 
ENDBRANCH  23  27
ENDBRANCH   7  19
TORSDOF 5
ENDMDL
MODEL 2
REMARK VINA RESULT:      -7.5      2.793      8.802
REMARK  Name = 
REMARK  8 active torsions:
REMARK  status: ('A' for Active; 'I' for Inactive)
REMARK    1  A    between atoms: C_1  and  C_2
REMARK    2  A    between atoms: C_2  and  N_3
REMARK    3  A    between atoms: N_6  and  C_7
REMARK    4  A    between atoms: C_13  and  C_14
REMARK    5  A    between atoms: C_17  and  O_18
REMARK    6  A    between atoms: O_18  and  C_19
REMARK    7  A    between atoms: C_20  and  O_21
REMARK    8  A    between atoms: O_21  and  C_22
REMARK                            x       y       z     vdW  Elec       q    Type
REMARK                         _______ _______ _______ _____ _____    ______ ____
ROOT
ATOM      1  C   UNL     1       0.456  10.532  20.244  0.00  0.00    +0.000 A 
ATOM      2  C   UNL     1       0.129  10.389  21.593  0.00  0.00    +0.000 A 
ATOM      3  C   UNL     1       0.510   9.238  22.249  0.00  0.00    +0.000 A 
ATOM      4  N   UNL     1       1.166   8.232  21.651  0.00  0.00    +0.000 NA
ATOM      5  C   UNL     1       1.456   8.372  20.346  0.00  0.00    +0.000 A 
ATOM      6  C   UNL     1       2.180   7.361  19.735  0.00  0.00    +0.000 A 
ATOM      7  C   UNL     1       2.585   7.431  18.397  0.00  0.00    +0.000 A 
ATOM      8  C   UNL     1       2.147   8.563  17.708  0.00  0.00    +0.000 A 
ATOM      9  N   UNL     1       1.426   9.581  18.246  0.00  0.00    +0.000 NA
ATOM     10  C   UNL     1       1.110   9.494  19.567  0.00  0.00    +0.000 A 
ENDROOT
BRANCH   1  14
ATOM     11  N   UNL     1       0.418  13.902  18.823  0.00  0.00    +0.000 N 
ATOM     12  C   UNL     1       0.896  12.902  19.635  0.00  0.00    +0.000 C 
ATOM     13  O   UNL     1       1.887  13.069  20.340  0.00  0.00    +0.000 OA
ATOM     14  N   UNL     1       0.171  11.732  19.530  0.00  0.00    +0.000 N 
ATOM     15  H   UNL     1      -0.553  13.864  18.558  0.00  0.00    +0.000 HD
ATOM     16  H   UNL     1      -0.386  11.601  18.695  0.00  0.00    +0.000 HD
BRANCH  11  18
ATOM     17  C   UNL     1       0.156  16.354  19.030  0.00  0.00    +0.000 C 
ATOM     18  C   UNL     1       1.098  15.185  18.785  0.00  0.00    +0.000 C 
ENDBRANCH  11  18
ENDBRANCH   1  14
BRANCH   7  19
ATOM     19  C   UNL     1       3.466   6.406  17.790  0.00  0.00    +0.000 A 
ATOM     20  C   UNL     1       4.527   6.767  16.948  0.00  0.00    +0.000 A 
ATOM     21  C   UNL     1       5.323   5.800  16.332  0.00  0.00    +0.000 A 
ATOM     22  C   UNL     1       5.081   4.436  16.516  0.00  0.00    +0.000 A 
ATOM     23  C   UNL     1       4.027   4.040  17.355  0.00  0.00    +0.000 A 
ATOM     24  C   UNL     1       3.252   5.029  17.992  0.00  0.00    +0.000 A 
BRANCH  22  25
ATOM     25  O   UNL     1       5.959   3.658  15.807  0.00  0.00    +0.000 OA
ATOM     26  C   UNL     1       6.277   4.018  14.473  0.00  0.00    +0.000 C 
ENDBRANCH  22  25
BRANCH  23  27
ATOM     27  O   UNL     1       3.786   2.700  17.507  0.00  0.00    +0.000 OA
ATOM     28  C   UNL     1       3.529   2.199  18.812  0.00  0.00    +0.000 C 
ENDBRANCH  23  27
ENDBRANCH   7  19
TORSDOF 5
ENDMDL
MODEL 3
REMARK VINA RESULT:      -7.5      1.014      1.050
REMARK  Name = 
REMARK  8 active torsions:
REMARK  status: ('A' for Active; 'I' for Inactive)
REMARK    1  A    between atoms: C_1  and  C_2
REMARK    2  A    between atoms: C_2  and  N_3
REMARK    3  A    between atoms: N_6  and  C_7
REMARK    4  A    between atoms: C_13  and  C_14
REMARK    5  A    between atoms: C_17  and  O_18
REMARK    6  A    between atoms: O_18  and  C_19
REMARK    7  A    between atoms: C_20  and  O_21
REMARK    8  A    between atoms: O_21  and  C_22
REMARK                            x       y       z     vdW  Elec       q    Type
REMARK                         _______ _______ _______ _____ _____    ______ ____
ROOT
ATOM      1  C   UNL     1       3.676   3.878  17.876  0.00  0.00    +0.000 A 
ATOM      2  C   UNL     1       3.736   2.709  18.637  0.00  0.00    +0.000 A 
ATOM      3  C   UNL     1       3.294   2.744  19.942  0.00  0.00    +0.000 A 
ATOM      4  N   UNL     1       2.824   3.853  20.531  0.00  0.00    +0.000 NA
ATOM      5  C   UNL     1       2.791   4.978  19.796  0.00  0.00    +0.000 A 
ATOM      6  C   UNL     1       2.256   6.115  20.381  0.00  0.00    +0.000 A 
ATOM      7  C   UNL     1       2.122   7.323  19.687  0.00  0.00    +0.000 A 
ATOM      8  C   UNL     1       2.626   7.314  18.386  0.00  0.00    +0.000 A 
ATOM      9  N   UNL     1       3.172   6.238  17.761  0.00  0.00    +0.000 NA
ATOM     10  C   UNL     1       3.224   5.070  18.458  0.00  0.00    +0.000 A 
ENDROOT
BRANCH   1  14
ATOM     11  N   UNL     1       5.379   4.047  14.644  0.00  0.00    +0.000 N 
ATOM     12  C   UNL     1       5.308   4.104  16.015  0.00  0.00    +0.000 C 
ATOM     13  O   UNL     1       6.309   4.295  16.700  0.00  0.00    +0.000 OA
ATOM     14  N   UNL     1       4.032   3.890  16.497  0.00  0.00    +0.000 N 
ATOM     15  H   UNL     1       4.540   4.250  14.124  0.00  0.00    +0.000 HD
ATOM     16  H   UNL     1       3.377   3.414  15.890  0.00  0.00    +0.000 HD
BRANCH  11  18
ATOM     17  C   UNL     1       6.626   3.775  12.525  0.00  0.00    +0.000 C 
ATOM     18  C   UNL     1       6.661   4.208  13.982  0.00  0.00    +0.000 C 
ENDBRANCH  11  18
ENDBRANCH   1  14
BRANCH   7  19
ATOM     19  C   UNL     1       1.433   8.494  20.279  0.00  0.00    +0.000 A 
ATOM     20  C   UNL     1       1.143   8.550  21.649  0.00  0.00    +0.000 A 
ATOM     21  C   UNL     1       0.445   9.628  22.197  0.00  0.00    +0.000 A 
ATOM     22  C   UNL     1      -0.005  10.683  21.398  0.00  0.00    +0.000 A 
ATOM     23  C   UNL     1       0.271  10.659  20.022  0.00  0.00    +0.000 A 
ATOM     24  C   UNL     1       1.002   9.578  19.490  0.00  0.00    +0.000 A 
BRANCH  22  25
ATOM     25  O   UNL     1      -0.685  11.625  22.126  0.00  0.00    +0.000 OA
ATOM     26  C   UNL     1      -1.584  11.198  23.136  0.00  0.00    +0.000 C 
ENDBRANCH  22  25
BRANCH  23  27
ATOM     27  O   UNL     1      -0.197  11.687  19.246  0.00  0.00    +0.000 OA
ATOM     28  C   UNL     1       0.730  12.649  18.759  0.00  0.00    +0.000 C 
ENDBRANCH  23  27
ENDBRANCH   7  19
TORSDOF 5
ENDMDL
MODEL 4
REMARK VINA RESULT:      -7.5      2.888      8.496
REMARK  Name = 
REMARK  8 active torsions:
REMARK  status: ('A' for Active; 'I' for Inactive)
REMARK    1  A    between atoms: C_1  and  C_2
REMARK    2  A    between atoms: C_2  and  N_3
REMARK    3  A    between atoms: N_6  and  C_7
REMARK    4  A    between atoms: C_13  and  C_14
REMARK    5  A    between atoms: C_17  and  O_18
REMARK    6  A    between atoms: O_18  and  C_19
REMARK    7  A    between atoms: C_20  and  O_21
REMARK    8  A    between atoms: O_21  and  C_22
REMARK                            x       y       z     vdW  Elec       q    Type
REMARK                         _______ _______ _______ _____ _____    ______ ____
ROOT
ATOM      1  C   UNL     1      -0.461  10.466  19.778  0.00  0.00    +0.000 A 
ATOM      2  C   UNL     1      -0.695  10.675  21.139  0.00  0.00    +0.000 A 
ATOM      3  C   UNL     1       0.038   9.951  22.055  0.00  0.00    +0.000 A 
ATOM      4  N   UNL     1       0.956   9.036  21.708  0.00  0.00    +0.000 NA
ATOM      5  C   UNL     1       1.157   8.828  20.395  0.00  0.00    +0.000 A 
ATOM      6  C   UNL     1       2.141   7.925  20.029  0.00  0.00    +0.000 A 
ATOM      7  C   UNL     1       2.471   7.676  18.692  0.00  0.00    +0.000 A 
ATOM      8  C   UNL     1       1.689   8.355  17.756  0.00  0.00    +0.000 A 
ATOM      9  N   UNL     1       0.704   9.243  18.051  0.00  0.00    +0.000 NA
ATOM     10  C   UNL     1       0.464   9.496  19.366  0.00  0.00    +0.000 A 
ENDROOT
BRANCH   1  14
ATOM     11  N   UNL     1      -2.643  11.762  17.145  0.00  0.00    +0.000 N 
ATOM     12  C   UNL     1      -2.188  10.808  18.023  0.00  0.00    +0.000 C 
ATOM     13  O   UNL     1      -2.729   9.710  18.112  0.00  0.00    +0.000 OA
ATOM     14  N   UNL     1      -1.118  11.242  18.780  0.00  0.00    +0.000 N 
ATOM     15  H   UNL     1      -1.992  12.470  16.845  0.00  0.00    +0.000 HD
ATOM     16  H   UNL     1      -0.984  12.241  18.870  0.00  0.00    +0.000 HD
BRANCH  11  18
ATOM     17  C   UNL     1      -3.425  10.691  15.056  0.00  0.00    +0.000 C 
ATOM     18  C   UNL     1      -3.793  11.477  16.305  0.00  0.00    +0.000 C 
ENDBRANCH  11  18
ENDBRANCH   1  14
BRANCH   7  19
ATOM     19  C   UNL     1       3.608   6.805  18.315  0.00  0.00    +0.000 A 
ATOM     20  C   UNL     1       4.386   7.076  17.179  0.00  0.00    +0.000 A 
ATOM     21  C   UNL     1       5.423   6.226  16.792  0.00  0.00    +0.000 A 
ATOM     22  C   UNL     1       5.714   5.063  17.511  0.00  0.00    +0.000 A 
ATOM     23  C   UNL     1       4.957   4.763  18.654  0.00  0.00    +0.000 A 
ATOM     24  C   UNL     1       3.933   5.647  19.048  0.00  0.00    +0.000 A 
BRANCH  22  25
ATOM     25  O   UNL     1       6.750   4.360  16.953  0.00  0.00    +0.000 OA
ATOM     26  C   UNL     1       6.824   4.247  15.541  0.00  0.00    +0.000 C 
ENDBRANCH  22  25
BRANCH  23  27
ATOM     27  O   UNL     1       5.237   3.607  19.335  0.00  0.00    +0.000 OA
ATOM     28  C   UNL     1       4.157   2.773  19.733  0.00  0.00    +0.000 C 
ENDBRANCH  23  27
ENDBRANCH   7  19
TORSDOF 5
ENDMDL
MODEL 5
REMARK VINA RESULT:      -7.3      1.212      1.240
REMARK  Name = 
REMARK  8 active torsions:
REMARK  status: ('A' for Active; 'I' for Inactive)
REMARK    1  A    between atoms: C_1  and  C_2
REMARK    2  A    between atoms: C_2  and  N_3
REMARK    3  A    between atoms: N_6  and  C_7
REMARK    4  A    between atoms: C_13  and  C_14
REMARK    5  A    between atoms: C_17  and  O_18
REMARK    6  A    between atoms: O_18  and  C_19
REMARK    7  A    between atoms: C_20  and  O_21
REMARK    8  A    between atoms: O_21  and  C_22
REMARK                            x       y       z     vdW  Elec       q    Type
REMARK                         _______ _______ _______ _____ _____    ______ ____
ROOT
ATOM      1  C   UNL     1       3.549   3.434  19.252  0.00  0.00    +0.000 A 
ATOM      2  C   UNL     1       2.905   2.267  19.665  0.00  0.00    +0.000 A 
ATOM      3  C   UNL     1       1.768   2.376  20.436  0.00  0.00    +0.000 A 
ATOM      4  N   UNL     1       1.254   3.551  20.831  0.00  0.00    +0.000 NA
ATOM      5  C   UNL     1       1.895   4.668  20.445  0.00  0.00    +0.000 A 
ATOM      6  C   UNL     1       1.340   5.886  20.803  0.00  0.00    +0.000 A 
ATOM      7  C   UNL     1       1.893   7.108  20.405  0.00  0.00    +0.000 A 
ATOM      8  C   UNL     1       3.081   7.008  19.679  0.00  0.00    +0.000 A 
ATOM      9  N   UNL     1       3.680   5.846  19.308  0.00  0.00    +0.000 NA
ATOM     10  C   UNL     1       3.069   4.685  19.667  0.00  0.00    +0.000 A 
ENDROOT
BRANCH   1  14
ATOM     11  N   UNL     1       5.861   3.545  16.420  0.00  0.00    +0.000 N 
ATOM     12  C   UNL     1       4.627   3.625  17.020  0.00  0.00    +0.000 C 
ATOM     13  O   UNL     1       3.620   3.904  16.377  0.00  0.00    +0.000 OA
ATOM     14  N   UNL     1       4.676   3.397  18.381  0.00  0.00    +0.000 N 
ATOM     15  H   UNL     1       6.564   2.983  16.871  0.00  0.00    +0.000 HD
ATOM     16  H   UNL     1       5.568   3.519  18.843  0.00  0.00    +0.000 HD
BRANCH  11  18
ATOM     17  C   UNL     1       7.011   4.881  14.684  0.00  0.00    +0.000 C 
ATOM     18  C   UNL     1       5.987   3.802  14.996  0.00  0.00    +0.000 C 
ENDBRANCH  11  18
ENDBRANCH   1  14
BRANCH   7  19
ATOM     19  C   UNL     1       1.224   8.399  20.684  0.00  0.00    +0.000 A 
ATOM     20  C   UNL     1       0.737   8.704  21.963  0.00  0.00    +0.000 A 
ATOM     21  C   UNL     1       0.056   9.897  22.213  0.00  0.00    +0.000 A 
ATOM     22  C   UNL     1      -0.181  10.825  21.194  0.00  0.00    +0.000 A 
ATOM     23  C   UNL     1       0.296  10.552  19.903  0.00  0.00    +0.000 A 
ATOM     24  C   UNL     1       1.006   9.357  19.674  0.00  0.00    +0.000 A 
BRANCH  22  25
ATOM     25  O   UNL     1      -0.881  11.914  21.644  0.00  0.00    +0.000 OA
ATOM     26  C   UNL     1      -1.570  11.827  22.881  0.00  0.00    +0.000 C 
ENDBRANCH  22  25
BRANCH  23  27
ATOM     27  O   UNL     1       0.036  11.458  18.908  0.00  0.00    +0.000 OA
ATOM     28  C   UNL     1       0.953  12.525  18.703  0.00  0.00    +0.000 C 
ENDBRANCH  23  27
ENDBRANCH   7  19
TORSDOF 5
ENDMDL
MODEL 6
REMARK VINA RESULT:      -7.2      1.243      2.017
REMARK  Name = 
REMARK  8 active torsions:
REMARK  status: ('A' for Active; 'I' for Inactive)
REMARK    1  A    between atoms: C_1  and  C_2
REMARK    2  A    between atoms: C_2  and  N_3
REMARK    3  A    between atoms: N_6  and  C_7
REMARK    4  A    between atoms: C_13  and  C_14
REMARK    5  A    between atoms: C_17  and  O_18
REMARK    6  A    between atoms: O_18  and  C_19
REMARK    7  A    between atoms: C_20  and  O_21
REMARK    8  A    between atoms: O_21  and  C_22
REMARK                            x       y       z     vdW  Elec       q    Type
REMARK                         _______ _______ _______ _____ _____    ______ ____
ROOT
ATOM      1  C   UNL     1       3.793   3.574  19.399  0.00  0.00    +0.000 A 
ATOM      2  C   UNL     1       3.217   2.449  19.991  0.00  0.00    +0.000 A 
ATOM      3  C   UNL     1       2.116   2.619  20.802  0.00  0.00    +0.000 A 
ATOM      4  N   UNL     1       1.576   3.817  21.071  0.00  0.00    +0.000 NA
ATOM      5  C   UNL     1       2.152   4.895  20.512  0.00  0.00    +0.000 A 
ATOM      6  C   UNL     1       1.568   6.130  20.741  0.00  0.00    +0.000 A 
ATOM      7  C   UNL     1       2.053   7.308  20.162  0.00  0.00    +0.000 A 
ATOM      8  C   UNL     1       3.206   7.155  19.391  0.00  0.00    +0.000 A 
ATOM      9  N   UNL     1       3.832   5.975  19.139  0.00  0.00    +0.000 NA
ATOM     10  C   UNL     1       3.286   4.851  19.676  0.00  0.00    +0.000 A 
ENDROOT
BRANCH   1  14
ATOM     11  N   UNL     1       5.968   3.456  16.460  0.00  0.00    +0.000 N 
ATOM     12  C   UNL     1       4.765   3.592  17.110  0.00  0.00    +0.000 C 
ATOM     13  O   UNL     1       3.730   3.838  16.497  0.00  0.00    +0.000 OA
ATOM     14  N   UNL     1       4.877   3.461  18.480  0.00  0.00    +0.000 N 
ATOM     15  H   UNL     1       6.687   2.918  16.916  0.00  0.00    +0.000 HD
ATOM     16  H   UNL     1       5.791   3.604  18.890  0.00  0.00    +0.000 HD
BRANCH  11  18
ATOM     17  C   UNL     1       6.910   4.772  14.588  0.00  0.00    +0.000 C 
ATOM     18  C   UNL     1       6.027   3.610  15.017  0.00  0.00    +0.000 C 
ENDBRANCH  11  18
ENDBRANCH   1  14
BRANCH   7  19
ATOM     19  C   UNL     1       1.347   8.602  20.309  0.00  0.00    +0.000 A 
ATOM     20  C   UNL     1       1.122   9.438  19.206  0.00  0.00    +0.000 A 
ATOM     21  C   UNL     1       0.506  10.682  19.354  0.00  0.00    +0.000 A 
ATOM     22  C   UNL     1       0.107  11.150  20.609  0.00  0.00    +0.000 A 
ATOM     23  C   UNL     1       0.315  10.337  21.735  0.00  0.00    +0.000 A 
ATOM     24  C   UNL     1       0.911   9.072  21.564  0.00  0.00    +0.000 A 
BRANCH  22  25
ATOM     25  O   UNL     1      -0.455  12.398  20.538  0.00  0.00    +0.000 OA
ATOM     26  C   UNL     1       0.392  13.536  20.549  0.00  0.00    +0.000 C 
ENDBRANCH  22  25
BRANCH  23  27
ATOM     27  O   UNL     1      -0.059  10.818  22.962  0.00  0.00    +0.000 OA
ATOM     28  C   UNL     1      -1.439  11.050  23.210  0.00  0.00    +0.000 C 
ENDBRANCH  23  27
ENDBRANCH   7  19
TORSDOF 5
ENDMDL
MODEL 7
REMARK VINA RESULT:      -7.2      0.941      1.842
REMARK  Name = 
REMARK  8 active torsions:
REMARK  status: ('A' for Active; 'I' for Inactive)
REMARK    1  A    between atoms: C_1  and  C_2
REMARK    2  A    between atoms: C_2  and  N_3
REMARK    3  A    between atoms: N_6  and  C_7
REMARK    4  A    between atoms: C_13  and  C_14
REMARK    5  A    between atoms: C_17  and  O_18
REMARK    6  A    between atoms: O_18  and  C_19
REMARK    7  A    between atoms: C_20  and  O_21
REMARK    8  A    between atoms: O_21  and  C_22
REMARK                            x       y       z     vdW  Elec       q    Type
REMARK                         _______ _______ _______ _____ _____    ______ ____
ROOT
ATOM      1  C   UNL     1       3.459   3.926  18.882  0.00  0.00    +0.000 A 
ATOM      2  C   UNL     1       3.267   2.927  19.838  0.00  0.00    +0.000 A 
ATOM      3  C   UNL     1       2.585   3.240  20.994  0.00  0.00    +0.000 A 
ATOM      4  N   UNL     1       2.109   4.465  21.261  0.00  0.00    +0.000 NA
ATOM      5  C   UNL     1       2.318   5.424  20.343  0.00  0.00    +0.000 A 
ATOM      6  C   UNL     1       1.783   6.679  20.587  0.00  0.00    +0.000 A 
ATOM      7  C   UNL     1       1.893   7.732  19.672  0.00  0.00    +0.000 A 
ATOM      8  C   UNL     1       2.638   7.443  18.528  0.00  0.00    +0.000 A 
ATOM      9  N   UNL     1       3.197   6.239  18.237  0.00  0.00    +0.000 NA
ATOM     10  C   UNL     1       3.009   5.231  19.130  0.00  0.00    +0.000 A 
ENDROOT
BRANCH   1  14
ATOM     11  N   UNL     1       5.687   3.677  15.993  0.00  0.00    +0.000 N 
ATOM     12  C   UNL     1       5.324   4.103  17.247  0.00  0.00    +0.000 C 
ATOM     13  O   UNL     1       6.076   4.787  17.934  0.00  0.00    +0.000 OA
ATOM     14  N   UNL     1       4.076   3.650  17.628  0.00  0.00    +0.000 N 
ATOM     15  H   UNL     1       4.951   3.448  15.345  0.00  0.00    +0.000 HD
ATOM     16  H   UNL     1       3.707   2.838  17.148  0.00  0.00    +0.000 HD
BRANCH  11  18
ATOM     17  C   UNL     1       6.902   4.803  14.155  0.00  0.00    +0.000 C 
ATOM     18  C   UNL     1       6.992   4.033  15.462  0.00  0.00    +0.000 C 
ENDBRANCH  11  18
ENDBRANCH   1  14
BRANCH   7  19
ATOM     19  C   UNL     1       1.209   9.029  19.884  0.00  0.00    +0.000 A 
ATOM     20  C   UNL     1       0.939   9.892  18.813  0.00  0.00    +0.000 A 
ATOM     21  C   UNL     1       0.344  11.138  19.020  0.00  0.00    +0.000 A 
ATOM     22  C   UNL     1       0.013  11.580  20.304  0.00  0.00    +0.000 A 
ATOM     23  C   UNL     1       0.267  10.739  21.399  0.00  0.00    +0.000 A 
ATOM     24  C   UNL     1       0.841   9.473  21.169  0.00  0.00    +0.000 A 
BRANCH  22  25
ATOM     25  O   UNL     1      -0.538  12.836  20.289  0.00  0.00    +0.000 OA
ATOM     26  C   UNL     1      -1.944  12.970  20.155  0.00  0.00    +0.000 C 
ENDBRANCH  22  25
BRANCH  23  27
ATOM     27  O   UNL     1      -0.040  11.195  22.654  0.00  0.00    +0.000 OA
ATOM     28  C   UNL     1      -1.319  10.890  23.194  0.00  0.00    +0.000 C 
ENDBRANCH  23  27
ENDBRANCH   7  19
TORSDOF 5
ENDMDL
MODEL 8
REMARK VINA RESULT:      -7.2      3.364      8.624
REMARK  Name = 
REMARK  8 active torsions:
REMARK  status: ('A' for Active; 'I' for Inactive)
REMARK    1  A    between atoms: C_1  and  C_2
REMARK    2  A    between atoms: C_2  and  N_3
REMARK    3  A    between atoms: N_6  and  C_7
REMARK    4  A    between atoms: C_13  and  C_14
REMARK    5  A    between atoms: C_17  and  O_18
REMARK    6  A    between atoms: O_18  and  C_19
REMARK    7  A    between atoms: C_20  and  O_21
REMARK    8  A    between atoms: O_21  and  C_22
REMARK                            x       y       z     vdW  Elec       q    Type
REMARK                         _______ _______ _______ _____ _____    ______ ____
ROOT
ATOM      1  C   UNL     1      -0.034  11.547  21.149  0.00  0.00    +0.000 A 
ATOM      2  C   UNL     1      -0.707  11.641  22.368  0.00  0.00    +0.000 A 
ATOM      3  C   UNL     1      -0.819  10.512  23.151  0.00  0.00    +0.000 A 
ATOM      4  N   UNL     1      -0.330   9.315  22.794  0.00  0.00    +0.000 NA
ATOM      5  C   UNL     1       0.298   9.232  21.608  0.00  0.00    +0.000 A 
ATOM      6  C   UNL     1       0.853   8.012  21.256  0.00  0.00    +0.000 A 
ATOM      7  C   UNL     1       1.577   7.831  20.072  0.00  0.00    +0.000 A 
ATOM      8  C   UNL     1       1.639   8.952  19.243  0.00  0.00    +0.000 A 
ATOM      9  N   UNL     1       1.106  10.170  19.525  0.00  0.00    +0.000 NA
ATOM     10  C   UNL     1       0.466  10.311  20.717  0.00  0.00    +0.000 A 
ENDROOT
BRANCH   1  14
ATOM     11  N   UNL     1       1.246  14.580  19.554  0.00  0.00    +0.000 N 
ATOM     12  C   UNL     1       1.251  13.570  20.486  0.00  0.00    +0.000 C 
ATOM     13  O   UNL     1       2.140  13.480  21.327  0.00  0.00    +0.000 OA
ATOM     14  N   UNL     1       0.196  12.693  20.333  0.00  0.00    +0.000 N 
ATOM     15  H   UNL     1       0.362  14.830  19.141  0.00  0.00    +0.000 HD
ATOM     16  H   UNL     1      -0.259  12.662  19.430  0.00  0.00    +0.000 HD
BRANCH  11  18
ATOM     17  C   UNL     1       1.812  16.976  19.800  0.00  0.00    +0.000 C 
ATOM     18  C   UNL     1       2.315  15.562  19.552  0.00  0.00    +0.000 C 
ENDBRANCH  11  18
ENDBRANCH   1  14
BRANCH   7  19
ATOM     19  C   UNL     1       2.273   6.560  19.766  0.00  0.00    +0.000 A 
ATOM     20  C   UNL     1       2.967   6.383  18.561  0.00  0.00    +0.000 A 
ATOM     21  C   UNL     1       3.577   5.167  18.248  0.00  0.00    +0.000 A 
ATOM     22  C   UNL     1       3.504   4.074  19.117  0.00  0.00    +0.000 A 
ATOM     23  C   UNL     1       2.819   4.218  20.334  0.00  0.00    +0.000 A 
ATOM     24  C   UNL     1       2.235   5.461  20.646  0.00  0.00    +0.000 A 
BRANCH  22  25
ATOM     25  O   UNL     1       4.148   2.973  18.613  0.00  0.00    +0.000 OA
ATOM     26  C   UNL     1       3.381   1.943  18.010  0.00  0.00    +0.000 C 
ENDBRANCH  22  25
BRANCH  23  27
ATOM     27  O   UNL     1       2.735   3.132  21.165  0.00  0.00    +0.000 OA
ATOM     28  C   UNL     1       1.448   2.624  21.492  0.00  0.00    +0.000 C 
ENDBRANCH  23  27
ENDBRANCH   7  19
TORSDOF 5
ENDMDL
MODEL 9
REMARK VINA RESULT:      -7.1      3.121      8.674
REMARK  Name = 
REMARK  8 active torsions:
REMARK  status: ('A' for Active; 'I' for Inactive)
REMARK    1  A    between atoms: C_1  and  C_2
REMARK    2  A    between atoms: C_2  and  N_3
REMARK    3  A    between atoms: N_6  and  C_7
REMARK    4  A    between atoms: C_13  and  C_14
REMARK    5  A    between atoms: C_17  and  O_18
REMARK    6  A    between atoms: O_18  and  C_19
REMARK    7  A    between atoms: C_20  and  O_21
REMARK    8  A    between atoms: O_21  and  C_22
REMARK                            x       y       z     vdW  Elec       q    Type
REMARK                         _______ _______ _______ _____ _____    ______ ____
ROOT
ATOM      1  C   UNL     1       0.142  10.897  20.847  0.00  0.00    +0.000 A 
ATOM      2  C   UNL     1      -0.217  10.641  22.171  0.00  0.00    +0.000 A 
ATOM      3  C   UNL     1       0.126   9.427  22.727  0.00  0.00    +0.000 A 
ATOM      4  N   UNL     1       0.772   8.463  22.052  0.00  0.00    +0.000 NA
ATOM      5  C   UNL     1       1.093   8.713  20.771  0.00  0.00    +0.000 A 
ATOM      6  C   UNL     1       1.807   7.745  20.084  0.00  0.00    +0.000 A 
ATOM      7  C   UNL     1       2.241   7.926  18.767  0.00  0.00    +0.000 A 
ATOM      8  C   UNL     1       1.842   9.125  18.175  0.00  0.00    +0.000 A 
ATOM      9  N   UNL     1       1.132  10.108  18.790  0.00  0.00    +0.000 NA
ATOM     10  C   UNL     1       0.788   9.909  20.091  0.00  0.00    +0.000 A 
ENDROOT
BRANCH   1  14
ATOM     11  N   UNL     1       0.205  14.382  19.739  0.00  0.00    +0.000 N 
ATOM     12  C   UNL     1       0.643  13.303  20.467  0.00  0.00    +0.000 C 
ATOM     13  O   UNL     1       1.621  13.382  21.206  0.00  0.00    +0.000 OA
ATOM     14  N   UNL     1      -0.102  12.163  20.239  0.00  0.00    +0.000 N 
ATOM     15  H   UNL     1      -0.759  14.390  19.450  0.00  0.00    +0.000 HD
ATOM     16  H   UNL     1      -0.641  12.121  19.384  0.00  0.00    +0.000 HD
BRANCH  11  18
ATOM     17  C   UNL     1       1.846  15.886  18.659  0.00  0.00    +0.000 C 
ATOM     18  C   UNL     1       0.911  15.648  19.834  0.00  0.00    +0.000 C 
ENDBRANCH  11  18
ENDBRANCH   1  14
BRANCH   7  19
ATOM     19  C   UNL     1       3.112   6.940  18.086  0.00  0.00    +0.000 A 
ATOM     20  C   UNL     1       2.757   5.585  18.012  0.00  0.00    +0.000 A 
ATOM     21  C   UNL     1       3.604   4.647  17.419  0.00  0.00    +0.000 A 
ATOM     22  C   UNL     1       4.844   5.019  16.893  0.00  0.00    +0.000 A 
ATOM     23  C   UNL     1       5.229   6.367  16.948  0.00  0.00    +0.000 A 
ATOM     24  C   UNL     1       4.350   7.306  17.524  0.00  0.00    +0.000 A 
BRANCH  22  25
ATOM     25  O   UNL     1       5.527   3.946  16.379  0.00  0.00    +0.000 OA
ATOM     26  C   UNL     1       5.820   3.916  14.992  0.00  0.00    +0.000 C 
ENDBRANCH  22  25
BRANCH  23  27
ATOM     27  O   UNL     1       6.458   6.714  16.451  0.00  0.00    +0.000 OA
ATOM     28  C   UNL     1       7.473   7.114  17.363  0.00  0.00    +0.000 C 
ENDBRANCH  23  27
ENDBRANCH   7  19
TORSDOF 5
ENDMDL
