MODEL 1
REMARK VINA RESULT:      -8.3      0.000      0.000
REMARK  Name = 
REMARK  9 active torsions:
REMARK  status: ('A' for Active; 'I' for Inactive)
REMARK    1  A    between atoms: C_1  and  C_2
REMARK    2  A    between atoms: C_6  and  C_7
REMARK    3  A    between atoms: C_9  and  C_10
REMARK    4  A    between atoms: C_13  and  N_14
REMARK    5  A    between atoms: C_18  and  S_19
REMARK    6  A    between atoms: S_19  and  C_20
REMARK    7  A    between atoms: C_20  and  C_21
REMARK    8  A    between atoms: C_21  and  C_22
REMARK    9  A    between atoms: C_22  and  C_23
REMARK                            x       y       z     vdW  Elec       q    Type
REMARK                         _______ _______ _______ _____ _____    ______ ____
ROOT
ATOM      1  C   UNL     1       6.881   4.777  15.885  0.00  0.00    +0.000 C 
ATOM      2  C   UNL     1       5.601   4.388  16.555  0.00  0.00    +0.000 C 
ATOM      3  C   UNL     1       5.289   4.832  17.778  0.00  0.00    +0.000 C 
ATOM      4  N   UNL     1       6.142   5.632  18.506  0.00  0.00    +0.000 NA
ATOM      5  C   UNL     1       7.087   6.209  17.840  0.00  0.00    +0.000 C 
ATOM      6  N   UNL     1       7.337   6.043  16.471  0.00  0.00    +0.000 N 
ATOM      7  H   UNL     1       7.112   6.868  15.928  0.00  0.00    +0.000 HD
ENDROOT
BRANCH   1  13
ATOM      8  C   UNL     1       5.330   2.334  11.554  0.00  0.00    +0.000 C 
ATOM      9  C   UNL     1       6.122   3.387  12.286  0.00  0.00    +0.000 A 
ATOM     10  C   UNL     1       7.041   4.152  11.549  0.00  0.00    +0.000 A 
ATOM     11  C   UNL     1       7.796   5.127  12.184  0.00  0.00    +0.000 A 
ATOM     12  C   UNL     1       7.637   5.328  13.554  0.00  0.00    +0.000 A 
ATOM     13  C   UNL     1       6.744   4.563  14.356  0.00  0.00    +0.000 A 
ATOM     14  C   UNL     1       5.975   3.593  13.691  0.00  0.00    +0.000 A 
ENDBRANCH   1  13
BRANCH   3  15
ATOM     15  C   UNL     1       4.044   4.374  18.427  0.00  0.00    +0.000 A 
ATOM     16  C   UNL     1       4.098   3.304  19.325  0.00  0.00    +0.000 A 
ATOM     17  C   UNL     1       2.944   2.851  19.964  0.00  0.00    +0.000 A 
ATOM     18  C   UNL     1       1.703   3.427  19.688  0.00  0.00    +0.000 A 
ATOM     19  C   UNL     1       1.652   4.536  18.847  0.00  0.00    +0.000 A 
ATOM     20  C   UNL     1       2.807   4.999  18.206  0.00  0.00    +0.000 A 
BRANCH  18  21
ATOM     21  N   UNL     1       0.577   3.045  20.425  0.00  0.00    +0.000 N 
ATOM     22  H   UNL     1       0.549   2.053  20.642  0.00  0.00    +0.000 HD
ATOM     23  H   UNL     1      -0.298   3.378  20.036  0.00  0.00    +0.000 HD
ENDBRANCH  18  21
ENDBRANCH   3  15
BRANCH   5  24
ATOM     24  S   UNL     1       8.220   7.202  18.780  0.00  0.00    +0.000 S 
BRANCH  24  25
ATOM     25  C   UNL     1       8.251   8.880  17.985  0.00  0.00    +0.000 C 
BRANCH  25  26
ATOM     26  C   UNL     1       8.824  10.133  18.708  0.00  0.00    +0.000 C 
BRANCH  26  27
ATOM     27  C   UNL     1       9.837  11.086  18.032  0.00  0.00    +0.000 C 
BRANCH  27  28
ATOM     28  C   UNL     1      11.083  11.433  18.830  0.00  0.00    +0.000 C 
ATOM     29  N   UNL     1      12.118  11.719  19.491  0.00  0.00    +0.000 NA
ENDBRANCH  27  28
ENDBRANCH  26  27
ENDBRANCH  25  26
ENDBRANCH  24  25
ENDBRANCH   5  24
TORSDOF 8
ENDMDL
MODEL 2
REMARK VINA RESULT:      -8.3      0.995      1.122
REMARK  Name = 
REMARK  9 active torsions:
REMARK  status: ('A' for Active; 'I' for Inactive)
REMARK    1  A    between atoms: C_1  and  C_2
REMARK    2  A    between atoms: C_6  and  C_7
REMARK    3  A    between atoms: C_9  and  C_10
REMARK    4  A    between atoms: C_13  and  N_14
REMARK    5  A    between atoms: C_18  and  S_19
REMARK    6  A    between atoms: S_19  and  C_20
REMARK    7  A    between atoms: C_20  and  C_21
REMARK    8  A    between atoms: C_21  and  C_22
REMARK    9  A    between atoms: C_22  and  C_23
REMARK                            x       y       z     vdW  Elec       q    Type
REMARK                         _______ _______ _______ _____ _____    ______ ____
ROOT
ATOM      1  C   UNL     1       6.870   4.789  15.884  0.00  0.00    +0.000 C 
ATOM      2  C   UNL     1       5.590   4.397  16.552  0.00  0.00    +0.000 C 
ATOM      3  C   UNL     1       5.274   4.842  17.774  0.00  0.00    +0.000 C 
ATOM      4  N   UNL     1       6.123   5.646  18.502  0.00  0.00    +0.000 NA
ATOM      5  C   UNL     1       7.068   6.225  17.838  0.00  0.00    +0.000 C 
ATOM      6  N   UNL     1       7.321   6.058  16.469  0.00  0.00    +0.000 N 
ATOM      7  H   UNL     1       7.095   6.881  15.925  0.00  0.00    +0.000 HD
ENDROOT
BRANCH   1  13
ATOM      8  C   UNL     1       5.307   2.352  11.554  0.00  0.00    +0.000 C 
ATOM      9  C   UNL     1       6.110   3.398  12.287  0.00  0.00    +0.000 A 
ATOM     10  C   UNL     1       7.042   4.148  11.551  0.00  0.00    +0.000 A 
ATOM     11  C   UNL     1       7.806   5.115  12.187  0.00  0.00    +0.000 A 
ATOM     12  C   UNL     1       7.643   5.322  13.555  0.00  0.00    +0.000 A 
ATOM     13  C   UNL     1       6.737   4.572  14.356  0.00  0.00    +0.000 A 
ATOM     14  C   UNL     1       5.959   3.610  13.690  0.00  0.00    +0.000 A 
ENDBRANCH   1  13
BRANCH   3  15
ATOM     15  C   UNL     1       4.029   4.382  18.421  0.00  0.00    +0.000 A 
ATOM     16  C   UNL     1       3.583   5.029  19.577  0.00  0.00    +0.000 A 
ATOM     17  C   UNL     1       2.406   4.627  20.210  0.00  0.00    +0.000 A 
ATOM     18  C   UNL     1       1.672   3.543  19.728  0.00  0.00    +0.000 A 
ATOM     19  C   UNL     1       2.073   2.938  18.539  0.00  0.00    +0.000 A 
ATOM     20  C   UNL     1       3.250   3.339  17.896  0.00  0.00    +0.000 A 
BRANCH  18  21
ATOM     21  N   UNL     1       0.434   3.231  20.299  0.00  0.00    +0.000 N 
ATOM     22  H   UNL     1      -0.301   3.892  20.066  0.00  0.00    +0.000 HD
ATOM     23  H   UNL     1       0.479   3.041  21.295  0.00  0.00    +0.000 HD
ENDBRANCH  18  21
ENDBRANCH   3  15
BRANCH   5  24
ATOM     24  S   UNL     1       8.196   7.223  18.778  0.00  0.00    +0.000 S 
BRANCH  24  25
ATOM     25  C   UNL     1       8.221   8.900  17.982  0.00  0.00    +0.000 C 
BRANCH  25  26
ATOM     26  C   UNL     1       8.860  10.140  18.673  0.00  0.00    +0.000 C 
BRANCH  26  27
ATOM     27  C   UNL     1       9.813  11.102  17.927  0.00  0.00    +0.000 C 
BRANCH  27  28
ATOM     28  C   UNL     1       9.461  12.580  17.971  0.00  0.00    +0.000 C 
ATOM     29  N   UNL     1       9.168  13.806  18.007  0.00  0.00    +0.000 NA
ENDBRANCH  27  28
ENDBRANCH  26  27
ENDBRANCH  25  26
ENDBRANCH  24  25
ENDBRANCH   5  24
TORSDOF 8
ENDMDL
MODEL 3
REMARK VINA RESULT:      -8.0      3.836      7.037
REMARK  Name = 
REMARK  9 active torsions:
REMARK  status: ('A' for Active; 'I' for Inactive)
REMARK    1  A    between atoms: C_1  and  C_2
REMARK    2  A    between atoms: C_6  and  C_7
REMARK    3  A    between atoms: C_9  and  C_10
REMARK    4  A    between atoms: C_13  and  N_14
REMARK    5  A    between atoms: C_18  and  S_19
REMARK    6  A    between atoms: S_19  and  C_20
REMARK    7  A    between atoms: C_20  and  C_21
REMARK    8  A    between atoms: C_21  and  C_22
REMARK    9  A    between atoms: C_22  and  C_23
REMARK                            x       y       z     vdW  Elec       q    Type
REMARK                         _______ _______ _______ _____ _____    ______ ____
ROOT
ATOM      1  C   UNL     1       3.680   5.235  18.063  0.00  0.00    +0.000 C 
ATOM      2  C   UNL     1       3.111   6.612  18.202  0.00  0.00    +0.000 C 
ATOM      3  C   UNL     1       2.414   6.973  19.285  0.00  0.00    +0.000 C 
ATOM      4  N   UNL     1       2.142   6.092  20.308  0.00  0.00    +0.000 NA
ATOM      5  C   UNL     1       2.863   5.021  20.344  0.00  0.00    +0.000 C 
ATOM      6  N   UNL     1       3.846   4.670  19.407  0.00  0.00    +0.000 N 
ATOM      7  H   UNL     1       4.785   4.732  19.781  0.00  0.00    +0.000 HD
ENDROOT
BRANCH   1  13
ATOM      8  C   UNL     1       6.179   3.782  13.729  0.00  0.00    +0.000 C 
ATOM      9  C   UNL     1       6.088   4.529  15.036  0.00  0.00    +0.000 A 
ATOM     10  C   UNL     1       7.248   5.160  15.516  0.00  0.00    +0.000 A 
ATOM     11  C   UNL     1       7.210   5.852  16.717  0.00  0.00    +0.000 A 
ATOM     12  C   UNL     1       6.020   5.903  17.438  0.00  0.00    +0.000 A 
ATOM     13  C   UNL     1       4.823   5.257  17.016  0.00  0.00    +0.000 A 
ATOM     14  C   UNL     1       4.876   4.577  15.788  0.00  0.00    +0.000 A 
ENDBRANCH   1  13
BRANCH   3  15
ATOM     15  C   UNL     1       1.818   8.322  19.355  0.00  0.00    +0.000 A 
ATOM     16  C   UNL     1       1.865   9.147  18.226  0.00  0.00    +0.000 A 
ATOM     17  C   UNL     1       1.304  10.423  18.252  0.00  0.00    +0.000 A 
ATOM     18  C   UNL     1       0.723  10.923  19.418  0.00  0.00    +0.000 A 
ATOM     19  C   UNL     1       0.612  10.084  20.524  0.00  0.00    +0.000 A 
ATOM     20  C   UNL     1       1.168   8.800  20.503  0.00  0.00    +0.000 A 
BRANCH  18  21
ATOM     21  N   UNL     1       0.058  12.154  19.394  0.00  0.00    +0.000 N 
ATOM     22  H   UNL     1      -0.949  12.075  19.498  0.00  0.00    +0.000 HD
ATOM     23  H   UNL     1       0.318  12.743  18.609  0.00  0.00    +0.000 HD
ENDBRANCH  18  21
ENDBRANCH   3  15
BRANCH   5  24
ATOM     24  S   UNL     1       2.485   3.857  21.630  0.00  0.00    +0.000 S 
BRANCH  24  25
ATOM     25  C   UNL     1       1.200   2.703  20.949  0.00  0.00    +0.000 C 
BRANCH  25  26
ATOM     26  C   UNL     1       0.570   2.897  19.539  0.00  0.00    +0.000 C 
BRANCH  26  27
ATOM     27  C   UNL     1       1.229   2.342  18.256  0.00  0.00    +0.000 C 
BRANCH  27  28
ATOM     28  C   UNL     1       2.644   1.806  18.395  0.00  0.00    +0.000 C 
ATOM     29  N   UNL     1       3.818   1.360  18.510  0.00  0.00    +0.000 NA
ENDBRANCH  27  28
ENDBRANCH  26  27
ENDBRANCH  25  26
ENDBRANCH  24  25
ENDBRANCH   5  24
TORSDOF 8
ENDMDL
MODEL 4
REMARK VINA RESULT:      -7.7      3.837      6.342
REMARK  Name = 
REMARK  9 active torsions:
REMARK  status: ('A' for Active; 'I' for Inactive)
REMARK    1  A    between atoms: C_1  and  C_2
REMARK    2  A    between atoms: C_6  and  C_7
REMARK    3  A    between atoms: C_9  and  C_10
REMARK    4  A    between atoms: C_13  and  N_14
REMARK    5  A    between atoms: C_18  and  S_19
REMARK    6  A    between atoms: S_19  and  C_20
REMARK    7  A    between atoms: C_20  and  C_21
REMARK    8  A    between atoms: C_21  and  C_22
REMARK    9  A    between atoms: C_22  and  C_23
REMARK                            x       y       z     vdW  Elec       q    Type
REMARK                         _______ _______ _______ _____ _____    ______ ____
ROOT
ATOM      1  C   UNL     1       4.499   4.279  16.879  0.00  0.00    +0.000 C 
ATOM      2  C   UNL     1       3.834   5.573  17.226  0.00  0.00    +0.000 C 
ATOM      3  C   UNL     1       3.360   5.808  18.455  0.00  0.00    +0.000 C 
ATOM      4  N   UNL     1       3.415   4.861  19.454  0.00  0.00    +0.000 NA
ATOM      5  C   UNL     1       4.234   3.881  19.264  0.00  0.00    +0.000 C 
ATOM      6  N   UNL     1       5.016   3.684  18.118  0.00  0.00    +0.000 N 
ATOM      7  H   UNL     1       6.003   3.839  18.284  0.00  0.00    +0.000 HD
ENDROOT
BRANCH   1  13
ATOM      8  C   UNL     1       6.161   3.255  12.050  0.00  0.00    +0.000 C 
ATOM      9  C   UNL     1       6.260   3.960  13.379  0.00  0.00    +0.000 A 
ATOM     10  C   UNL     1       7.405   4.736  13.628  0.00  0.00    +0.000 A 
ATOM     11  C   UNL     1       7.540   5.397  14.840  0.00  0.00    +0.000 A 
ATOM     12  C   UNL     1       6.539   5.272  15.801  0.00  0.00    +0.000 A 
ATOM     13  C   UNL     1       5.374   4.475  15.615  0.00  0.00    +0.000 A 
ATOM     14  C   UNL     1       5.247   3.829  14.374  0.00  0.00    +0.000 A 
ENDBRANCH   1  13
BRANCH   3  15
ATOM     15  C   UNL     1       2.657   7.075  18.738  0.00  0.00    +0.000 A 
ATOM     16  C   UNL     1       2.094   7.275  20.002  0.00  0.00    +0.000 A 
ATOM     17  C   UNL     1       1.432   8.464  20.308  0.00  0.00    +0.000 A 
ATOM     18  C   UNL     1       1.276   9.461  19.345  0.00  0.00    +0.000 A 
ATOM     19  C   UNL     1       1.891   9.298  18.106  0.00  0.00    +0.000 A 
ATOM     20  C   UNL     1       2.563   8.110  17.794  0.00  0.00    +0.000 A 
BRANCH  18  21
ATOM     21  N   UNL     1       0.718  10.694  19.702  0.00  0.00    +0.000 N 
ATOM     22  H   UNL     1       1.388  11.456  19.714  0.00  0.00    +0.000 HD
ATOM     23  H   UNL     1       0.160  10.659  20.548  0.00  0.00    +0.000 HD
ENDBRANCH  18  21
ENDBRANCH   3  15
BRANCH   5  24
ATOM     24  S   UNL     1       4.273   2.631  20.524  0.00  0.00    +0.000 S 
BRANCH  24  25
ATOM     25  C   UNL     1       2.813   2.936  21.630  0.00  0.00    +0.000 C 
BRANCH  25  26
ATOM     26  C   UNL     1       1.372   2.484  21.250  0.00  0.00    +0.000 C 
BRANCH  26  27
ATOM     27  C   UNL     1       0.625   3.050  20.021  0.00  0.00    +0.000 C 
BRANCH  27  28
ATOM     28  C   UNL     1       1.143   2.628  18.656  0.00  0.00    +0.000 C 
ATOM     29  N   UNL     1       1.574   2.277  17.524  0.00  0.00    +0.000 NA
ENDBRANCH  27  28
ENDBRANCH  26  27
ENDBRANCH  25  26
ENDBRANCH  24  25
ENDBRANCH   5  24
TORSDOF 8
ENDMDL
MODEL 5
REMARK VINA RESULT:      -7.7      3.832      6.963
REMARK  Name = 
REMARK  9 active torsions:
REMARK  status: ('A' for Active; 'I' for Inactive)
REMARK    1  A    between atoms: C_1  and  C_2
REMARK    2  A    between atoms: C_6  and  C_7
REMARK    3  A    between atoms: C_9  and  C_10
REMARK    4  A    between atoms: C_13  and  N_14
REMARK    5  A    between atoms: C_18  and  S_19
REMARK    6  A    between atoms: S_19  and  C_20
REMARK    7  A    between atoms: C_20  and  C_21
REMARK    8  A    between atoms: C_21  and  C_22
REMARK    9  A    between atoms: C_22  and  C_23
REMARK                            x       y       z     vdW  Elec       q    Type
REMARK                         _______ _______ _______ _____ _____    ______ ____
ROOT
ATOM      1  C   UNL     1       3.589   5.470  18.017  0.00  0.00    +0.000 C 
ATOM      2  C   UNL     1       3.043   6.856  18.155  0.00  0.00    +0.000 C 
ATOM      3  C   UNL     1       2.298   7.212  19.208  0.00  0.00    +0.000 C 
ATOM      4  N   UNL     1       1.954   6.317  20.197  0.00  0.00    +0.000 NA
ATOM      5  C   UNL     1       2.649   5.230  20.247  0.00  0.00    +0.000 C 
ATOM      6  N   UNL     1       3.672   4.875  19.356  0.00  0.00    +0.000 N 
ATOM      7  H   UNL     1       4.591   4.908  19.780  0.00  0.00    +0.000 HD
ENDROOT
BRANCH   1  13
ATOM      8  C   UNL     1       6.330   3.969  13.849  0.00  0.00    +0.000 C 
ATOM      9  C   UNL     1       6.162   4.738  15.135  0.00  0.00    +0.000 A 
ATOM     10  C   UNL     1       7.288   5.392  15.664  0.00  0.00    +0.000 A 
ATOM     11  C   UNL     1       7.179   6.105  16.849  0.00  0.00    +0.000 A 
ATOM     12  C   UNL     1       5.951   6.155  17.505  0.00  0.00    +0.000 A 
ATOM     13  C   UNL     1       4.786   5.487  17.032  0.00  0.00    +0.000 A 
ATOM     14  C   UNL     1       4.912   4.786  15.822  0.00  0.00    +0.000 A 
ENDBRANCH   1  13
BRANCH   3  15
ATOM     15  C   UNL     1       1.728   8.572  19.274  0.00  0.00    +0.000 A 
ATOM     16  C   UNL     1       1.111   8.995  20.455  0.00  0.00    +0.000 A 
ATOM     17  C   UNL     1       0.571  10.278  20.558  0.00  0.00    +0.000 A 
ATOM     18  C   UNL     1       0.595  11.150  19.469  0.00  0.00    +0.000 A 
ATOM     19  C   UNL     1       1.267  10.761  18.313  0.00  0.00    +0.000 A 
ATOM     20  C   UNL     1       1.816   9.477  18.205  0.00  0.00    +0.000 A 
BRANCH  18  21
ATOM     21  N   UNL     1       0.161  12.471  19.625  0.00  0.00    +0.000 N 
ATOM     22  H   UNL     1       0.890  13.106  19.934  0.00  0.00    +0.000 HD
ATOM     23  H   UNL     1      -0.687  12.560  20.176  0.00  0.00    +0.000 HD
ENDBRANCH  18  21
ENDBRANCH   3  15
BRANCH   5  24
ATOM     24  S   UNL     1       2.179   4.050  21.488  0.00  0.00    +0.000 S 
BRANCH  24  25
ATOM     25  C   UNL     1       1.163   2.750  20.636  0.00  0.00    +0.000 C 
BRANCH  25  26
ATOM     26  C   UNL     1       1.210   2.533  19.095  0.00  0.00    +0.000 C 
BRANCH  26  27
ATOM     27  C   UNL     1       2.393   1.824  18.396  0.00  0.00    +0.000 C 
BRANCH  27  28
ATOM     28  C   UNL     1       3.711   1.794  19.153  0.00  0.00    +0.000 C 
ATOM     29  N   UNL     1       4.805   1.770  19.780  0.00  0.00    +0.000 NA
ENDBRANCH  27  28
ENDBRANCH  26  27
ENDBRANCH  25  26
ENDBRANCH  24  25
ENDBRANCH   5  24
TORSDOF 8
ENDMDL
MODEL 6
REMARK VINA RESULT:      -7.6      3.858      8.786
REMARK  Name = 
REMARK  9 active torsions:
REMARK  status: ('A' for Active; 'I' for Inactive)
REMARK    1  A    between atoms: C_1  and  C_2
REMARK    2  A    between atoms: C_6  and  C_7
REMARK    3  A    between atoms: C_9  and  C_10
REMARK    4  A    between atoms: C_13  and  N_14
REMARK    5  A    between atoms: C_18  and  S_19
REMARK    6  A    between atoms: S_19  and  C_20
REMARK    7  A    between atoms: C_20  and  C_21
REMARK    8  A    between atoms: C_21  and  C_22
REMARK    9  A    between atoms: C_22  and  C_23
REMARK                            x       y       z     vdW  Elec       q    Type
REMARK                         _______ _______ _______ _____ _____    ______ ____
ROOT
ATOM      1  C   UNL     1       2.353   7.376  20.114  0.00  0.00    +0.000 C 
ATOM      2  C   UNL     1       3.307   7.110  18.992  0.00  0.00    +0.000 C 
ATOM      3  C   UNL     1       3.866   5.906  18.822  0.00  0.00    +0.000 C 
ATOM      4  N   UNL     1       3.635   4.862  19.691  0.00  0.00    +0.000 NA
ATOM      5  C   UNL     1       2.608   4.983  20.465  0.00  0.00    +0.000 C 
ATOM      6  N   UNL     1       1.760   6.098  20.524  0.00  0.00    +0.000 N 
ATOM      7  H   UNL     1       0.842   5.913  20.142  0.00  0.00    +0.000 HD
ENDROOT
BRANCH   1  13
ATOM      8  C   UNL     1      -0.993  11.248  21.089  0.00  0.00    +0.000 C 
ATOM      9  C   UNL     1      -0.154  10.404  20.162  0.00  0.00    +0.000 A 
ATOM     10  C   UNL     1      -0.308  10.594  18.778  0.00  0.00    +0.000 A 
ATOM     11  C   UNL     1       0.438   9.834  17.890  0.00  0.00    +0.000 A 
ATOM     12  C   UNL     1       1.326   8.882  18.385  0.00  0.00    +0.000 A 
ATOM     13  C   UNL     1       1.500   8.625  19.775  0.00  0.00    +0.000 A 
ATOM     14  C   UNL     1       0.749   9.418  20.658  0.00  0.00    +0.000 A 
ENDBRANCH   1  13
BRANCH   3  15
ATOM     15  C   UNL     1       4.848   5.703  17.739  0.00  0.00    +0.000 A 
ATOM     16  C   UNL     1       4.515   4.873  16.664  0.00  0.00    +0.000 A 
ATOM     17  C   UNL     1       5.414   4.666  15.617  0.00  0.00    +0.000 A 
ATOM     18  C   UNL     1       6.682   5.247  15.642  0.00  0.00    +0.000 A 
ATOM     19  C   UNL     1       6.996   6.128  16.674  0.00  0.00    +0.000 A 
ATOM     20  C   UNL     1       6.096   6.344  17.725  0.00  0.00    +0.000 A 
BRANCH  18  21
ATOM     21  N   UNL     1       7.524   5.130  14.530  0.00  0.00    +0.000 N 
ATOM     22  H   UNL     1       7.105   4.630  13.753  0.00  0.00    +0.000 HD
ATOM     23  H   UNL     1       8.451   4.784  14.756  0.00  0.00    +0.000 HD
ENDBRANCH  18  21
ENDBRANCH   3  15
BRANCH   5  24
ATOM     24  S   UNL     1       2.333   3.664  21.621  0.00  0.00    +0.000 S 
BRANCH  24  25
ATOM     25  C   UNL     1       1.201   2.450  20.790  0.00  0.00    +0.000 C 
BRANCH  25  26
ATOM     26  C   UNL     1       0.692   2.648  19.332  0.00  0.00    +0.000 C 
BRANCH  26  27
ATOM     27  C   UNL     1       1.626   2.519  18.107  0.00  0.00    +0.000 C 
BRANCH  27  28
ATOM     28  C   UNL     1       2.927   1.762  18.319  0.00  0.00    +0.000 C 
ATOM     29  N   UNL     1       4.006   1.133  18.495  0.00  0.00    +0.000 NA
ENDBRANCH  27  28
ENDBRANCH  26  27
ENDBRANCH  25  26
ENDBRANCH  24  25
ENDBRANCH   5  24
TORSDOF 8
ENDMDL
MODEL 7
REMARK VINA RESULT:      -7.6      3.866      6.281
REMARK  Name = 
REMARK  9 active torsions:
REMARK  status: ('A' for Active; 'I' for Inactive)
REMARK    1  A    between atoms: C_1  and  C_2
REMARK    2  A    between atoms: C_6  and  C_7
REMARK    3  A    between atoms: C_9  and  C_10
REMARK    4  A    between atoms: C_13  and  N_14
REMARK    5  A    between atoms: C_18  and  S_19
REMARK    6  A    between atoms: S_19  and  C_20
REMARK    7  A    between atoms: C_20  and  C_21
REMARK    8  A    between atoms: C_21  and  C_22
REMARK    9  A    between atoms: C_22  and  C_23
REMARK                            x       y       z     vdW  Elec       q    Type
REMARK                         _______ _______ _______ _____ _____    ______ ____
ROOT
ATOM      1  C   UNL     1       4.589   4.097  16.817  0.00  0.00    +0.000 C 
ATOM      2  C   UNL     1       3.911   5.374  17.203  0.00  0.00    +0.000 C 
ATOM      3  C   UNL     1       3.501   5.596  18.457  0.00  0.00    +0.000 C 
ATOM      4  N   UNL     1       3.637   4.651  19.450  0.00  0.00    +0.000 NA
ATOM      5  C   UNL     1       4.469   3.693  19.213  0.00  0.00    +0.000 C 
ATOM      6  N   UNL     1       5.190   3.516  18.024  0.00  0.00    +0.000 N 
ATOM      7  H   UNL     1       6.180   3.697  18.134  0.00  0.00    +0.000 HD
ENDROOT
BRANCH   1  13
ATOM      8  C   UNL     1       6.034   3.086  11.916  0.00  0.00    +0.000 C 
ATOM      9  C   UNL     1       6.173   3.812  13.230  0.00  0.00    +0.000 A 
ATOM     10  C   UNL     1       7.293   4.641  13.410  0.00  0.00    +0.000 A 
ATOM     11  C   UNL     1       7.463   5.322  14.606  0.00  0.00    +0.000 A 
ATOM     12  C   UNL     1       6.521   5.165  15.620  0.00  0.00    +0.000 A 
ATOM     13  C   UNL     1       5.385   4.315  15.506  0.00  0.00    +0.000 A 
ATOM     14  C   UNL     1       5.220   3.649  14.280  0.00  0.00    +0.000 A 
ENDBRANCH   1  13
BRANCH   3  15
ATOM     15  C   UNL     1       2.783   6.845  18.781  0.00  0.00    +0.000 A 
ATOM     16  C   UNL     1       2.642   7.825  17.793  0.00  0.00    +0.000 A 
ATOM     17  C   UNL     1       1.960   9.013  18.060  0.00  0.00    +0.000 A 
ATOM     18  C   UNL     1       1.443   9.268  19.331  0.00  0.00    +0.000 A 
ATOM     19  C   UNL     1       1.520   8.269  20.299  0.00  0.00    +0.000 A 
ATOM     20  C   UNL     1       2.198   7.073  20.036  0.00  0.00    +0.000 A 
BRANCH  18  21
ATOM     21  N   UNL     1       0.658  10.406  19.549  0.00  0.00    +0.000 N 
ATOM     22  H   UNL     1      -0.252  10.364  19.102  0.00  0.00    +0.000 HD
ATOM     23  H   UNL     1       1.142  11.278  19.357  0.00  0.00    +0.000 HD
ENDBRANCH  18  21
ENDBRANCH   3  15
BRANCH   5  24
ATOM     24  S   UNL     1       4.613   2.444  20.467  0.00  0.00    +0.000 S 
BRANCH  24  25
ATOM     25  C   UNL     1       2.973   2.363  21.334  0.00  0.00    +0.000 C 
BRANCH  25  26
ATOM     26  C   UNL     1       2.027   3.595  21.445  0.00  0.00    +0.000 C 
BRANCH  26  27
ATOM     27  C   UNL     1       0.778   3.761  20.550  0.00  0.00    +0.000 C 
BRANCH  27  28
ATOM     28  C   UNL     1       0.708   2.885  19.309  0.00  0.00    +0.000 C 
ATOM     29  N   UNL     1       0.651   2.159  18.279  0.00  0.00    +0.000 NA
ENDBRANCH  27  28
ENDBRANCH  26  27
ENDBRANCH  25  26
ENDBRANCH  24  25
ENDBRANCH   5  24
TORSDOF 8
ENDMDL
MODEL 8
REMARK VINA RESULT:      -7.5      4.153      8.748
REMARK  Name = 
REMARK  9 active torsions:
REMARK  status: ('A' for Active; 'I' for Inactive)
REMARK    1  A    between atoms: C_1  and  C_2
REMARK    2  A    between atoms: C_6  and  C_7
REMARK    3  A    between atoms: C_9  and  C_10
REMARK    4  A    between atoms: C_13  and  N_14
REMARK    5  A    between atoms: C_18  and  S_19
REMARK    6  A    between atoms: S_19  and  C_20
REMARK    7  A    between atoms: C_20  and  C_21
REMARK    8  A    between atoms: C_21  and  C_22
REMARK    9  A    between atoms: C_22  and  C_23
REMARK                            x       y       z     vdW  Elec       q    Type
REMARK                         _______ _______ _______ _____ _____    ______ ____
ROOT
ATOM      1  C   UNL     1       2.141   7.444  20.143  0.00  0.00    +0.000 C 
ATOM      2  C   UNL     1       3.096   7.169  19.024  0.00  0.00    +0.000 C 
ATOM      3  C   UNL     1       3.600   5.947  18.820  0.00  0.00    +0.000 C 
ATOM      4  N   UNL     1       3.308   4.887  19.650  0.00  0.00    +0.000 NA
ATOM      5  C   UNL     1       2.277   5.031  20.416  0.00  0.00    +0.000 C 
ATOM      6  N   UNL     1       1.483   6.182  20.503  0.00  0.00    +0.000 N 
ATOM      7  H   UNL     1       0.561   6.055  20.104  0.00  0.00    +0.000 HD
ENDROOT
BRANCH   1  13
ATOM      8  C   UNL     1      -1.064  11.413  21.196  0.00  0.00    +0.000 C 
ATOM      9  C   UNL     1      -0.235  10.574  20.256  0.00  0.00    +0.000 A 
ATOM     10  C   UNL     1      -0.337  10.832  18.879  0.00  0.00    +0.000 A 
ATOM     11  C   UNL     1       0.403  10.080  17.979  0.00  0.00    +0.000 A 
ATOM     12  C   UNL     1       1.234   9.068  18.456  0.00  0.00    +0.000 A 
ATOM     13  C   UNL     1       1.353   8.743  19.836  0.00  0.00    +0.000 A 
ATOM     14  C   UNL     1       0.610   9.528  20.733  0.00  0.00    +0.000 A 
ENDBRANCH   1  13
BRANCH   3  15
ATOM     15  C   UNL     1       4.586   5.733  17.742  0.00  0.00    +0.000 A 
ATOM     16  C   UNL     1       4.582   6.589  16.637  0.00  0.00    +0.000 A 
ATOM     17  C   UNL     1       5.505   6.423  15.604  0.00  0.00    +0.000 A 
ATOM     18  C   UNL     1       6.423   5.372  15.630  0.00  0.00    +0.000 A 
ATOM     19  C   UNL     1       6.477   4.558  16.758  0.00  0.00    +0.000 A 
ATOM     20  C   UNL     1       5.557   4.722  17.801  0.00  0.00    +0.000 A 
BRANCH  18  21
ATOM     21  N   UNL     1       7.419   5.292  14.650  0.00  0.00    +0.000 N 
ATOM     22  H   UNL     1       7.074   5.001  13.741  0.00  0.00    +0.000 HD
ATOM     23  H   UNL     1       8.235   4.763  14.941  0.00  0.00    +0.000 HD
ENDBRANCH  18  21
ENDBRANCH   3  15
BRANCH   5  24
ATOM     24  S   UNL     1       1.924   3.689  21.523  0.00  0.00    +0.000 S 
BRANCH  24  25
ATOM     25  C   UNL     1       1.336   2.271  20.478  0.00  0.00    +0.000 C 
BRANCH  25  26
ATOM     26  C   UNL     1       1.729   2.123  18.979  0.00  0.00    +0.000 C 
BRANCH  26  27
ATOM     27  C   UNL     1       3.131   1.648  18.534  0.00  0.00    +0.000 C 
BRANCH  27  28
ATOM     28  C   UNL     1       4.236   1.721  19.576  0.00  0.00    +0.000 C 
ATOM     29  N   UNL     1       5.152   1.781  20.440  0.00  0.00    +0.000 NA
ENDBRANCH  27  28
ENDBRANCH  26  27
ENDBRANCH  25  26
ENDBRANCH  24  25
ENDBRANCH   5  24
TORSDOF 8
ENDMDL
MODEL 9
REMARK VINA RESULT:      -7.4      3.816      8.459
REMARK  Name = 
REMARK  9 active torsions:
REMARK  status: ('A' for Active; 'I' for Inactive)
REMARK    1  A    between atoms: C_1  and  C_2
REMARK    2  A    between atoms: C_6  and  C_7
REMARK    3  A    between atoms: C_9  and  C_10
REMARK    4  A    between atoms: C_13  and  N_14
REMARK    5  A    between atoms: C_18  and  S_19
REMARK    6  A    between atoms: S_19  and  C_20
REMARK    7  A    between atoms: C_20  and  C_21
REMARK    8  A    between atoms: C_21  and  C_22
REMARK    9  A    between atoms: C_22  and  C_23
REMARK                            x       y       z     vdW  Elec       q    Type
REMARK                         _______ _______ _______ _____ _____    ______ ____
ROOT
ATOM      1  C   UNL     1       2.702   6.118  18.910  0.00  0.00    +0.000 C 
ATOM      2  C   UNL     1       3.790   6.151  17.883  0.00  0.00    +0.000 C 
ATOM      3  C   UNL     1       4.122   5.060  17.182  0.00  0.00    +0.000 C 
ATOM      4  N   UNL     1       3.518   3.841  17.395  0.00  0.00    +0.000 NA
ATOM      5  C   UNL     1       2.401   3.865  18.043  0.00  0.00    +0.000 C 
ATOM      6  N   UNL     1       1.797   5.010  18.582  0.00  0.00    +0.000 N 
ATOM      7  H   UNL     1       0.956   5.280  18.088  0.00  0.00    +0.000 HD
ENDROOT
BRANCH   1  13
ATOM      8  C   UNL     1       0.298   9.902  21.562  0.00  0.00    +0.000 C 
ATOM      9  C   UNL     1       0.988   9.355  20.338  0.00  0.00    +0.000 A 
ATOM     10  C   UNL     1       1.001  10.149  19.179  0.00  0.00    +0.000 A 
ATOM     11  C   UNL     1       1.618   9.682  18.028  0.00  0.00    +0.000 A 
ATOM     12  C   UNL     1       2.211   8.421  18.036  0.00  0.00    +0.000 A 
ATOM     13  C   UNL     1       2.201   7.561  19.170  0.00  0.00    +0.000 A 
ATOM     14  C   UNL     1       1.587   8.060  20.331  0.00  0.00    +0.000 A 
ENDBRANCH   1  13
BRANCH   3  15
ATOM     15  C   UNL     1       5.242   5.122  16.221  0.00  0.00    +0.000 A 
ATOM     16  C   UNL     1       5.144   4.421  15.015  0.00  0.00    +0.000 A 
ATOM     17  C   UNL     1       6.178   4.465  14.080  0.00  0.00    +0.000 A 
ATOM     18  C   UNL     1       7.351   5.170  14.346  0.00  0.00    +0.000 A 
ATOM     19  C   UNL     1       7.429   5.925  15.515  0.00  0.00    +0.000 A 
ATOM     20  C   UNL     1       6.392   5.891  16.455  0.00  0.00    +0.000 A 
BRANCH  18  21
ATOM     21  N   UNL     1       8.326   5.305  13.351  0.00  0.00    +0.000 N 
ATOM     22  H   UNL     1       8.851   6.172  13.410  0.00  0.00    +0.000 HD
ATOM     23  H   UNL     1       7.978   5.129  12.414  0.00  0.00    +0.000 HD
ENDBRANCH  18  21
ENDBRANCH   3  15
BRANCH   5  24
ATOM     24  S   UNL     1       1.641   2.293  18.365  0.00  0.00    +0.000 S 
BRANCH  24  25
ATOM     25  C   UNL     1       0.637   2.488  19.914  0.00  0.00    +0.000 C 
BRANCH  25  26
ATOM     26  C   UNL     1       1.290   2.583  21.324  0.00  0.00    +0.000 C 
BRANCH  26  27
ATOM     27  C   UNL     1       2.681   3.219  21.549  0.00  0.00    +0.000 C 
BRANCH  27  28
ATOM     28  C   UNL     1       3.864   2.516  20.905  0.00  0.00    +0.000 C 
ATOM     29  N   UNL     1       4.846   1.932  20.371  0.00  0.00    +0.000 NA
ENDBRANCH  27  28
ENDBRANCH  26  27
ENDBRANCH  25  26
ENDBRANCH  24  25
ENDBRANCH   5  24
TORSDOF 8
ENDMDL
