MODEL 1
REMARK VINA RESULT:      -7.9      0.000      0.000
REMARK  Name = 
REMARK  3 active torsions:
REMARK  status: ('A' for Active; 'I' for Inactive)
REMARK    1  A    between atoms: C_1  and  C_2
REMARK    2  A    between atoms: C_9  and  O_10
REMARK    3  A    between atoms: C_20  and  O_21
REMARK                            x       y       z     vdW  Elec       q    Type
REMARK                         _______ _______ _______ _____ _____    ______ ____
ROOT
ATOM      1  C   UNL     1       1.183   3.333  19.507  0.00  0.00    +0.000 C 
ATOM      2  C   UNL     1       2.508   4.094  19.809  0.00  0.00    +0.000 C 
ATOM      3  C   UNL     1       2.296   4.845  21.139  0.00  0.00    +0.000 C 
ATOM      4  C   UNL     1       1.386   6.066  20.974  0.00  0.00    +0.000 C 
ATOM      5  C   UNL     1       2.041   7.089  20.035  0.00  0.00    +0.000 C 
ATOM      6  C   UNL     1       1.347   8.445  19.967  0.00  0.00    +0.000 A 
ATOM      7  C   UNL     1       0.612   8.969  21.047  0.00  0.00    +0.000 A 
ATOM      8  C   UNL     1       0.019  10.229  20.990  0.00  0.00    +0.000 A 
ATOM      9  C   UNL     1       0.164  10.999  19.850  0.00  0.00    +0.000 A 
ATOM     10  C   UNL     1       0.911  10.533  18.782  0.00  0.00    +0.000 A 
ATOM     11  C   UNL     1       1.522   9.262  18.836  0.00  0.00    +0.000 A 
ATOM     12  C   UNL     1       2.362   8.847  17.662  0.00  0.00    +0.000 C 
ATOM     13  C   UNL     1       2.990   7.458  17.749  0.00  0.00    +0.000 C 
ATOM     14  C   UNL     1       2.209   6.452  18.624  0.00  0.00    +0.000 C 
ATOM     15  C   UNL     1       2.981   5.100  18.704  0.00  0.00    +0.000 C 
ATOM     16  C   UNL     1       3.137   4.379  17.347  0.00  0.00    +0.000 C 
ATOM     17  C   UNL     1       4.112   3.202  17.442  0.00  0.00    +0.000 C 
ATOM     18  C   UNL     1       3.846   2.271  18.621  0.00  0.00    +0.000 C 
ATOM     19  C   UNL     1       3.659   3.044  19.936  0.00  0.00    +0.000 C 
ENDROOT
BRANCH   9  20
ATOM     20  O   UNL     1      -0.398  12.231  19.749  0.00  0.00    +0.000 OA
ATOM     21  H   UNL     1      -0.642  12.385  18.826  0.00  0.00    +0.000 HD
ENDBRANCH   9  20
BRANCH  19  22
ATOM     22  O   UNL     1       3.399   2.140  21.006  0.00  0.00    +0.000 OA
ATOM     23  H   UNL     1       3.607   1.240  20.705  0.00  0.00    +0.000 HD
ENDBRANCH  19  22
TORSDOF 2
ENDMDL
MODEL 2
REMARK VINA RESULT:      -7.5      1.086      1.193
REMARK  Name = 
REMARK  3 active torsions:
REMARK  status: ('A' for Active; 'I' for Inactive)
REMARK    1  A    between atoms: C_1  and  C_2
REMARK    2  A    between atoms: C_9  and  O_10
REMARK    3  A    between atoms: C_20  and  O_21
REMARK                            x       y       z     vdW  Elec       q    Type
REMARK                         _______ _______ _______ _____ _____    ______ ____
ROOT
ATOM      1  C   UNL     1       2.264   3.457  18.515  0.00  0.00    +0.000 C 
ATOM      2  C   UNL     1       3.400   4.411  18.988  0.00  0.00    +0.000 C 
ATOM      3  C   UNL     1       3.095   4.774  20.456  0.00  0.00    +0.000 C 
ATOM      4  C   UNL     1       1.929   5.761  20.576  0.00  0.00    +0.000 C 
ATOM      5  C   UNL     1       2.293   7.091  19.901  0.00  0.00    +0.000 C 
ATOM      6  C   UNL     1       1.313   8.233  20.148  0.00  0.00    +0.000 A 
ATOM      7  C   UNL     1       0.536   8.317  21.319  0.00  0.00    +0.000 A 
ATOM      8  C   UNL     1      -0.324   9.389  21.553  0.00  0.00    +0.000 A 
ATOM      9  C   UNL     1      -0.411  10.409  20.624  0.00  0.00    +0.000 A 
ATOM     10  C   UNL     1       0.365  10.379  19.478  0.00  0.00    +0.000 A 
ATOM     11  C   UNL     1       1.244   9.302  19.237  0.00  0.00    +0.000 A 
ATOM     12  C   UNL     1       2.095   9.365  18.001  0.00  0.00    +0.000 C 
ATOM     13  C   UNL     1       3.019   8.173  17.765  0.00  0.00    +0.000 C 
ATOM     14  C   UNL     1       2.526   6.845  18.381  0.00  0.00    +0.000 C 
ATOM     15  C   UNL     1       3.582   5.721  18.147  0.00  0.00    +0.000 C 
ATOM     16  C   UNL     1       3.824   5.381  16.660  0.00  0.00    +0.000 C 
ATOM     17  C   UNL     1       5.040   4.467  16.482  0.00  0.00    +0.000 C 
ATOM     18  C   UNL     1       5.047   3.258  17.413  0.00  0.00    +0.000 C 
ATOM     19  C   UNL     1       4.760   3.650  18.870  0.00  0.00    +0.000 C 
ENDROOT
BRANCH   9  20
ATOM     20  O   UNL     1      -1.237  11.471  20.809  0.00  0.00    +0.000 OA
ATOM     21  H   UNL     1      -2.151  11.157  20.813  0.00  0.00    +0.000 HD
ENDBRANCH   9  20
BRANCH  19  22
ATOM     22  O   UNL     1       4.762   2.493  19.701  0.00  0.00    +0.000 OA
ATOM     23  H   UNL     1       5.491   1.914  19.421  0.00  0.00    +0.000 HD
ENDBRANCH  19  22
TORSDOF 2
ENDMDL
MODEL 3
REMARK VINA RESULT:      -7.4      4.521      6.372
REMARK  Name = 
REMARK  3 active torsions:
REMARK  status: ('A' for Active; 'I' for Inactive)
REMARK    1  A    between atoms: C_1  and  C_2
REMARK    2  A    between atoms: C_9  and  O_10
REMARK    3  A    between atoms: C_20  and  O_21
REMARK                            x       y       z     vdW  Elec       q    Type
REMARK                         _______ _______ _______ _____ _____    ______ ____
ROOT
ATOM      1  C   UNL     1       2.007   1.490  18.714  0.00  0.00    +0.000 C 
ATOM      2  C   UNL     1       1.999   3.030  18.943  0.00  0.00    +0.000 C 
ATOM      3  C   UNL     1       1.674   3.682  17.584  0.00  0.00    +0.000 C 
ATOM      4  C   UNL     1       2.860   3.620  16.616  0.00  0.00    +0.000 C 
ATOM      5  C   UNL     1       4.040   4.427  17.175  0.00  0.00    +0.000 C 
ATOM      6  C   UNL     1       5.199   4.637  16.206  0.00  0.00    +0.000 A 
ATOM      7  C   UNL     1       5.015   4.683  14.812  0.00  0.00    +0.000 A 
ATOM      8  C   UNL     1       6.075   4.920  13.938  0.00  0.00    +0.000 A 
ATOM      9  C   UNL     1       7.343   5.131  14.448  0.00  0.00    +0.000 A 
ATOM     10  C   UNL     1       7.556   5.130  15.816  0.00  0.00    +0.000 A 
ATOM     11  C   UNL     1       6.486   4.900  16.707  0.00  0.00    +0.000 A 
ATOM     12  C   UNL     1       6.782   4.969  18.177  0.00  0.00    +0.000 C 
ATOM     13  C   UNL     1       5.604   4.696  19.109  0.00  0.00    +0.000 C 
ATOM     14  C   UNL     1       4.511   3.782  18.512  0.00  0.00    +0.000 C 
ATOM     15  C   UNL     1       3.326   3.638  19.516  0.00  0.00    +0.000 C 
ATOM     16  C   UNL     1       3.706   2.953  20.847  0.00  0.00    +0.000 C 
ATOM     17  C   UNL     1       2.582   3.069  21.882  0.00  0.00    +0.000 C 
ATOM     18  C   UNL     1       1.206   2.685  21.346  0.00  0.00    +0.000 C 
ATOM     19  C   UNL     1       0.899   3.363  20.002  0.00  0.00    +0.000 C 
ENDROOT
BRANCH   9  20
ATOM     20  O   UNL     1       8.406   5.363  13.635  0.00  0.00    +0.000 OA
ATOM     21  H   UNL     1       8.241   4.942  12.781  0.00  0.00    +0.000 HD
ENDBRANCH   9  20
BRANCH  19  22
ATOM     22  O   UNL     1      -0.386   2.966  19.533  0.00  0.00    +0.000 OA
ATOM     23  H   UNL     1      -0.494   3.290  18.623  0.00  0.00    +0.000 HD
ENDBRANCH  19  22
TORSDOF 2
ENDMDL
MODEL 4
REMARK VINA RESULT:      -7.4      1.312      2.800
REMARK  Name = 
REMARK  3 active torsions:
REMARK  status: ('A' for Active; 'I' for Inactive)
REMARK    1  A    between atoms: C_1  and  C_2
REMARK    2  A    between atoms: C_9  and  O_10
REMARK    3  A    between atoms: C_20  and  O_21
REMARK                            x       y       z     vdW  Elec       q    Type
REMARK                         _______ _______ _______ _____ _____    ______ ____
ROOT
ATOM      1  C   UNL     1       5.132   4.953  19.279  0.00  0.00    +0.000 C 
ATOM      2  C   UNL     1       3.660   4.748  18.815  0.00  0.00    +0.000 C 
ATOM      3  C   UNL     1       3.466   5.608  17.551  0.00  0.00    +0.000 C 
ATOM      4  C   UNL     1       3.377   7.102  17.877  0.00  0.00    +0.000 C 
ATOM      5  C   UNL     1       2.140   7.380  18.744  0.00  0.00    +0.000 C 
ATOM      6  C   UNL     1       1.808   8.854  18.947  0.00  0.00    +0.000 A 
ATOM      7  C   UNL     1       2.138   9.838  17.996  0.00  0.00    +0.000 A 
ATOM      8  C   UNL     1       1.790  11.176  18.172  0.00  0.00    +0.000 A 
ATOM      9  C   UNL     1       1.088  11.554  19.301  0.00  0.00    +0.000 A 
ATOM     10  C   UNL     1       0.712  10.609  20.241  0.00  0.00    +0.000 A 
ATOM     11  C   UNL     1       1.053   9.251  20.065  0.00  0.00    +0.000 A 
ATOM     12  C   UNL     1       0.565   8.275  21.097  0.00  0.00    +0.000 C 
ATOM     13  C   UNL     1       0.970   6.818  20.883  0.00  0.00    +0.000 C 
ATOM     14  C   UNL     1       2.287   6.626  20.099  0.00  0.00    +0.000 C 
ATOM     15  C   UNL     1       2.558   5.107  19.872  0.00  0.00    +0.000 C 
ATOM     16  C   UNL     1       2.772   4.302  21.173  0.00  0.00    +0.000 C 
ATOM     17  C   UNL     1       2.778   2.794  20.908  0.00  0.00    +0.000 C 
ATOM     18  C   UNL     1       3.679   2.371  19.752  0.00  0.00    +0.000 C 
ATOM     19  C   UNL     1       3.452   3.231  18.499  0.00  0.00    +0.000 C 
ENDROOT
BRANCH   9  20
ATOM     20  O   UNL     1       0.729  12.846  19.516  0.00  0.00    +0.000 OA
ATOM     21  H   UNL     1       1.492  13.326  19.865  0.00  0.00    +0.000 HD
ENDBRANCH   9  20
BRANCH  19  22
ATOM     22  O   UNL     1       4.321   2.813  17.451  0.00  0.00    +0.000 OA
ATOM     23  H   UNL     1       4.059   1.920  17.171  0.00  0.00    +0.000 HD
ENDBRANCH  19  22
TORSDOF 2
ENDMDL
MODEL 5
REMARK VINA RESULT:      -7.4      1.195      6.999
REMARK  Name = 
REMARK  3 active torsions:
REMARK  status: ('A' for Active; 'I' for Inactive)
REMARK    1  A    between atoms: C_1  and  C_2
REMARK    2  A    between atoms: C_9  and  O_10
REMARK    3  A    between atoms: C_20  and  O_21
REMARK                            x       y       z     vdW  Elec       q    Type
REMARK                         _______ _______ _______ _____ _____    ______ ____
ROOT
ATOM      1  C   UNL     1      -0.245   9.870  17.950  0.00  0.00    +0.000 C 
ATOM      2  C   UNL     1       1.031   9.964  18.837  0.00  0.00    +0.000 C 
ATOM      3  C   UNL     1       2.236   9.684  17.917  0.00  0.00    +0.000 C 
ATOM      4  C   UNL     1       2.348   8.202  17.546  0.00  0.00    +0.000 C 
ATOM      5  C   UNL     1       2.601   7.361  18.805  0.00  0.00    +0.000 C 
ATOM      6  C   UNL     1       2.959   5.901  18.549  0.00  0.00    +0.000 A 
ATOM      7  C   UNL     1       3.613   5.482  17.375  0.00  0.00    +0.000 A 
ATOM      8  C   UNL     1       3.975   4.151  17.171  0.00  0.00    +0.000 A 
ATOM      9  C   UNL     1       3.702   3.213  18.150  0.00  0.00    +0.000 A 
ATOM     10  C   UNL     1       3.094   3.594  19.334  0.00  0.00    +0.000 A 
ATOM     11  C   UNL     1       2.733   4.941  19.551  0.00  0.00    +0.000 A 
ATOM     12  C   UNL     1       2.128   5.290  20.881  0.00  0.00    +0.000 C 
ATOM     13  C   UNL     1       1.732   6.752  21.071  0.00  0.00    +0.000 C 
ATOM     14  C   UNL     1       1.383   7.499  19.765  0.00  0.00    +0.000 C 
ATOM     15  C   UNL     1       1.073   8.997  20.071  0.00  0.00    +0.000 C 
ATOM     16  C   UNL     1      -0.160   9.216  20.974  0.00  0.00    +0.000 C 
ATOM     17  C   UNL     1      -0.263  10.669  21.446  0.00  0.00    +0.000 C 
ATOM     18  C   UNL     1      -0.112  11.696  20.327  0.00  0.00    +0.000 C 
ATOM     19  C   UNL     1       1.107  11.405  19.437  0.00  0.00    +0.000 C 
ENDROOT
BRANCH   9  20
ATOM     20  O   UNL     1       4.035   1.906  17.994  0.00  0.00    +0.000 OA
ATOM     21  H   UNL     1       4.693   1.672  18.662  0.00  0.00    +0.000 HD
ENDBRANCH   9  20
BRANCH  19  22
ATOM     22  O   UNL     1       1.202  12.377  18.400  0.00  0.00    +0.000 OA
ATOM     23  H   UNL     1       0.685  12.065  17.639  0.00  0.00    +0.000 HD
ENDBRANCH  19  22
TORSDOF 2
ENDMDL
MODEL 6
REMARK VINA RESULT:      -7.2      3.624      6.373
REMARK  Name = 
REMARK  3 active torsions:
REMARK  status: ('A' for Active; 'I' for Inactive)
REMARK    1  A    between atoms: C_1  and  C_2
REMARK    2  A    between atoms: C_9  and  O_10
REMARK    3  A    between atoms: C_20  and  O_21
REMARK                            x       y       z     vdW  Elec       q    Type
REMARK                         _______ _______ _______ _____ _____    ______ ____
ROOT
ATOM      1  C   UNL     1       3.228   2.324  19.833  0.00  0.00    +0.000 C 
ATOM      2  C   UNL     1       2.393   3.259  18.909  0.00  0.00    +0.000 C 
ATOM      3  C   UNL     1       2.402   2.622  17.505  0.00  0.00    +0.000 C 
ATOM      4  C   UNL     1       3.754   2.787  16.804  0.00  0.00    +0.000 C 
ATOM      5  C   UNL     1       4.048   4.276  16.570  0.00  0.00    +0.000 C 
ATOM      6  C   UNL     1       5.251   4.567  15.679  0.00  0.00    +0.000 A 
ATOM      7  C   UNL     1       5.672   3.680  14.670  0.00  0.00    +0.000 A 
ATOM      8  C   UNL     1       6.745   3.978  13.832  0.00  0.00    +0.000 A 
ATOM      9  C   UNL     1       7.411   5.180  13.979  0.00  0.00    +0.000 A 
ATOM     10  C   UNL     1       7.003   6.094  14.936  0.00  0.00    +0.000 A 
ATOM     11  C   UNL     1       5.911   5.804  15.782  0.00  0.00    +0.000 A 
ATOM     12  C   UNL     1       5.491   6.865  16.758  0.00  0.00    +0.000 C 
ATOM     13  C   UNL     1       4.319   6.507  17.669  0.00  0.00    +0.000 C 
ATOM     14  C   UNL     1       4.158   4.996  17.947  0.00  0.00    +0.000 C 
ATOM     15  C   UNL     1       2.890   4.744  18.818  0.00  0.00    +0.000 C 
ATOM     16  C   UNL     1       2.951   5.382  20.223  0.00  0.00    +0.000 C 
ATOM     17  C   UNL     1       1.593   5.322  20.930  0.00  0.00    +0.000 C 
ATOM     18  C   UNL     1       0.936   3.945  20.892  0.00  0.00    +0.000 C 
ATOM     19  C   UNL     1       0.940   3.342  19.478  0.00  0.00    +0.000 C 
ENDROOT
BRANCH   9  20
ATOM     20  O   UNL     1       8.464   5.511  13.187  0.00  0.00    +0.000 OA
ATOM     21  H   UNL     1       9.033   6.127  13.669  0.00  0.00    +0.000 HD
ENDBRANCH   9  20
BRANCH  19  22
ATOM     22  O   UNL     1       0.331   2.054  19.491  0.00  0.00    +0.000 OA
ATOM     23  H   UNL     1       0.866   1.467  20.051  0.00  0.00    +0.000 HD
ENDBRANCH  19  22
TORSDOF 2
ENDMDL
MODEL 7
REMARK VINA RESULT:      -7.1      9.678     11.610
REMARK  Name = 
REMARK  3 active torsions:
REMARK  status: ('A' for Active; 'I' for Inactive)
REMARK    1  A    between atoms: C_1  and  C_2
REMARK    2  A    between atoms: C_9  and  O_10
REMARK    3  A    between atoms: C_20  and  O_21
REMARK                            x       y       z     vdW  Elec       q    Type
REMARK                         _______ _______ _______ _____ _____    ______ ____
ROOT
ATOM      1  C   UNL     1       7.156  14.851  22.973  0.00  0.00    +0.000 C 
ATOM      2  C   UNL     1       8.451  14.092  23.386  0.00  0.00    +0.000 C 
ATOM      3  C   UNL     1       9.640  14.989  22.986  0.00  0.00    +0.000 C 
ATOM      4  C   UNL     1       9.874  14.995  21.472  0.00  0.00    +0.000 C 
ATOM      5  C   UNL     1      10.254  13.587  20.991  0.00  0.00    +0.000 C 
ATOM      6  C   UNL     1      10.737  13.504  19.547  0.00  0.00    +0.000 A 
ATOM      7  C   UNL     1      11.380  14.579  18.905  0.00  0.00    +0.000 A 
ATOM      8  C   UNL     1      11.856  14.475  17.599  0.00  0.00    +0.000 A 
ATOM      9  C   UNL     1      11.710  13.283  16.913  0.00  0.00    +0.000 A 
ATOM     10  C   UNL     1      11.116  12.192  17.524  0.00  0.00    +0.000 A 
ATOM     11  C   UNL     1      10.640  12.286  18.849  0.00  0.00    +0.000 A 
ATOM     12  C   UNL     1      10.058  11.047  19.465  0.00  0.00    +0.000 C 
ATOM     13  C   UNL     1       9.535  11.193  20.893  0.00  0.00    +0.000 C 
ATOM     14  C   UNL     1       9.067  12.617  21.263  0.00  0.00    +0.000 C 
ATOM     15  C   UNL     1       8.631  12.665  22.760  0.00  0.00    +0.000 C 
ATOM     16  C   UNL     1       7.419  11.770  23.095  0.00  0.00    +0.000 C 
ATOM     17  C   UNL     1       7.199  11.659  24.607  0.00  0.00    +0.000 C 
ATOM     18  C   UNL     1       7.210  13.000  25.334  0.00  0.00    +0.000 C 
ATOM     19  C   UNL     1       8.415  13.865  24.932  0.00  0.00    +0.000 C 
ENDROOT
BRANCH   9  20
ATOM     20  O   UNL     1      12.157  13.137  15.639  0.00  0.00    +0.000 OA
ATOM     21  H   UNL     1      11.610  12.476  15.192  0.00  0.00    +0.000 HD
ENDBRANCH   9  20
BRANCH  19  22
ATOM     22  O   UNL     1       8.379  15.111  25.622  0.00  0.00    +0.000 OA
ATOM     23  H   UNL     1       9.238  15.550  25.509  0.00  0.00    +0.000 HD
ENDBRANCH  19  22
TORSDOF 2
ENDMDL
MODEL 8
REMARK VINA RESULT:      -7.1      4.382      6.086
REMARK  Name = 
REMARK  3 active torsions:
REMARK  status: ('A' for Active; 'I' for Inactive)
REMARK    1  A    between atoms: C_1  and  C_2
REMARK    2  A    between atoms: C_9  and  O_10
REMARK    3  A    between atoms: C_20  and  O_21
REMARK                            x       y       z     vdW  Elec       q    Type
REMARK                         _______ _______ _______ _____ _____    ______ ____
ROOT
ATOM      1  C   UNL     1       7.678   4.384  17.415  0.00  0.00    +0.000 C 
ATOM      2  C   UNL     1       6.425   5.176  16.940  0.00  0.00    +0.000 C 
ATOM      3  C   UNL     1       5.968   6.043  18.131  0.00  0.00    +0.000 C 
ATOM      4  C   UNL     1       5.289   5.211  19.223  0.00  0.00    +0.000 C 
ATOM      5  C   UNL     1       4.004   4.571  18.678  0.00  0.00    +0.000 C 
ATOM      6  C   UNL     1       3.116   3.907  19.724  0.00  0.00    +0.000 A 
ATOM      7  C   UNL     1       3.079   4.339  21.063  0.00  0.00    +0.000 A 
ATOM      8  C   UNL     1       2.229   3.753  22.000  0.00  0.00    +0.000 A 
ATOM      9  C   UNL     1       1.386   2.730  21.609  0.00  0.00    +0.000 A 
ATOM     10  C   UNL     1       1.367   2.303  20.292  0.00  0.00    +0.000 A 
ATOM     11  C   UNL     1       2.217   2.898  19.335  0.00  0.00    +0.000 A 
ATOM     12  C   UNL     1       2.102   2.422  17.916  0.00  0.00    +0.000 C 
ATOM     13  C   UNL     1       3.052   3.074  16.914  0.00  0.00    +0.000 C 
ATOM     14  C   UNL     1       4.373   3.592  17.524  0.00  0.00    +0.000 C 
ATOM     15  C   UNL     1       5.224   4.306  16.429  0.00  0.00    +0.000 C 
ATOM     16  C   UNL     1       5.676   3.382  15.278  0.00  0.00    +0.000 C 
ATOM     17  C   UNL     1       6.281   4.180  14.118  0.00  0.00    +0.000 C 
ATOM     18  C   UNL     1       7.326   5.204  14.550  0.00  0.00    +0.000 C 
ATOM     19  C   UNL     1       6.838   6.067  15.724  0.00  0.00    +0.000 C 
ENDROOT
BRANCH   9  20
ATOM     20  O   UNL     1       0.543   2.128  22.488  0.00  0.00    +0.000 OA
ATOM     21  H   UNL     1      -0.279   1.908  22.028  0.00  0.00    +0.000 HD
ENDBRANCH   9  20
BRANCH  19  22
ATOM     22  O   UNL     1       7.848   6.998  16.104  0.00  0.00    +0.000 OA
ATOM     23  H   UNL     1       7.462   7.628  16.735  0.00  0.00    +0.000 HD
ENDBRANCH  19  22
TORSDOF 2
ENDMDL
MODEL 9
REMARK VINA RESULT:      -7.1      9.715     11.122
REMARK  Name = 
REMARK  3 active torsions:
REMARK  status: ('A' for Active; 'I' for Inactive)
REMARK    1  A    between atoms: C_1  and  C_2
REMARK    2  A    between atoms: C_9  and  O_10
REMARK    3  A    between atoms: C_20  and  O_21
REMARK                            x       y       z     vdW  Elec       q    Type
REMARK                         _______ _______ _______ _____ _____    ______ ____
ROOT
ATOM      1  C   UNL     1       9.497  12.622  17.931  0.00  0.00    +0.000 C 
ATOM      2  C   UNL     1      10.667  12.654  18.959  0.00  0.00    +0.000 C 
ATOM      3  C   UNL     1      10.535  11.384  19.824  0.00  0.00    +0.000 C 
ATOM      4  C   UNL     1       9.376  11.483  20.822  0.00  0.00    +0.000 C 
ATOM      5  C   UNL     1       9.634  12.623  21.818  0.00  0.00    +0.000 C 
ATOM      6  C   UNL     1       8.672  12.681  23.000  0.00  0.00    +0.000 A 
ATOM      7  C   UNL     1       8.040  11.532  23.513  0.00  0.00    +0.000 A 
ATOM      8  C   UNL     1       7.198  11.591  24.622  0.00  0.00    +0.000 A 
ATOM      9  C   UNL     1       6.982  12.804  25.250  0.00  0.00    +0.000 A 
ATOM     10  C   UNL     1       7.615  13.949  24.797  0.00  0.00    +0.000 A 
ATOM     11  C   UNL     1       8.477  13.896  23.681  0.00  0.00    +0.000 A 
ATOM     12  C   UNL     1       9.171  15.166  23.281  0.00  0.00    +0.000 C 
ATOM     13  C   UNL     1      10.080  15.073  22.057  0.00  0.00    +0.000 C 
ATOM     14  C   UNL     1       9.686  13.974  21.046  0.00  0.00    +0.000 C 
ATOM     15  C   UNL     1      10.724  13.919  19.883  0.00  0.00    +0.000 C 
ATOM     16  C   UNL     1      10.791  15.207  19.034  0.00  0.00    +0.000 C 
ATOM     17  C   UNL     1      11.991  15.194  18.082  0.00  0.00    +0.000 C 
ATOM     18  C   UNL     1      12.130  13.903  17.280  0.00  0.00    +0.000 C 
ATOM     19  C   UNL     1      12.015  12.655  18.168  0.00  0.00    +0.000 C 
ENDROOT
BRANCH   9  20
ATOM     20  O   UNL     1       6.168  12.909  26.332  0.00  0.00    +0.000 OA
ATOM     21  H   UNL     1       6.326  13.763  26.757  0.00  0.00    +0.000 HD
ENDBRANCH   9  20
BRANCH  19  22
ATOM     22  O   UNL     1      12.136  11.476  17.379  0.00  0.00    +0.000 OA
ATOM     23  H   UNL     1      13.061  11.180  17.407  0.00  0.00    +0.000 HD
ENDBRANCH  19  22
TORSDOF 2
ENDMDL
