MODEL 1
REMARK VINA RESULT:      -6.7      0.000      0.000
REMARK  Name = 
REMARK  7 active torsions:
REMARK  status: ('A' for Active; 'I' for Inactive)
REMARK    1  A    between atoms: N_5  and  C_6
REMARK    2  A    between atoms: C_6  and  C_7
REMARK    3  A    between atoms: C_8  and  C_9
REMARK    4  A    between atoms: C_9  and  C_10
REMARK    5  A    between atoms: C_10  and  P_11
REMARK    6  A    between atoms: P_11  and  O_13
REMARK    7  A    between atoms: P_11  and  O_14
REMARK                            x       y       z     vdW  Elec       q    Type
REMARK                         _______ _______ _______ _____ _____    ______ ____
ROOT
ATOM      1  C   UNL     1       5.044   4.236  18.702  0.00  0.00    +0.000 C 
ENDROOT
BRANCH   1   6
ATOM      2  N   UNL     1       7.577   5.198  13.898  0.00  0.00    +0.000 N 
ATOM      3  C   UNL     1       6.926   4.965  15.078  0.00  0.00    +0.000 A 
ATOM      4  C   UNL     1       5.455   4.855  15.088  0.00  0.00    +0.000 A 
ATOM      5  C   UNL     1       4.900   4.651  16.283  0.00  0.00    +0.000 A 
ATOM      6  N   UNL     1       5.668   4.556  17.422  0.00  0.00    +0.000 N 
ATOM      7  C   UNL     1       7.067   4.594  17.357  0.00  0.00    +0.000 A 
ATOM      8  O   UNL     1       7.759   4.405  18.354  0.00  0.00    +0.000 OA
ATOM      9  N   UNL     1       7.657   4.837  16.139  0.00  0.00    +0.000 NA
ATOM     10  H   UNL     1       7.157   4.831  13.054  0.00  0.00    +0.000 HD
ATOM     11  H   UNL     1       8.573   5.012  13.969  0.00  0.00    +0.000 HD
ENDBRANCH   1   6
BRANCH   1  12
ATOM     12  C   UNL     1       4.226   5.396  19.219  0.00  0.00    +0.000 C 
ATOM     13  C   UNL     1       3.175   5.304  20.055  0.00  0.00    +0.000 C 
BRANCH  13  14
ATOM     14  C   UNL     1       2.659   3.989  20.558  0.00  0.00    +0.000 C 
BRANCH  14  15
ATOM     15  C   UNL     1       1.263   3.594  20.096  0.00  0.00    +0.000 C 
BRANCH  15  16
ATOM     16  P   UNL     1       1.378   2.861  18.467  0.00  0.00    +0.000 P 
ATOM     17  O   UNL     1       1.416   3.813  17.321  0.00  0.00    +0.000 OA
BRANCH  16  18
ATOM     18  O   UNL     1       2.637   1.873  18.537  0.00  0.00    +0.000 OA
ATOM     19  H   UNL     1       3.230   1.879  17.763  0.00  0.00    +0.000 HD
ENDBRANCH  16  18
BRANCH  16  20
ATOM     20  O   UNL     1       0.190   1.797  18.371  0.00  0.00    +0.000 OA
ATOM     21  H   UNL     1       0.231   1.175  19.126  0.00  0.00    +0.000 HD
ENDBRANCH  16  20
ENDBRANCH  15  16
ENDBRANCH  14  15
ENDBRANCH  13  14
ENDBRANCH   1  12
TORSDOF 7
ENDMDL
MODEL 2
REMARK VINA RESULT:      -6.7      0.625      1.313
REMARK  Name = 
REMARK  7 active torsions:
REMARK  status: ('A' for Active; 'I' for Inactive)
REMARK    1  A    between atoms: N_5  and  C_6
REMARK    2  A    between atoms: C_6  and  C_7
REMARK    3  A    between atoms: C_8  and  C_9
REMARK    4  A    between atoms: C_9  and  C_10
REMARK    5  A    between atoms: C_10  and  P_11
REMARK    6  A    between atoms: P_11  and  O_13
REMARK    7  A    between atoms: P_11  and  O_14
REMARK                            x       y       z     vdW  Elec       q    Type
REMARK                         _______ _______ _______ _____ _____    ______ ____
ROOT
ATOM      1  C   UNL     1       5.173   4.211  18.758  0.00  0.00    +0.000 C 
ENDROOT
BRANCH   1   6
ATOM      2  N   UNL     1       7.544   5.198  13.877  0.00  0.00    +0.000 N 
ATOM      3  C   UNL     1       6.933   4.959  15.076  0.00  0.00    +0.000 A 
ATOM      4  C   UNL     1       5.465   4.826  15.132  0.00  0.00    +0.000 A 
ATOM      5  C   UNL     1       4.949   4.617  16.344  0.00  0.00    +0.000 A 
ATOM      6  N   UNL     1       5.753   4.537  17.459  0.00  0.00    +0.000 N 
ATOM      7  C   UNL     1       7.148   4.595  17.351  0.00  0.00    +0.000 A 
ATOM      8  O   UNL     1       7.873   4.419  18.327  0.00  0.00    +0.000 OA
ATOM      9  N   UNL     1       7.697   4.844  16.115  0.00  0.00    +0.000 NA
ATOM     10  H   UNL     1       7.105   4.823  13.046  0.00  0.00    +0.000 HD
ATOM     11  H   UNL     1       8.544   5.027  13.918  0.00  0.00    +0.000 HD
ENDBRANCH   1   6
BRANCH   1  12
ATOM     12  C   UNL     1       4.656   5.448  19.454  0.00  0.00    +0.000 C 
ATOM     13  C   UNL     1       3.384   5.889  19.429  0.00  0.00    +0.000 C 
BRANCH  13  14
ATOM     14  C   UNL     1       2.306   5.192  18.653  0.00  0.00    +0.000 C 
BRANCH  14  15
ATOM     15  C   UNL     1       1.542   4.103  19.393  0.00  0.00    +0.000 C 
BRANCH  15  16
ATOM     16  P   UNL     1       1.772   2.549  18.535  0.00  0.00    +0.000 P 
ATOM     17  O   UNL     1       2.786   1.623  19.114  0.00  0.00    +0.000 OA
BRANCH  16  18
ATOM     18  O   UNL     1       0.306   1.916  18.409  0.00  0.00    +0.000 OA
ATOM     19  H   UNL     1      -0.370   2.478  17.989  0.00  0.00    +0.000 HD
ENDBRANCH  16  18
BRANCH  16  20
ATOM     20  O   UNL     1       2.049   2.920  17.005  0.00  0.00    +0.000 OA
ATOM     21  H   UNL     1       2.175   3.886  16.909  0.00  0.00    +0.000 HD
ENDBRANCH  16  20
ENDBRANCH  15  16
ENDBRANCH  14  15
ENDBRANCH  13  14
ENDBRANCH   1  12
TORSDOF 7
ENDMDL
MODEL 3
REMARK VINA RESULT:      -6.7      3.552      6.008
REMARK  Name = 
REMARK  7 active torsions:
REMARK  status: ('A' for Active; 'I' for Inactive)
REMARK    1  A    between atoms: N_5  and  C_6
REMARK    2  A    between atoms: C_6  and  C_7
REMARK    3  A    between atoms: C_8  and  C_9
REMARK    4  A    between atoms: C_9  and  C_10
REMARK    5  A    between atoms: C_10  and  P_11
REMARK    6  A    between atoms: P_11  and  O_13
REMARK    7  A    between atoms: P_11  and  O_14
REMARK                            x       y       z     vdW  Elec       q    Type
REMARK                         _______ _______ _______ _____ _____    ______ ____
ROOT
ATOM      1  C   UNL     1       3.025   4.828  17.600  0.00  0.00    +0.000 C 
ENDROOT
BRANCH   1   6
ATOM      2  N   UNL     1       1.649   2.296  22.303  0.00  0.00    +0.000 N 
ATOM      3  C   UNL     1       1.964   2.929  21.132  0.00  0.00    +0.000 A 
ATOM      4  C   UNL     1       0.934   3.715  20.428  0.00  0.00    +0.000 A 
ATOM      5  C   UNL     1       1.320   4.278  19.283  0.00  0.00    +0.000 A 
ATOM      6  N   UNL     1       2.601   4.121  18.804  0.00  0.00    +0.000 N 
ATOM      7  C   UNL     1       3.569   3.427  19.542  0.00  0.00    +0.000 A 
ATOM      8  O   UNL     1       4.739   3.373  19.170  0.00  0.00    +0.000 OA
ATOM      9  N   UNL     1       3.182   2.810  20.708  0.00  0.00    +0.000 NA
ATOM     10  H   UNL     1       0.946   2.726  22.890  0.00  0.00    +0.000 HD
ATOM     11  H   UNL     1       2.476   2.001  22.812  0.00  0.00    +0.000 HD
ENDBRANCH   1   6
BRANCH   1  12
ATOM     12  C   UNL     1       3.157   6.312  17.852  0.00  0.00    +0.000 C 
ATOM     13  C   UNL     1       4.148   7.101  17.395  0.00  0.00    +0.000 C 
BRANCH  13  14
ATOM     14  C   UNL     1       5.291   6.568  16.583  0.00  0.00    +0.000 C 
BRANCH  14  15
ATOM     15  C   UNL     1       6.588   6.312  17.337  0.00  0.00    +0.000 C 
BRANCH  15  16
ATOM     16  P   UNL     1       7.251   4.729  16.831  0.00  0.00    +0.000 P 
ATOM     17  O   UNL     1       8.294   4.140  17.718  0.00  0.00    +0.000 OA
BRANCH  16  18
ATOM     18  O   UNL     1       5.974   3.788  16.610  0.00  0.00    +0.000 OA
ATOM     19  H   UNL     1       5.522   3.481  17.417  0.00  0.00    +0.000 HD
ENDBRANCH  16  18
BRANCH  16  20
ATOM     20  O   UNL     1       7.732   4.909  15.317  0.00  0.00    +0.000 OA
ATOM     21  H   UNL     1       7.820   5.860  15.102  0.00  0.00    +0.000 HD
ENDBRANCH  16  20
ENDBRANCH  15  16
ENDBRANCH  14  15
ENDBRANCH  13  14
ENDBRANCH   1  12
TORSDOF 7
ENDMDL
MODEL 4
REMARK VINA RESULT:      -6.6      3.280      5.909
REMARK  Name = 
REMARK  7 active torsions:
REMARK  status: ('A' for Active; 'I' for Inactive)
REMARK    1  A    between atoms: N_5  and  C_6
REMARK    2  A    between atoms: C_6  and  C_7
REMARK    3  A    between atoms: C_8  and  C_9
REMARK    4  A    between atoms: C_9  and  C_10
REMARK    5  A    between atoms: C_10  and  P_11
REMARK    6  A    between atoms: P_11  and  O_13
REMARK    7  A    between atoms: P_11  and  O_14
REMARK                            x       y       z     vdW  Elec       q    Type
REMARK                         _______ _______ _______ _____ _____    ______ ____
ROOT
ATOM      1  C   UNL     1       3.136   4.980  17.529  0.00  0.00    +0.000 C 
ENDROOT
BRANCH   1   6
ATOM      2  N   UNL     1       1.635   2.477  22.209  0.00  0.00    +0.000 N 
ATOM      3  C   UNL     1       1.990   3.118  21.055  0.00  0.00    +0.000 A 
ATOM      4  C   UNL     1       1.605   4.528  20.855  0.00  0.00    +0.000 A 
ATOM      5  C   UNL     1       1.972   5.067  19.692  0.00  0.00    +0.000 A 
ATOM      6  N   UNL     1       2.662   4.338  18.751  0.00  0.00    +0.000 N 
ATOM      7  C   UNL     1       3.072   3.024  19.012  0.00  0.00    +0.000 A 
ATOM      8  O   UNL     1       3.778   2.405  18.219  0.00  0.00    +0.000 OA
ATOM      9  N   UNL     1       2.674   2.438  20.190  0.00  0.00    +0.000 NA
ATOM     10  H   UNL     1       1.562   3.037  23.049  0.00  0.00    +0.000 HD
ATOM     11  H   UNL     1       2.152   1.614  22.342  0.00  0.00    +0.000 HD
ENDBRANCH   1   6
BRANCH   1  12
ATOM     12  C   UNL     1       3.418   6.447  17.754  0.00  0.00    +0.000 C 
ATOM     13  C   UNL     1       4.466   7.130  17.257  0.00  0.00    +0.000 C 
BRANCH  13  14
ATOM     14  C   UNL     1       5.528   6.479  16.421  0.00  0.00    +0.000 C 
BRANCH  14  15
ATOM     15  C   UNL     1       6.897   6.332  17.070  0.00  0.00    +0.000 C 
BRANCH  15  16
ATOM     16  P   UNL     1       7.070   4.661  17.686  0.00  0.00    +0.000 P 
ATOM     17  O   UNL     1       8.461   4.130  17.760  0.00  0.00    +0.000 OA
BRANCH  16  18
ATOM     18  O   UNL     1       6.289   4.643  19.084  0.00  0.00    +0.000 OA
ATOM     19  H   UNL     1       5.510   5.226  19.148  0.00  0.00    +0.000 HD
ENDBRANCH  16  18
BRANCH  16  20
ATOM     20  O   UNL     1       6.090   3.756  16.805  0.00  0.00    +0.000 OA
ATOM     21  H   UNL     1       5.253   3.598  17.286  0.00  0.00    +0.000 HD
ENDBRANCH  16  20
ENDBRANCH  15  16
ENDBRANCH  14  15
ENDBRANCH  13  14
ENDBRANCH   1  12
TORSDOF 7
ENDMDL
MODEL 5
REMARK VINA RESULT:      -6.5      2.019      2.292
REMARK  Name = 
REMARK  7 active torsions:
REMARK  status: ('A' for Active; 'I' for Inactive)
REMARK    1  A    between atoms: N_5  and  C_6
REMARK    2  A    between atoms: C_6  and  C_7
REMARK    3  A    between atoms: C_8  and  C_9
REMARK    4  A    between atoms: C_9  and  C_10
REMARK    5  A    between atoms: C_10  and  P_11
REMARK    6  A    between atoms: P_11  and  O_13
REMARK    7  A    between atoms: P_11  and  O_14
REMARK                            x       y       z     vdW  Elec       q    Type
REMARK                         _______ _______ _______ _____ _____    ______ ____
ROOT
ATOM      1  C   UNL     1       4.522   4.493  17.807  0.00  0.00    +0.000 C 
ENDROOT
BRANCH   1   6
ATOM      2  N   UNL     1       8.060   5.428  13.681  0.00  0.00    +0.000 N 
ATOM      3  C   UNL     1       7.168   5.183  14.686  0.00  0.00    +0.000 A 
ATOM      4  C   UNL     1       6.089   4.199  14.480  0.00  0.00    +0.000 A 
ATOM      5  C   UNL     1       5.249   4.038  15.503  0.00  0.00    +0.000 A 
ATOM      6  N   UNL     1       5.396   4.758  16.668  0.00  0.00    +0.000 N 
ATOM      7  C   UNL     1       6.478   5.628  16.849  0.00  0.00    +0.000 A 
ATOM      8  O   UNL     1       6.671   6.193  17.924  0.00  0.00    +0.000 OA
ATOM      9  N   UNL     1       7.335   5.833  15.794  0.00  0.00    +0.000 NA
ATOM     10  H   UNL     1       8.276   4.664  13.052  0.00  0.00    +0.000 HD
ATOM     11  H   UNL     1       8.882   5.923  14.012  0.00  0.00    +0.000 HD
ENDBRANCH   1   6
BRANCH   1  12
ATOM     12  C   UNL     1       3.254   5.310  17.727  0.00  0.00    +0.000 C 
ATOM     13  C   UNL     1       2.015   4.864  18.010  0.00  0.00    +0.000 C 
BRANCH  13  14
ATOM     14  C   UNL     1       1.743   3.447  18.420  0.00  0.00    +0.000 C 
BRANCH  14  15
ATOM     15  C   UNL     1       0.928   3.261  19.692  0.00  0.00    +0.000 C 
BRANCH  15  16
ATOM     16  P   UNL     1       2.039   3.238  21.094  0.00  0.00    +0.000 P 
ATOM     17  O   UNL     1       1.564   2.495  22.296  0.00  0.00    +0.000 OA
BRANCH  16  18
ATOM     18  O   UNL     1       3.439   2.715  20.515  0.00  0.00    +0.000 OA
ATOM     19  H   UNL     1       3.404   2.261  19.654  0.00  0.00    +0.000 HD
ENDBRANCH  16  18
BRANCH  16  20
ATOM     20  O   UNL     1       2.412   4.762  21.396  0.00  0.00    +0.000 OA
ATOM     21  H   UNL     1       1.837   5.359  20.875  0.00  0.00    +0.000 HD
ENDBRANCH  16  20
ENDBRANCH  15  16
ENDBRANCH  14  15
ENDBRANCH  13  14
ENDBRANCH   1  12
TORSDOF 7
ENDMDL
MODEL 6
REMARK VINA RESULT:      -6.5      0.392      1.168
REMARK  Name = 
REMARK  7 active torsions:
REMARK  status: ('A' for Active; 'I' for Inactive)
REMARK    1  A    between atoms: N_5  and  C_6
REMARK    2  A    between atoms: C_6  and  C_7
REMARK    3  A    between atoms: C_8  and  C_9
REMARK    4  A    between atoms: C_9  and  C_10
REMARK    5  A    between atoms: C_10  and  P_11
REMARK    6  A    between atoms: P_11  and  O_13
REMARK    7  A    between atoms: P_11  and  O_14
REMARK                            x       y       z     vdW  Elec       q    Type
REMARK                         _______ _______ _______ _____ _____    ______ ____
ROOT
ATOM      1  C   UNL     1       5.203   4.847  18.941  0.00  0.00    +0.000 C 
ENDROOT
BRANCH   1   6
ATOM      2  N   UNL     1       7.574   5.138  13.970  0.00  0.00    +0.000 N 
ATOM      3  C   UNL     1       6.964   5.077  15.192  0.00  0.00    +0.000 A 
ATOM      4  C   UNL     1       5.515   5.331  15.297  0.00  0.00    +0.000 A 
ATOM      5  C   UNL     1       5.007   5.275  16.528  0.00  0.00    +0.000 A 
ATOM      6  N   UNL     1       5.801   4.999  17.618  0.00  0.00    +0.000 N 
ATOM      7  C   UNL     1       7.159   4.691  17.464  0.00  0.00    +0.000 A 
ATOM      8  O   UNL     1       7.848   4.343  18.420  0.00  0.00    +0.000 OA
ATOM      9  N   UNL     1       7.710   4.778  16.208  0.00  0.00    +0.000 NA
ATOM     10  H   UNL     1       7.023   4.882  13.160  0.00  0.00    +0.000 HD
ATOM     11  H   UNL     1       8.496   4.713  13.981  0.00  0.00    +0.000 HD
ENDBRANCH   1   6
BRANCH   1  12
ATOM     12  C   UNL     1       4.128   5.882  19.179  0.00  0.00    +0.000 C 
ATOM     13  C   UNL     1       2.990   5.686  19.872  0.00  0.00    +0.000 C 
BRANCH  13  14
ATOM     14  C   UNL     1       2.636   4.361  20.479  0.00  0.00    +0.000 C 
BRANCH  14  15
ATOM     15  C   UNL     1       1.237   3.839  20.181  0.00  0.00    +0.000 C 
BRANCH  15  16
ATOM     16  P   UNL     1       1.273   2.934  18.637  0.00  0.00    +0.000 P 
ATOM     17  O   UNL     1       0.210   1.905  18.455  0.00  0.00    +0.000 OA
BRANCH  16  18
ATOM     18  O   UNL     1       1.299   4.054  17.491  0.00  0.00    +0.000 OA
ATOM     19  H   UNL     1       2.175   4.419  17.269  0.00  0.00    +0.000 HD
ENDBRANCH  16  18
BRANCH  16  20
ATOM     20  O   UNL     1       2.754   2.352  18.495  0.00  0.00    +0.000 OA
ATOM     21  H   UNL     1       3.411   3.063  18.632  0.00  0.00    +0.000 HD
ENDBRANCH  16  20
ENDBRANCH  15  16
ENDBRANCH  14  15
ENDBRANCH  13  14
ENDBRANCH   1  12
TORSDOF 7
ENDMDL
MODEL 7
REMARK VINA RESULT:      -6.5      3.209      6.152
REMARK  Name = 
REMARK  7 active torsions:
REMARK  status: ('A' for Active; 'I' for Inactive)
REMARK    1  A    between atoms: N_5  and  C_6
REMARK    2  A    between atoms: C_6  and  C_7
REMARK    3  A    between atoms: C_8  and  C_9
REMARK    4  A    between atoms: C_9  and  C_10
REMARK    5  A    between atoms: C_10  and  P_11
REMARK    6  A    between atoms: P_11  and  O_13
REMARK    7  A    between atoms: P_11  and  O_14
REMARK                            x       y       z     vdW  Elec       q    Type
REMARK                         _______ _______ _______ _____ _____    ______ ____
ROOT
ATOM      1  C   UNL     1       3.340   4.832  17.543  0.00  0.00    +0.000 C 
ENDROOT
BRANCH   1   6
ATOM      2  N   UNL     1       1.518   2.475  22.184  0.00  0.00    +0.000 N 
ATOM      3  C   UNL     1       1.964   3.083  21.044  0.00  0.00    +0.000 A 
ATOM      4  C   UNL     1       2.176   4.543  21.032  0.00  0.00    +0.000 A 
ATOM      5  C   UNL     1       2.590   5.057  19.874  0.00  0.00    +0.000 A 
ATOM      6  N   UNL     1       2.795   4.259  18.770  0.00  0.00    +0.000 N 
ATOM      7  C   UNL     1       2.651   2.868  18.846  0.00  0.00    +0.000 A 
ATOM      8  O   UNL     1       2.934   2.143  17.895  0.00  0.00    +0.000 OA
ATOM      9  N   UNL     1       2.193   2.322  20.022  0.00  0.00    +0.000 NA
ATOM     10  H   UNL     1       1.786   2.888  23.069  0.00  0.00    +0.000 HD
ATOM     11  H   UNL     1       1.642   1.468  22.154  0.00  0.00    +0.000 HD
ENDBRANCH   1   6
BRANCH   1  12
ATOM     12  C   UNL     1       3.501   6.330  17.662  0.00  0.00    +0.000 C 
ATOM     13  C   UNL     1       4.617   7.025  17.369  0.00  0.00    +0.000 C 
BRANCH  13  14
ATOM     14  C   UNL     1       5.880   6.361  16.908  0.00  0.00    +0.000 C 
BRANCH  14  15
ATOM     15  C   UNL     1       7.103   6.555  17.794  0.00  0.00    +0.000 C 
BRANCH  15  16
ATOM     16  P   UNL     1       7.394   5.050  18.718  0.00  0.00    +0.000 P 
ATOM     17  O   UNL     1       6.191   4.399  19.307  0.00  0.00    +0.000 OA
BRANCH  16  18
ATOM     18  O   UNL     1       8.231   4.105  17.731  0.00  0.00    +0.000 OA
ATOM     19  H   UNL     1       7.759   3.787  16.939  0.00  0.00    +0.000 HD
ENDBRANCH  16  18
BRANCH  16  20
ATOM     20  O   UNL     1       8.522   5.398  19.796  0.00  0.00    +0.000 OA
ATOM     21  H   UNL     1       9.336   5.703  19.347  0.00  0.00    +0.000 HD
ENDBRANCH  16  20
ENDBRANCH  15  16
ENDBRANCH  14  15
ENDBRANCH  13  14
ENDBRANCH   1  12
TORSDOF 7
ENDMDL
MODEL 8
REMARK VINA RESULT:      -6.5      0.846      1.330
REMARK  Name = 
REMARK  7 active torsions:
REMARK  status: ('A' for Active; 'I' for Inactive)
REMARK    1  A    between atoms: N_5  and  C_6
REMARK    2  A    between atoms: C_6  and  C_7
REMARK    3  A    between atoms: C_8  and  C_9
REMARK    4  A    between atoms: C_9  and  C_10
REMARK    5  A    between atoms: C_10  and  P_11
REMARK    6  A    between atoms: P_11  and  O_13
REMARK    7  A    between atoms: P_11  and  O_14
REMARK                            x       y       z     vdW  Elec       q    Type
REMARK                         _______ _______ _______ _____ _____    ______ ____
ROOT
ATOM      1  C   UNL     1       4.755   5.464  19.307  0.00  0.00    +0.000 C 
ENDROOT
BRANCH   1   6
ATOM      2  N   UNL     1       7.524   5.286  14.541  0.00  0.00    +0.000 N 
ATOM      3  C   UNL     1       6.816   5.340  15.709  0.00  0.00    +0.000 A 
ATOM      4  C   UNL     1       5.364   5.596  15.671  0.00  0.00    +0.000 A 
ATOM      5  C   UNL     1       4.757   5.656  16.856  0.00  0.00    +0.000 A 
ATOM      6  N   UNL     1       5.459   5.491  18.029  0.00  0.00    +0.000 N 
ATOM      7  C   UNL     1       6.824   5.177  18.017  0.00  0.00    +0.000 A 
ATOM      8  O   UNL     1       7.432   4.925  19.055  0.00  0.00    +0.000 OA
ATOM      9  N   UNL     1       7.476   5.144  16.807  0.00  0.00    +0.000 NA
ATOM     10  H   UNL     1       7.040   4.950  13.718  0.00  0.00    +0.000 HD
ATOM     11  H   UNL     1       8.441   4.869  14.668  0.00  0.00    +0.000 HD
ENDBRANCH   1   6
BRANCH   1  12
ATOM     12  C   UNL     1       3.504   6.311  19.262  0.00  0.00    +0.000 C 
ATOM     13  C   UNL     1       2.340   6.025  19.876  0.00  0.00    +0.000 C 
BRANCH  13  14
ATOM     14  C   UNL     1       2.139   4.772  20.676  0.00  0.00    +0.000 C 
BRANCH  14  15
ATOM     15  C   UNL     1       1.019   3.852  20.212  0.00  0.00    +0.000 C 
BRANCH  15  16
ATOM     16  P   UNL     1       1.583   2.924  18.790  0.00  0.00    +0.000 P 
ATOM     17  O   UNL     1       2.983   2.418  18.850  0.00  0.00    +0.000 OA
BRANCH  16  18
ATOM     18  O   UNL     1       0.484   1.779  18.570  0.00  0.00    +0.000 OA
ATOM     19  H   UNL     1       0.252   1.251  19.356  0.00  0.00    +0.000 HD
ENDBRANCH  16  18
BRANCH  16  20
ATOM     20  O   UNL     1       1.292   3.841  17.514  0.00  0.00    +0.000 OA
ATOM     21  H   UNL     1       1.978   4.534  17.432  0.00  0.00    +0.000 HD
ENDBRANCH  16  20
ENDBRANCH  15  16
ENDBRANCH  14  15
ENDBRANCH  13  14
ENDBRANCH   1  12
TORSDOF 7
ENDMDL
MODEL 9
REMARK VINA RESULT:      -6.4      3.440      6.436
REMARK  Name = 
REMARK  7 active torsions:
REMARK  status: ('A' for Active; 'I' for Inactive)
REMARK    1  A    between atoms: N_5  and  C_6
REMARK    2  A    between atoms: C_6  and  C_7
REMARK    3  A    between atoms: C_8  and  C_9
REMARK    4  A    between atoms: C_9  and  C_10
REMARK    5  A    between atoms: C_10  and  P_11
REMARK    6  A    between atoms: P_11  and  O_13
REMARK    7  A    between atoms: P_11  and  O_14
REMARK                            x       y       z     vdW  Elec       q    Type
REMARK                         _______ _______ _______ _____ _____    ______ ____
ROOT
ATOM      1  C   UNL     1       2.106   5.577  17.786  0.00  0.00    +0.000 C 
ENDROOT
BRANCH   1   6
ATOM      2  N   UNL     1       1.594   2.311  22.201  0.00  0.00    +0.000 N 
ATOM      3  C   UNL     1       1.723   3.142  21.123  0.00  0.00    +0.000 A 
ATOM      4  C   UNL     1       2.140   4.542  21.327  0.00  0.00    +0.000 A 
ATOM      5  C   UNL     1       2.217   5.288  20.224  0.00  0.00    +0.000 A 
ATOM      6  N   UNL     1       1.919   4.767  18.985  0.00  0.00    +0.000 N 
ATOM      7  C   UNL     1       1.598   3.412  18.828  0.00  0.00    +0.000 A 
ATOM      8  O   UNL     1       1.434   2.919  17.715  0.00  0.00    +0.000 OA
ATOM      9  N   UNL     1       1.480   2.635  19.956  0.00  0.00    +0.000 NA
ATOM     10  H   UNL     1       2.202   2.478  22.993  0.00  0.00    +0.000 HD
ATOM     11  H   UNL     1       1.546   1.334  21.927  0.00  0.00    +0.000 HD
ENDBRANCH   1   6
BRANCH   1  12
ATOM     12  C   UNL     1       3.128   6.666  18.013  0.00  0.00    +0.000 C 
ATOM     13  C   UNL     1       4.409   6.638  17.599  0.00  0.00    +0.000 C 
BRANCH  13  14
ATOM     14  C   UNL     1       4.994   5.465  16.868  0.00  0.00    +0.000 C 
BRANCH  14  15
ATOM     15  C   UNL     1       5.449   5.724  15.439  0.00  0.00    +0.000 C 
BRANCH  15  16
ATOM     16  P   UNL     1       6.900   4.731  15.104  0.00  0.00    +0.000 P 
ATOM     17  O   UNL     1       7.735   4.371  16.285  0.00  0.00    +0.000 OA
BRANCH  16  18
ATOM     18  O   UNL     1       6.366   3.469  14.274  0.00  0.00    +0.000 OA
ATOM     19  H   UNL     1       6.404   2.609  14.729  0.00  0.00    +0.000 HD
ENDBRANCH  16  18
BRANCH  16  20
ATOM     20  O   UNL     1       7.712   5.497  13.961  0.00  0.00    +0.000 OA
ATOM     21  H   UNL     1       7.099   6.009  13.397  0.00  0.00    +0.000 HD
ENDBRANCH  16  20
ENDBRANCH  15  16
ENDBRANCH  14  15
ENDBRANCH  13  14
ENDBRANCH   1  12
TORSDOF 7
ENDMDL
