MODEL 1
REMARK VINA RESULT:      -8.4      0.000      0.000
REMARK  Name = 
REMARK  5 active torsions:
REMARK  status: ('A' for Active; 'I' for Inactive)
REMARK    1  A    between atoms: C_1  and  C_2
REMARK    2  A    between atoms: C_2  and  C_3
REMARK    3  A    between atoms: C_7  and  C_8
REMARK    4  A    between atoms: C_9  and  C_10
REMARK    5  A    between atoms: C_22  and  C_23
REMARK                            x       y       z     vdW  Elec       q    Type
REMARK                         _______ _______ _______ _____ _____    ______ ____
ROOT
ATOM      1  C   UNL     1      -0.484  14.187  18.860  0.00  0.00    +0.000 C 
ATOM      2  C   UNL     1       0.254  13.719  20.118  0.00  0.00    +0.000 C 
ATOM      3  C   UNL     1       1.534  14.532  20.328  0.00  0.00    +0.000 C 
ATOM      4  O   UNL     1       0.657  12.339  19.883  0.00  0.00    +0.000 OA
ATOM      5  C   UNL     1       0.358  11.341  20.785  0.00  0.00    +0.000 A 
ATOM      6  C   UNL     1       0.889  10.080  20.484  0.00  0.00    +0.000 A 
ATOM      7  C   UNL     1       0.637   8.986  21.320  0.00  0.00    +0.000 A 
ATOM      8  C   UNL     1      -0.160   9.163  22.456  0.00  0.00    +0.000 A 
ATOM      9  C   UNL     1      -0.696  10.423  22.764  0.00  0.00    +0.000 A 
ATOM     10  C   UNL     1      -0.435  11.517  21.932  0.00  0.00    +0.000 A 
ATOM     11  C   UNL     1      -0.946  12.836  22.184  0.00  0.00    +0.000 A 
ATOM     12  N   UNL     1      -1.730  13.315  23.197  0.00  0.00    +0.000 NA
ATOM     13  C   UNL     1      -1.884  14.611  22.961  0.00  0.00    +0.000 A 
ATOM     14  N   UNL     1      -1.231  14.949  21.791  0.00  0.00    +0.000 N 
ATOM     15  C   UNL     1      -0.616  13.829  21.311  0.00  0.00    +0.000 A 
ATOM     16  H   UNL     1      -1.225  15.873  21.379  0.00  0.00    +0.000 HD
ENDROOT
BRANCH  13  17
ATOM     17  C   UNL     1      -2.648  15.582  23.757  0.00  0.00    +0.000 A 
ATOM     18  C   UNL     1      -4.052  15.610  23.666  0.00  0.00    +0.000 A 
ATOM     19  F   UNL     1      -4.690  14.814  22.790  0.00  0.00    +0.000 F 
ATOM     20  C   UNL     1      -4.834  16.453  24.456  0.00  0.00    +0.000 A 
ATOM     21  C   UNL     1      -4.224  17.307  25.364  0.00  0.00    +0.000 A 
ATOM     22  C   UNL     1      -2.832  17.338  25.444  0.00  0.00    +0.000 A 
ATOM     23  C   UNL     1      -2.047  16.493  24.641  0.00  0.00    +0.000 A 
ATOM     24 CL   UNL     1      -0.333  16.707  24.757  0.00  0.00    +0.000 Cl
ENDBRANCH  13  17
BRANCH   7  25
ATOM     25  C   UNL     1       1.176   7.688  21.008  0.00  0.00    +0.000 C 
ATOM     26  C   UNL     1       1.606   6.605  20.720  0.00  0.00    +0.000 C 
BRANCH  26  27
ATOM     27  C   UNL     1       2.087   5.311  20.317  0.00  0.00    +0.000 A 
ATOM     28  C   UNL     1       3.386   5.168  19.820  0.00  0.00    +0.000 A 
ATOM     29  C   UNL     1       3.827   3.929  19.340  0.00  0.00    +0.000 A 
ATOM     30  C   UNL     1       2.968   2.832  19.364  0.00  0.00    +0.000 A 
ATOM     31 CL   UNL     1       3.489   1.322  18.725  0.00  0.00    +0.000 Cl
ATOM     32  C   UNL     1       1.683   2.956  19.890  0.00  0.00    +0.000 A 
ATOM     33  C   UNL     1       1.243   4.197  20.369  0.00  0.00    +0.000 A 
ENDBRANCH  26  27
ENDBRANCH   7  25
TORSDOF 3
ENDMDL
MODEL 2
REMARK VINA RESULT:      -8.3      1.344      1.588
REMARK  Name = 
REMARK  5 active torsions:
REMARK  status: ('A' for Active; 'I' for Inactive)
REMARK    1  A    between atoms: C_1  and  C_2
REMARK    2  A    between atoms: C_2  and  C_3
REMARK    3  A    between atoms: C_7  and  C_8
REMARK    4  A    between atoms: C_9  and  C_10
REMARK    5  A    between atoms: C_22  and  C_23
REMARK                            x       y       z     vdW  Elec       q    Type
REMARK                         _______ _______ _______ _____ _____    ______ ____
ROOT
ATOM      1  C   UNL     1      -0.397  14.046  18.918  0.00  0.00    +0.000 C 
ATOM      2  C   UNL     1       0.363  13.550  20.152  0.00  0.00    +0.000 C 
ATOM      3  C   UNL     1       1.663  14.338  20.338  0.00  0.00    +0.000 C 
ATOM      4  O   UNL     1       0.736  12.166  19.892  0.00  0.00    +0.000 OA
ATOM      5  C   UNL     1       0.441  11.164  20.790  0.00  0.00    +0.000 A 
ATOM      6  C   UNL     1       0.942   9.896  20.462  0.00  0.00    +0.000 A 
ATOM      7  C   UNL     1       0.691   8.798  21.292  0.00  0.00    +0.000 A 
ATOM      8  C   UNL     1      -0.074   8.976  22.449  0.00  0.00    +0.000 A 
ATOM      9  C   UNL     1      -0.579  10.242  22.784  0.00  0.00    +0.000 A 
ATOM     10  C   UNL     1      -0.320  11.340  21.958  0.00  0.00    +0.000 A 
ATOM     11  C   UNL     1      -0.800  12.665  22.237  0.00  0.00    +0.000 A 
ATOM     12  N   UNL     1      -1.550  13.146  23.275  0.00  0.00    +0.000 NA
ATOM     13  C   UNL     1      -1.687  14.448  23.056  0.00  0.00    +0.000 A 
ATOM     14  N   UNL     1      -1.057  14.788  21.874  0.00  0.00    +0.000 N 
ATOM     15  C   UNL     1      -0.474  13.662  21.367  0.00  0.00    +0.000 A 
ATOM     16  H   UNL     1      -1.045  15.715  21.472  0.00  0.00    +0.000 HD
ENDROOT
BRANCH  13  17
ATOM     17  C   UNL     1      -2.413  15.423  23.881  0.00  0.00    +0.000 A 
ATOM     18  C   UNL     1      -1.697  16.355  24.655  0.00  0.00    +0.000 A 
ATOM     19  F   UNL     1      -0.355  16.301  24.711  0.00  0.00    +0.000 F 
ATOM     20  C   UNL     1      -2.331  17.355  25.395  0.00  0.00    +0.000 A 
ATOM     21  C   UNL     1      -3.716  17.444  25.386  0.00  0.00    +0.000 A 
ATOM     22  C   UNL     1      -4.457  16.505  24.668  0.00  0.00    +0.000 A 
ATOM     23  C   UNL     1      -3.815  15.495  23.931  0.00  0.00    +0.000 A 
ATOM     24 CL   UNL     1      -4.848  14.330  23.175  0.00  0.00    +0.000 Cl
ENDBRANCH  13  17
BRANCH   7  25
ATOM     25  C   UNL     1       1.199   7.495  20.953  0.00  0.00    +0.000 C 
ATOM     26  C   UNL     1       1.637   6.420  20.642  0.00  0.00    +0.000 C 
BRANCH  26  27
ATOM     27  C   UNL     1       2.194   5.165  20.219  0.00  0.00    +0.000 A 
ATOM     28  C   UNL     1       3.052   5.111  19.116  0.00  0.00    +0.000 A 
ATOM     29  C   UNL     1       3.521   3.880  18.644  0.00  0.00    +0.000 A 
ATOM     30  C   UNL     1       3.137   2.702  19.282  0.00  0.00    +0.000 A 
ATOM     31 CL   UNL     1       3.669   1.184  18.671  0.00  0.00    +0.000 Cl
ATOM     32  C   UNL     1       2.310   2.746  20.403  0.00  0.00    +0.000 A 
ATOM     33  C   UNL     1       1.839   3.980  20.873  0.00  0.00    +0.000 A 
ENDBRANCH  26  27
ENDBRANCH   7  25
TORSDOF 3
ENDMDL
MODEL 3
REMARK VINA RESULT:      -8.3      4.794     11.700
REMARK  Name = 
REMARK  5 active torsions:
REMARK  status: ('A' for Active; 'I' for Inactive)
REMARK    1  A    between atoms: C_1  and  C_2
REMARK    2  A    between atoms: C_2  and  C_3
REMARK    3  A    between atoms: C_7  and  C_8
REMARK    4  A    between atoms: C_9  and  C_10
REMARK    5  A    between atoms: C_22  and  C_23
REMARK                            x       y       z     vdW  Elec       q    Type
REMARK                         _______ _______ _______ _____ _____    ______ ____
ROOT
ATOM      1  C   UNL     1       0.838   3.903  19.954  0.00  0.00    +0.000 C 
ATOM      2  C   UNL     1       1.799   4.986  20.455  0.00  0.00    +0.000 C 
ATOM      3  C   UNL     1       2.692   4.441  21.573  0.00  0.00    +0.000 C 
ATOM      4  O   UNL     1       0.981   6.041  21.037  0.00  0.00    +0.000 OA
ATOM      5  C   UNL     1       1.132   7.357  20.659  0.00  0.00    +0.000 A 
ATOM      6  C   UNL     1       0.352   8.281  21.368  0.00  0.00    +0.000 A 
ATOM      7  C   UNL     1       0.410   9.644  21.058  0.00  0.00    +0.000 A 
ATOM      8  C   UNL     1       1.250  10.076  20.026  0.00  0.00    +0.000 A 
ATOM      9  C   UNL     1       2.035   9.157  19.312  0.00  0.00    +0.000 A 
ATOM     10  C   UNL     1       1.982   7.796  19.628  0.00  0.00    +0.000 A 
ATOM     11  C   UNL     1       2.757   6.799  18.944  0.00  0.00    +0.000 A 
ATOM     12  N   UNL     1       3.657   6.910  17.920  0.00  0.00    +0.000 NA
ATOM     13  C   UNL     1       4.102   5.682  17.687  0.00  0.00    +0.000 A 
ATOM     14  N   UNL     1       3.469   4.792  18.534  0.00  0.00    +0.000 N 
ATOM     15  C   UNL     1       2.634   5.503  19.347  0.00  0.00    +0.000 A 
ATOM     16  H   UNL     1       3.613   3.791  18.532  0.00  0.00    +0.000 HD
ENDROOT
BRANCH  13  17
ATOM     17  C   UNL     1       5.083   5.262  16.678  0.00  0.00    +0.000 A 
ATOM     18  C   UNL     1       4.792   4.180  15.827  0.00  0.00    +0.000 A 
ATOM     19  F   UNL     1       3.659   3.475  15.990  0.00  0.00    +0.000 F 
ATOM     20  C   UNL     1       5.649   3.787  14.798  0.00  0.00    +0.000 A 
ATOM     21  C   UNL     1       6.841   4.471  14.597  0.00  0.00    +0.000 A 
ATOM     22  C   UNL     1       7.182   5.517  15.455  0.00  0.00    +0.000 A 
ATOM     23  C   UNL     1       6.319   5.904  16.494  0.00  0.00    +0.000 A 
ATOM     24 CL   UNL     1       6.908   7.141  17.552  0.00  0.00    +0.000 Cl
ENDBRANCH  13  17
BRANCH   7  25
ATOM     25  C   UNL     1      -0.397  10.593  21.780  0.00  0.00    +0.000 C 
ATOM     26  C   UNL     1      -1.048  11.410  22.371  0.00  0.00    +0.000 C 
BRANCH  26  27
ATOM     27  C   UNL     1      -1.791  12.436  23.050  0.00  0.00    +0.000 A 
ATOM     28  C   UNL     1      -3.126  12.219  23.406  0.00  0.00    +0.000 A 
ATOM     29  C   UNL     1      -3.880  13.248  23.983  0.00  0.00    +0.000 A 
ATOM     30  C   UNL     1      -3.295  14.492  24.210  0.00  0.00    +0.000 A 
ATOM     31 CL   UNL     1      -4.235  15.774  24.869  0.00  0.00    +0.000 Cl
ATOM     32  C   UNL     1      -1.955  14.708  23.892  0.00  0.00    +0.000 A 
ATOM     33  C   UNL     1      -1.201  13.677  23.313  0.00  0.00    +0.000 A 
ENDBRANCH  26  27
ENDBRANCH   7  25
TORSDOF 3
ENDMDL
MODEL 4
REMARK VINA RESULT:      -8.3      3.616     11.059
REMARK  Name = 
REMARK  5 active torsions:
REMARK  status: ('A' for Active; 'I' for Inactive)
REMARK    1  A    between atoms: C_1  and  C_2
REMARK    2  A    between atoms: C_2  and  C_3
REMARK    3  A    between atoms: C_7  and  C_8
REMARK    4  A    between atoms: C_9  and  C_10
REMARK    5  A    between atoms: C_22  and  C_23
REMARK                            x       y       z     vdW  Elec       q    Type
REMARK                         _______ _______ _______ _____ _____    ______ ____
ROOT
ATOM      1  C   UNL     1       2.538  10.269  17.764  0.00  0.00    +0.000 C 
ATOM      2  C   UNL     1       1.283   9.628  18.363  0.00  0.00    +0.000 C 
ATOM      3  C   UNL     1       0.302   9.226  17.257  0.00  0.00    +0.000 C 
ATOM      4  O   UNL     1       0.626  10.651  19.165  0.00  0.00    +0.000 OA
ATOM      5  C   UNL     1       0.271  10.416  20.475  0.00  0.00    +0.000 A 
ATOM      6  C   UNL     1      -0.441  11.449  21.100  0.00  0.00    +0.000 A 
ATOM      7  C   UNL     1      -0.839  11.329  22.436  0.00  0.00    +0.000 A 
ATOM      8  C   UNL     1      -0.512  10.168  23.145  0.00  0.00    +0.000 A 
ATOM      9  C   UNL     1       0.200   9.129  22.527  0.00  0.00    +0.000 A 
ATOM     10  C   UNL     1       0.590   9.247  21.189  0.00  0.00    +0.000 A 
ATOM     11  C   UNL     1       1.317   8.225  20.488  0.00  0.00    +0.000 A 
ATOM     12  N   UNL     1       1.764   7.001  20.901  0.00  0.00    +0.000 NA
ATOM     13  C   UNL     1       2.354   6.451  19.847  0.00  0.00    +0.000 A 
ATOM     14  N   UNL     1       2.312   7.330  18.782  0.00  0.00    +0.000 N 
ATOM     15  C   UNL     1       1.634   8.446  19.181  0.00  0.00    +0.000 A 
ATOM     16  H   UNL     1       2.721   7.156  17.874  0.00  0.00    +0.000 HD
ENDROOT
BRANCH  13  17
ATOM     17  C   UNL     1       3.003   5.135  19.770  0.00  0.00    +0.000 A 
ATOM     18  C   UNL     1       4.345   5.040  19.357  0.00  0.00    +0.000 A 
ATOM     19  F   UNL     1       5.008   6.136  18.950  0.00  0.00    +0.000 F 
ATOM     20  C   UNL     1       5.037   3.828  19.341  0.00  0.00    +0.000 A 
ATOM     21  C   UNL     1       4.393   2.663  19.736  0.00  0.00    +0.000 A 
ATOM     22  C   UNL     1       3.049   2.716  20.105  0.00  0.00    +0.000 A 
ATOM     23  C   UNL     1       2.354   3.937  20.112  0.00  0.00    +0.000 A 
ATOM     24 CL   UNL     1       0.665   3.850  20.483  0.00  0.00    +0.000 Cl
ENDBRANCH  13  17
BRANCH   7  25
ATOM     25  C   UNL     1      -1.564  12.392  23.082  0.00  0.00    +0.000 C 
ATOM     26  C   UNL     1      -2.164  13.299  23.591  0.00  0.00    +0.000 C 
BRANCH  26  27
ATOM     27  C   UNL     1      -2.879  14.417  24.144  0.00  0.00    +0.000 A 
ATOM     28  C   UNL     1      -4.213  14.642  23.792  0.00  0.00    +0.000 A 
ATOM     29  C   UNL     1      -4.884  15.780  24.254  0.00  0.00    +0.000 A 
ATOM     30  C   UNL     1      -4.219  16.691  25.074  0.00  0.00    +0.000 A 
ATOM     31 CL   UNL     1      -5.025  18.118  25.598  0.00  0.00    +0.000 Cl
ATOM     32  C   UNL     1      -2.900  16.458  25.459  0.00  0.00    +0.000 A 
ATOM     33  C   UNL     1      -2.229  15.318  24.994  0.00  0.00    +0.000 A 
ENDBRANCH  26  27
ENDBRANCH   7  25
TORSDOF 3
ENDMDL
MODEL 5
REMARK VINA RESULT:      -8.1      3.466     10.990
REMARK  Name = 
REMARK  5 active torsions:
REMARK  status: ('A' for Active; 'I' for Inactive)
REMARK    1  A    between atoms: C_1  and  C_2
REMARK    2  A    between atoms: C_2  and  C_3
REMARK    3  A    between atoms: C_7  and  C_8
REMARK    4  A    between atoms: C_9  and  C_10
REMARK    5  A    between atoms: C_22  and  C_23
REMARK                            x       y       z     vdW  Elec       q    Type
REMARK                         _______ _______ _______ _____ _____    ______ ____
ROOT
ATOM      1  C   UNL     1       2.632  10.071  17.810  0.00  0.00    +0.000 C 
ATOM      2  C   UNL     1       1.334   9.517  18.404  0.00  0.00    +0.000 C 
ATOM      3  C   UNL     1       0.345   9.148  17.294  0.00  0.00    +0.000 C 
ATOM      4  O   UNL     1       0.728  10.594  19.175  0.00  0.00    +0.000 OA
ATOM      5  C   UNL     1       0.343  10.410  20.485  0.00  0.00    +0.000 A 
ATOM      6  C   UNL     1      -0.315  11.496  21.077  0.00  0.00    +0.000 A 
ATOM      7  C   UNL     1      -0.737  11.429  22.410  0.00  0.00    +0.000 A 
ATOM      8  C   UNL     1      -0.488  10.268  23.148  0.00  0.00    +0.000 A 
ATOM      9  C   UNL     1       0.170   9.175  22.562  0.00  0.00    +0.000 A 
ATOM     10  C   UNL     1       0.584   9.241  21.228  0.00  0.00    +0.000 A 
ATOM     11  C   UNL     1       1.259   8.163  20.560  0.00  0.00    +0.000 A 
ATOM     12  N   UNL     1       1.628   6.924  21.006  0.00  0.00    +0.000 NA
ATOM     13  C   UNL     1       2.199   6.317  19.972  0.00  0.00    +0.000 A 
ATOM     14  N   UNL     1       2.221   7.173  18.888  0.00  0.00    +0.000 N 
ATOM     15  C   UNL     1       1.604   8.335  19.253  0.00  0.00    +0.000 A 
ATOM     16  H   UNL     1       2.631   6.956  17.990  0.00  0.00    +0.000 HD
ENDROOT
BRANCH  13  17
ATOM     17  C   UNL     1       2.770   4.964  19.933  0.00  0.00    +0.000 A 
ATOM     18  C   UNL     1       1.981   3.861  20.306  0.00  0.00    +0.000 A 
ATOM     19  F   UNL     1       0.737   4.047  20.781  0.00  0.00    +0.000 F 
ATOM     20  C   UNL     1       2.443   2.547  20.213  0.00  0.00    +0.000 A 
ATOM     21  C   UNL     1       3.726   2.301  19.744  0.00  0.00    +0.000 A 
ATOM     22  C   UNL     1       4.550   3.376  19.412  0.00  0.00    +0.000 A 
ATOM     23  C   UNL     1       4.084   4.697  19.516  0.00  0.00    +0.000 A 
ATOM     24 CL   UNL     1       5.240   5.941  19.178  0.00  0.00    +0.000 Cl
ENDBRANCH  13  17
BRANCH   7  25
ATOM     25  C   UNL     1      -1.407  12.547  23.022  0.00  0.00    +0.000 C 
ATOM     26  C   UNL     1      -1.996  13.468  23.519  0.00  0.00    +0.000 C 
BRANCH  26  27
ATOM     27  C   UNL     1      -2.758  14.541  24.096  0.00  0.00    +0.000 A 
ATOM     28  C   UNL     1      -4.111  14.693  23.778  0.00  0.00    +0.000 A 
ATOM     29  C   UNL     1      -4.833  15.790  24.263  0.00  0.00    +0.000 A 
ATOM     30  C   UNL     1      -4.201  16.732  25.073  0.00  0.00    +0.000 A 
ATOM     31 CL   UNL     1      -5.071  18.109  25.625  0.00  0.00    +0.000 Cl
ATOM     32  C   UNL     1      -2.861  16.571  25.425  0.00  0.00    +0.000 A 
ATOM     33  C   UNL     1      -2.140  15.473  24.937  0.00  0.00    +0.000 A 
ENDBRANCH  26  27
ENDBRANCH   7  25
TORSDOF 3
ENDMDL
MODEL 6
REMARK VINA RESULT:      -7.8      3.468      4.251
REMARK  Name = 
REMARK  5 active torsions:
REMARK  status: ('A' for Active; 'I' for Inactive)
REMARK    1  A    between atoms: C_1  and  C_2
REMARK    2  A    between atoms: C_2  and  C_3
REMARK    3  A    between atoms: C_7  and  C_8
REMARK    4  A    between atoms: C_9  and  C_10
REMARK    5  A    between atoms: C_22  and  C_23
REMARK                            x       y       z     vdW  Elec       q    Type
REMARK                         _______ _______ _______ _____ _____    ______ ____
ROOT
ATOM      1  C   UNL     1      -0.615  13.485  22.805  0.00  0.00    +0.000 C 
ATOM      2  C   UNL     1      -1.280  12.202  22.299  0.00  0.00    +0.000 C 
ATOM      3  C   UNL     1      -1.893  11.416  23.462  0.00  0.00    +0.000 C 
ATOM      4  O   UNL     1      -0.225  11.373  21.732  0.00  0.00    +0.000 OA
ATOM      5  C   UNL     1      -0.328  10.852  20.461  0.00  0.00    +0.000 A 
ATOM      6  C   UNL     1       0.710   9.993  20.077  0.00  0.00    +0.000 A 
ATOM      7  C   UNL     1       0.721   9.418  18.801  0.00  0.00    +0.000 A 
ATOM      8  C   UNL     1      -0.314   9.716  17.908  0.00  0.00    +0.000 A 
ATOM      9  C   UNL     1      -1.359  10.575  18.286  0.00  0.00    +0.000 A 
ATOM     10  C   UNL     1      -1.371  11.142  19.564  0.00  0.00    +0.000 A 
ATOM     11  C   UNL     1      -2.407  12.027  20.022  0.00  0.00    +0.000 A 
ATOM     12  N   UNL     1      -3.531  12.489  19.396  0.00  0.00    +0.000 NA
ATOM     13  C   UNL     1      -4.154  13.257  20.281  0.00  0.00    +0.000 A 
ATOM     14  N   UNL     1      -3.418  13.309  21.449  0.00  0.00    +0.000 N 
ATOM     15  C   UNL     1      -2.321  12.510  21.293  0.00  0.00    +0.000 A 
ATOM     16  H   UNL     1      -3.665  13.853  22.264  0.00  0.00    +0.000 HD
ENDROOT
BRANCH  13  17
ATOM     17  C   UNL     1      -5.412  13.995  20.098  0.00  0.00    +0.000 A 
ATOM     18  C   UNL     1      -6.600  13.293  19.827  0.00  0.00    +0.000 A 
ATOM     19  F   UNL     1      -6.576  11.961  19.648  0.00  0.00    +0.000 F 
ATOM     20  C   UNL     1      -7.838  13.931  19.723  0.00  0.00    +0.000 A 
ATOM     21  C   UNL     1      -7.916  15.308  19.882  0.00  0.00    +0.000 A 
ATOM     22  C   UNL     1      -6.749  16.038  20.104  0.00  0.00    +0.000 A 
ATOM     23  C   UNL     1      -5.505  15.393  20.199  0.00  0.00    +0.000 A 
ATOM     24 CL   UNL     1      -4.123  16.422  20.366  0.00  0.00    +0.000 Cl
ENDBRANCH  13  17
BRANCH   7  25
ATOM     25  C   UNL     1       1.790   8.542  18.402  0.00  0.00    +0.000 C 
ATOM     26  C   UNL     1       2.660   7.792  18.050  0.00  0.00    +0.000 C 
BRANCH  26  27
ATOM     27  C   UNL     1       3.658   6.867  17.587  0.00  0.00    +0.000 A 
ATOM     28  C   UNL     1       4.827   7.338  16.982  0.00  0.00    +0.000 A 
ATOM     29  C   UNL     1       5.757   6.439  16.446  0.00  0.00    +0.000 A 
ATOM     30  C   UNL     1       5.519   5.068  16.522  0.00  0.00    +0.000 A 
ATOM     31 CL   UNL     1       6.634   3.964  15.817  0.00  0.00    +0.000 Cl
ATOM     32  C   UNL     1       4.373   4.587  17.155  0.00  0.00    +0.000 A 
ATOM     33  C   UNL     1       3.442   5.488  17.689  0.00  0.00    +0.000 A 
ENDBRANCH  26  27
ENDBRANCH   7  25
TORSDOF 3
ENDMDL
MODEL 7
REMARK VINA RESULT:      -7.8      1.158      1.320
REMARK  Name = 
REMARK  5 active torsions:
REMARK  status: ('A' for Active; 'I' for Inactive)
REMARK    1  A    between atoms: C_1  and  C_2
REMARK    2  A    between atoms: C_2  and  C_3
REMARK    3  A    between atoms: C_7  and  C_8
REMARK    4  A    between atoms: C_9  and  C_10
REMARK    5  A    between atoms: C_22  and  C_23
REMARK                            x       y       z     vdW  Elec       q    Type
REMARK                         _______ _______ _______ _____ _____    ______ ____
ROOT
ATOM      1  C   UNL     1      -3.218  12.325  19.043  0.00  0.00    +0.000 C 
ATOM      2  C   UNL     1      -1.769  12.401  19.534  0.00  0.00    +0.000 C 
ATOM      3  C   UNL     1      -0.940  13.319  18.631  0.00  0.00    +0.000 C 
ATOM      4  O   UNL     1      -1.209  11.062  19.411  0.00  0.00    +0.000 OA
ATOM      5  C   UNL     1      -0.584  10.446  20.473  0.00  0.00    +0.000 A 
ATOM      6  C   UNL     1      -0.005   9.201  20.190  0.00  0.00    +0.000 A 
ATOM      7  C   UNL     1       0.642   8.475  21.196  0.00  0.00    +0.000 A 
ATOM      8  C   UNL     1       0.699   9.002  22.491  0.00  0.00    +0.000 A 
ATOM      9  C   UNL     1       0.122  10.248  22.782  0.00  0.00    +0.000 A 
ATOM     10  C   UNL     1      -0.517  10.976  21.773  0.00  0.00    +0.000 A 
ATOM     11  C   UNL     1      -1.127  12.258  21.994  0.00  0.00    +0.000 A 
ATOM     12  N   UNL     1      -1.225  13.020  23.125  0.00  0.00    +0.000 NA
ATOM     13  C   UNL     1      -1.866  14.126  22.768  0.00  0.00    +0.000 A 
ATOM     14  N   UNL     1      -2.200  14.055  21.429  0.00  0.00    +0.000 N 
ATOM     15  C   UNL     1      -1.712  12.881  20.933  0.00  0.00    +0.000 A 
ATOM     16  H   UNL     1      -2.720  14.762  20.926  0.00  0.00    +0.000 HD
ENDROOT
BRANCH  13  17
ATOM     17  C   UNL     1      -2.226  15.267  23.621  0.00  0.00    +0.000 A 
ATOM     18  C   UNL     1      -3.536  15.378  24.123  0.00  0.00    +0.000 A 
ATOM     19  F   UNL     1      -4.480  14.494  23.754  0.00  0.00    +0.000 F 
ATOM     20  C   UNL     1      -3.916  16.394  25.001  0.00  0.00    +0.000 A 
ATOM     21  C   UNL     1      -2.983  17.342  25.400  0.00  0.00    +0.000 A 
ATOM     22  C   UNL     1      -1.689  17.288  24.882  0.00  0.00    +0.000 A 
ATOM     23  C   UNL     1      -1.314  16.268  23.992  0.00  0.00    +0.000 A 
ATOM     24 CL   UNL     1       0.286  16.377  23.340  0.00  0.00    +0.000 Cl
ENDBRANCH  13  17
BRANCH   7  25
ATOM     25  C   UNL     1       1.231   7.194  20.910  0.00  0.00    +0.000 C 
ATOM     26  C   UNL     1       1.713   6.128  20.636  0.00  0.00    +0.000 C 
BRANCH  26  27
ATOM     27  C   UNL     1       2.280   4.866  20.245  0.00  0.00    +0.000 A 
ATOM     28  C   UNL     1       3.556   4.814  19.676  0.00  0.00    +0.000 A 
ATOM     29  C   UNL     1       4.072   3.600  19.209  0.00  0.00    +0.000 A 
ATOM     30  C   UNL     1       3.313   2.436  19.318  0.00  0.00    +0.000 A 
ATOM     31 CL   UNL     1       3.923   0.953  18.695  0.00  0.00    +0.000 Cl
ATOM     32  C   UNL     1       2.054   2.471  19.916  0.00  0.00    +0.000 A 
ATOM     33  C   UNL     1       1.537   3.688  20.382  0.00  0.00    +0.000 A 
ENDBRANCH  26  27
ENDBRANCH   7  25
TORSDOF 3
ENDMDL
MODEL 8
REMARK VINA RESULT:      -7.7      1.700      1.979
REMARK  Name = 
REMARK  5 active torsions:
REMARK  status: ('A' for Active; 'I' for Inactive)
REMARK    1  A    between atoms: C_1  and  C_2
REMARK    2  A    between atoms: C_2  and  C_3
REMARK    3  A    between atoms: C_7  and  C_8
REMARK    4  A    between atoms: C_9  and  C_10
REMARK    5  A    between atoms: C_22  and  C_23
REMARK                            x       y       z     vdW  Elec       q    Type
REMARK                         _______ _______ _______ _____ _____    ______ ____
ROOT
ATOM      1  C   UNL     1      -3.232  12.345  19.081  0.00  0.00    +0.000 C 
ATOM      2  C   UNL     1      -1.799  12.421  19.617  0.00  0.00    +0.000 C 
ATOM      3  C   UNL     1      -0.956  13.377  18.769  0.00  0.00    +0.000 C 
ATOM      4  O   UNL     1      -1.220  11.092  19.467  0.00  0.00    +0.000 OA
ATOM      5  C   UNL     1      -0.618  10.449  20.526  0.00  0.00    +0.000 A 
ATOM      6  C   UNL     1      -0.017   9.220  20.220  0.00  0.00    +0.000 A 
ATOM      7  C   UNL     1       0.610   8.469  21.221  0.00  0.00    +0.000 A 
ATOM      8  C   UNL     1       0.623   8.953  22.532  0.00  0.00    +0.000 A 
ATOM      9  C   UNL     1       0.023  10.183  22.847  0.00  0.00    +0.000 A 
ATOM     10  C   UNL     1      -0.596  10.936  21.844  0.00  0.00    +0.000 A 
ATOM     11  C   UNL     1      -1.227  12.204  22.089  0.00  0.00    +0.000 A 
ATOM     12  N   UNL     1      -1.367  12.927  23.241  0.00  0.00    +0.000 NA
ATOM     13  C   UNL     1      -2.010  14.037  22.901  0.00  0.00    +0.000 A 
ATOM     14  N   UNL     1      -2.305  14.007  21.551  0.00  0.00    +0.000 N 
ATOM     15  C   UNL     1      -1.788  12.855  21.031  0.00  0.00    +0.000 A 
ATOM     16  H   UNL     1      -2.818  14.724  21.056  0.00  0.00    +0.000 HD
ENDROOT
BRANCH  13  17
ATOM     17  C   UNL     1      -2.409  15.145  23.780  0.00  0.00    +0.000 A 
ATOM     18  C   UNL     1      -1.446  16.076  24.211  0.00  0.00    +0.000 A 
ATOM     19  F   UNL     1      -0.151  15.908  23.895  0.00  0.00    +0.000 F 
ATOM     20  C   UNL     1      -1.780  17.193  24.980  0.00  0.00    +0.000 A 
ATOM     21  C   UNL     1      -3.101  17.405  25.348  0.00  0.00    +0.000 A 
ATOM     22  C   UNL     1      -4.072  16.474  24.977  0.00  0.00    +0.000 A 
ATOM     23  C   UNL     1      -3.730  15.347  24.210  0.00  0.00    +0.000 A 
ATOM     24 CL   UNL     1      -5.005  14.215  23.911  0.00  0.00    +0.000 Cl
ENDBRANCH  13  17
BRANCH   7  25
ATOM     25  C   UNL     1       1.222   7.204  20.910  0.00  0.00    +0.000 C 
ATOM     26  C   UNL     1       1.735   6.158  20.617  0.00  0.00    +0.000 C 
BRANCH  26  27
ATOM     27  C   UNL     1       2.361   4.931  20.205  0.00  0.00    +0.000 A 
ATOM     28  C   UNL     1       3.305   4.935  19.173  0.00  0.00    +0.000 A 
ATOM     29  C   UNL     1       3.846   3.731  18.707  0.00  0.00    +0.000 A 
ATOM     30  C   UNL     1       3.447   2.524  19.279  0.00  0.00    +0.000 A 
ATOM     31 CL   UNL     1       4.071   1.041  18.671  0.00  0.00    +0.000 Cl
ATOM     32  C   UNL     1       2.533   2.513  20.331  0.00  0.00    +0.000 A 
ATOM     33  C   UNL     1       1.991   3.719  20.796  0.00  0.00    +0.000 A 
ENDBRANCH  26  27
ENDBRANCH   7  25
TORSDOF 3
ENDMDL
MODEL 9
REMARK VINA RESULT:      -7.7      3.900      4.725
REMARK  Name = 
REMARK  5 active torsions:
REMARK  status: ('A' for Active; 'I' for Inactive)
REMARK    1  A    between atoms: C_1  and  C_2
REMARK    2  A    between atoms: C_2  and  C_3
REMARK    3  A    between atoms: C_7  and  C_8
REMARK    4  A    between atoms: C_9  and  C_10
REMARK    5  A    between atoms: C_22  and  C_23
REMARK                            x       y       z     vdW  Elec       q    Type
REMARK                         _______ _______ _______ _____ _____    ______ ____
ROOT
ATOM      1  C   UNL     1      -0.724  13.322  22.528  0.00  0.00    +0.000 C 
ATOM      2  C   UNL     1      -1.324  12.002  22.033  0.00  0.00    +0.000 C 
ATOM      3  C   UNL     1      -1.906  11.202  23.201  0.00  0.00    +0.000 C 
ATOM      4  O   UNL     1      -0.226  11.218  21.483  0.00  0.00    +0.000 OA
ATOM      5  C   UNL     1      -0.294  10.678  20.218  0.00  0.00    +0.000 A 
ATOM      6  C   UNL     1       0.788   9.866  19.851  0.00  0.00    +0.000 A 
ATOM      7  C   UNL     1       0.835   9.277  18.583  0.00  0.00    +0.000 A 
ATOM      8  C   UNL     1      -0.206   9.514  17.680  0.00  0.00    +0.000 A 
ATOM      9  C   UNL     1      -1.293  10.326  18.039  0.00  0.00    +0.000 A 
ATOM     10  C   UNL     1      -1.343  10.907  19.310  0.00  0.00    +0.000 A 
ATOM     11  C   UNL     1      -2.423  11.746  19.750  0.00  0.00    +0.000 A 
ATOM     12  N   UNL     1      -3.564  12.147  19.111  0.00  0.00    +0.000 NA
ATOM     13  C   UNL     1      -4.230  12.894  19.982  0.00  0.00    +0.000 A 
ATOM     14  N   UNL     1      -3.505  12.995  21.155  0.00  0.00    +0.000 N 
ATOM     15  C   UNL     1      -2.370  12.248  21.016  0.00  0.00    +0.000 A 
ATOM     16  H   UNL     1      -3.785  13.536  21.961  0.00  0.00    +0.000 HD
ENDROOT
BRANCH  13  17
ATOM     17  C   UNL     1      -5.519  13.568  19.782  0.00  0.00    +0.000 A 
ATOM     18  C   UNL     1      -5.676  14.909  20.178  0.00  0.00    +0.000 A 
ATOM     19  F   UNL     1      -4.682  15.548  20.817  0.00  0.00    +0.000 F 
ATOM     20  C   UNL     1      -6.851  15.625  19.940  0.00  0.00    +0.000 A 
ATOM     21  C   UNL     1      -7.916  15.007  19.298  0.00  0.00    +0.000 A 
ATOM     22  C   UNL     1      -7.809  13.664  18.937  0.00  0.00    +0.000 A 
ATOM     23  C   UNL     1      -6.628  12.945  19.185  0.00  0.00    +0.000 A 
ATOM     24 CL   UNL     1      -6.664  11.260  18.788  0.00  0.00    +0.000 Cl
ENDBRANCH  13  17
BRANCH   7  25
ATOM     25  C   UNL     1       1.948   8.448  18.202  0.00  0.00    +0.000 C 
ATOM     26  C   UNL     1       2.856   7.729  17.885  0.00  0.00    +0.000 C 
BRANCH  26  27
ATOM     27  C   UNL     1       3.899   6.818  17.497  0.00  0.00    +0.000 A 
ATOM     28  C   UNL     1       5.117   7.307  17.015  0.00  0.00    +0.000 A 
ATOM     29  C   UNL     1       6.099   6.425  16.550  0.00  0.00    +0.000 A 
ATOM     30  C   UNL     1       5.863   5.051  16.574  0.00  0.00    +0.000 A 
ATOM     31 CL   UNL     1       7.047   3.968  15.952  0.00  0.00    +0.000 Cl
ATOM     32  C   UNL     1       4.666   4.552  17.085  0.00  0.00    +0.000 A 
ATOM     33  C   UNL     1       3.684   5.437  17.549  0.00  0.00    +0.000 A 
ENDBRANCH  26  27
ENDBRANCH   7  25
TORSDOF 3
ENDMDL
