MODEL 1
REMARK VINA RESULT:      -6.8      0.000      0.000
REMARK  Name = 
REMARK  2 active torsions:
REMARK  status: ('A' for Active; 'I' for Inactive)
REMARK    1  A    between atoms: C_7  and  C_8
REMARK    2  A    between atoms: C_18  and  C_19
REMARK                            x       y       z     vdW  Elec       q    Type
REMARK                         _______ _______ _______ _____ _____    ______ ____
ROOT
ATOM      1  C   UNL     1       2.658   6.621  18.717  0.00  0.00    +0.000 A 
ATOM      2  N   UNL     1       3.848   6.617  18.140  0.00  0.00    +0.000 NA
ATOM      3  C   UNL     1       4.117   5.367  17.665  0.00  0.00    +0.000 A 
ATOM      4  C   UNL     1       3.111   4.427  17.781  0.00  0.00    +0.000 A 
ATOM      5  S   UNL     1       1.782   5.127  18.577  0.00  0.00    +0.000 S 
ATOM      6  C   UNL     1       3.217   2.987  17.338  0.00  0.00    +0.000 C 
ATOM      7  C   UNL     1       4.271   2.805  16.197  0.00  0.00    +0.000 C 
ATOM      8  C   UNL     1       5.386   3.776  16.372  0.00  0.00    +0.000 A 
ATOM      9  O   UNL     1       6.612   3.578  15.847  0.00  0.00    +0.000 OA
ATOM     10  N   UNL     1       7.418   4.663  16.189  0.00  0.00    +0.000 NA
ATOM     11  C   UNL     1       6.658   5.500  16.936  0.00  0.00    +0.000 A 
ATOM     12  C   UNL     1       5.355   4.973  17.032  0.00  0.00    +0.000 A 
ENDROOT
BRANCH   1  19
ATOM     13  F   UNL     1       1.955   9.094  17.378  0.00  0.00    +0.000 F 
ATOM     14  C   UNL     1       1.770   8.985  18.702  0.00  0.00    +0.000 A 
ATOM     15  C   UNL     1       1.215  10.079  19.367  0.00  0.00    +0.000 A 
ATOM     16  C   UNL     1       0.956  10.006  20.734  0.00  0.00    +0.000 A 
ATOM     17  C   UNL     1       1.240   8.833  21.427  0.00  0.00    +0.000 A 
ATOM     18  C   UNL     1       1.795   7.739  20.755  0.00  0.00    +0.000 A 
ATOM     19  C   UNL     1       2.088   7.803  19.380  0.00  0.00    +0.000 A 
ENDBRANCH   1  19
BRANCH  11  20
ATOM     20  C   UNL     1       7.217   6.723  17.519  0.00  0.00    +0.000 A 
ATOM     21  C   UNL     1       8.066   6.666  18.633  0.00  0.00    +0.000 A 
ATOM     22  C   UNL     1       8.644   7.833  19.149  0.00  0.00    +0.000 A 
ATOM     23  C   UNL     1       8.378   9.064  18.551  0.00  0.00    +0.000 A 
ATOM     24 BR   UNL     1       9.192  10.635  19.213  0.00  0.00    +0.000 Br
ATOM     25  C   UNL     1       7.513   9.143  17.465  0.00  0.00    +0.000 A 
ATOM     26  C   UNL     1       6.919   7.980  16.971  0.00  0.00    +0.000 A 
ENDBRANCH  11  20
TORSDOF 2
ENDMDL
MODEL 2
REMARK VINA RESULT:      -6.8      5.799      9.786
REMARK  Name = 
REMARK  2 active torsions:
REMARK  status: ('A' for Active; 'I' for Inactive)
REMARK    1  A    between atoms: C_7  and  C_8
REMARK    2  A    between atoms: C_18  and  C_19
REMARK                            x       y       z     vdW  Elec       q    Type
REMARK                         _______ _______ _______ _____ _____    ______ ____
ROOT
ATOM      1  C   UNL     1       0.546   9.570  20.403  0.00  0.00    +0.000 A 
ATOM      2  N   UNL     1      -0.366  10.372  19.879  0.00  0.00    +0.000 NA
ATOM      3  C   UNL     1      -1.016  11.034  20.880  0.00  0.00    +0.000 A 
ATOM      4  C   UNL     1      -0.555  10.826  22.165  0.00  0.00    +0.000 A 
ATOM      5  S   UNL     1       0.719   9.701  22.127  0.00  0.00    +0.000 S 
ATOM      6  C   UNL     1      -1.149  11.445  23.408  0.00  0.00    +0.000 C 
ATOM      7  C   UNL     1      -1.885  12.788  23.095  0.00  0.00    +0.000 C 
ATOM      8  C   UNL     1      -2.496  12.732  21.739  0.00  0.00    +0.000 A 
ATOM      9  O   UNL     1      -3.532  13.514  21.375  0.00  0.00    +0.000 OA
ATOM     10  N   UNL     1      -3.863  13.219  20.054  0.00  0.00    +0.000 NA
ATOM     11  C   UNL     1      -3.019  12.242  19.643  0.00  0.00    +0.000 A 
ATOM     12  C   UNL     1      -2.120  11.946  20.686  0.00  0.00    +0.000 A 
ENDROOT
BRANCH   1  19
ATOM     13  F   UNL     1       1.478  10.139  17.718  0.00  0.00    +0.000 F 
ATOM     14  C   UNL     1       1.810   8.977  18.299  0.00  0.00    +0.000 A 
ATOM     15  C   UNL     1       2.624   8.104  17.575  0.00  0.00    +0.000 A 
ATOM     16  C   UNL     1       3.040   6.904  18.146  0.00  0.00    +0.000 A 
ATOM     17  C   UNL     1       2.653   6.588  19.445  0.00  0.00    +0.000 A 
ATOM     18  C   UNL     1       1.840   7.468  20.167  0.00  0.00    +0.000 A 
ATOM     19  C   UNL     1       1.387   8.673  19.598  0.00  0.00    +0.000 A 
ENDBRANCH   1  19
BRANCH  11  20
ATOM     20  C   UNL     1      -3.132  11.648  18.308  0.00  0.00    +0.000 A 
ATOM     21  C   UNL     1      -4.378  11.531  17.675  0.00  0.00    +0.000 A 
ATOM     22  C   UNL     1      -4.472  11.016  16.376  0.00  0.00    +0.000 A 
ATOM     23  C   UNL     1      -3.319  10.618  15.701  0.00  0.00    +0.000 A 
ATOM     24 BR   UNL     1      -3.434   9.966  13.932  0.00  0.00    +0.000 Br
ATOM     25  C   UNL     1      -2.079  10.695  16.325  0.00  0.00    +0.000 A 
ATOM     26  C   UNL     1      -1.994  11.185  17.630  0.00  0.00    +0.000 A 
ENDBRANCH  11  20
TORSDOF 2
ENDMDL
MODEL 3
REMARK VINA RESULT:      -6.7      1.136      1.348
REMARK  Name = 
REMARK  2 active torsions:
REMARK  status: ('A' for Active; 'I' for Inactive)
REMARK    1  A    between atoms: C_7  and  C_8
REMARK    2  A    between atoms: C_18  and  C_19
REMARK                            x       y       z     vdW  Elec       q    Type
REMARK                         _______ _______ _______ _____ _____    ______ ____
ROOT
ATOM      1  C   UNL     1       2.061   6.501  19.691  0.00  0.00    +0.000 A 
ATOM      2  N   UNL     1       3.105   6.285  18.907  0.00  0.00    +0.000 NA
ATOM      3  C   UNL     1       3.200   4.951  18.639  0.00  0.00    +0.000 A 
ATOM      4  C   UNL     1       2.190   4.144  19.125  0.00  0.00    +0.000 A 
ATOM      5  S   UNL     1       1.095   5.093  20.012  0.00  0.00    +0.000 S 
ATOM      6  C   UNL     1       2.123   2.645  18.954  0.00  0.00    +0.000 C 
ATOM      7  C   UNL     1       2.907   2.167  17.689  0.00  0.00    +0.000 C 
ATOM      8  C   UNL     1       4.086   3.046  17.456  0.00  0.00    +0.000 A 
ATOM      9  O   UNL     1       5.164   2.645  16.752  0.00  0.00    +0.000 OA
ATOM     10  N   UNL     1       6.081   3.695  16.718  0.00  0.00    +0.000 NA
ATOM     11  C   UNL     1       5.539   4.717  17.422  0.00  0.00    +0.000 A 
ATOM     12  C   UNL     1       4.257   4.339  17.866  0.00  0.00    +0.000 A 
ENDROOT
BRANCH   1  19
ATOM     13  F   UNL     1       1.454   8.815  18.054  0.00  0.00    +0.000 F 
ATOM     14  C   UNL     1       1.429   8.928  19.390  0.00  0.00    +0.000 A 
ATOM     15  C   UNL     1       1.080  10.168  19.925  0.00  0.00    +0.000 A 
ATOM     16  C   UNL     1       0.991  10.332  21.305  0.00  0.00    +0.000 A 
ATOM     17  C   UNL     1       1.238   9.249  22.145  0.00  0.00    +0.000 A 
ATOM     18  C   UNL     1       1.586   8.007  21.603  0.00  0.00    +0.000 A 
ATOM     19  C   UNL     1       1.706   7.830  20.211  0.00  0.00    +0.000 A 
ENDBRANCH   1  19
BRANCH  11  20
ATOM     20  C   UNL     1       6.273   5.967  17.640  0.00  0.00    +0.000 A 
ATOM     21  C   UNL     1       7.415   5.999  18.452  0.00  0.00    +0.000 A 
ATOM     22  C   UNL     1       8.145   7.184  18.609  0.00  0.00    +0.000 A 
ATOM     23  C   UNL     1       7.739   8.343  17.951  0.00  0.00    +0.000 A 
ATOM     24 BR   UNL     1       8.747   9.932  18.121  0.00  0.00    +0.000 Br
ATOM     25  C   UNL     1       6.591   8.339  17.167  0.00  0.00    +0.000 A 
ATOM     26  C   UNL     1       5.852   7.161  17.035  0.00  0.00    +0.000 A 
ENDBRANCH  11  20
TORSDOF 2
ENDMDL
MODEL 4
REMARK VINA RESULT:      -6.7      5.960      9.967
REMARK  Name = 
REMARK  2 active torsions:
REMARK  status: ('A' for Active; 'I' for Inactive)
REMARK    1  A    between atoms: C_7  and  C_8
REMARK    2  A    between atoms: C_18  and  C_19
REMARK                            x       y       z     vdW  Elec       q    Type
REMARK                         _______ _______ _______ _____ _____    ______ ____
ROOT
ATOM      1  C   UNL     1       0.413   9.749  20.473  0.00  0.00    +0.000 A 
ATOM      2  N   UNL     1      -0.496  10.560  19.957  0.00  0.00    +0.000 NA
ATOM      3  C   UNL     1      -1.191  11.159  20.967  0.00  0.00    +0.000 A 
ATOM      4  C   UNL     1      -0.769  10.897  22.255  0.00  0.00    +0.000 A 
ATOM      5  S   UNL     1       0.528   9.799  22.206  0.00  0.00    +0.000 S 
ATOM      6  C   UNL     1      -1.415  11.444  23.506  0.00  0.00    +0.000 C 
ATOM      7  C   UNL     1      -2.167  12.788  23.233  0.00  0.00    +0.000 C 
ATOM      8  C   UNL     1      -2.732  12.787  21.856  0.00  0.00    +0.000 A 
ATOM      9  O   UNL     1      -3.770  13.567  21.496  0.00  0.00    +0.000 OA
ATOM     10  N   UNL     1      -4.052  13.332  20.151  0.00  0.00    +0.000 NA
ATOM     11  C   UNL     1      -3.176  12.391  19.722  0.00  0.00    +0.000 A 
ATOM     12  C   UNL     1      -2.306  12.060  20.779  0.00  0.00    +0.000 A 
ENDROOT
BRANCH   1  19
ATOM     13  F   UNL     1       1.398   7.134  21.246  0.00  0.00    +0.000 F 
ATOM     14  C   UNL     1       1.762   7.653  20.065  0.00  0.00    +0.000 A 
ATOM     15  C   UNL     1       2.589   6.879  19.248  0.00  0.00    +0.000 A 
ATOM     16  C   UNL     1       2.961   7.346  17.990  0.00  0.00    +0.000 A 
ATOM     17  C   UNL     1       2.493   8.580  17.547  0.00  0.00    +0.000 A 
ATOM     18  C   UNL     1       1.664   9.351  18.368  0.00  0.00    +0.000 A 
ATOM     19  C   UNL     1       1.298   8.908  19.654  0.00  0.00    +0.000 A 
ENDBRANCH   1  19
BRANCH  11  20
ATOM     20  C   UNL     1      -3.233  11.861  18.357  0.00  0.00    +0.000 A 
ATOM     21  C   UNL     1      -2.060  11.631  17.625  0.00  0.00    +0.000 A 
ATOM     22  C   UNL     1      -2.118  11.069  16.343  0.00  0.00    +0.000 A 
ATOM     23  C   UNL     1      -3.350  10.730  15.789  0.00  0.00    +0.000 A 
ATOM     24 BR   UNL     1      -3.432   9.928  14.080  0.00  0.00    +0.000 Br
ATOM     25  C   UNL     1      -4.526  10.980  16.486  0.00  0.00    +0.000 A 
ATOM     26  C   UNL     1      -4.464  11.564  17.753  0.00  0.00    +0.000 A 
ENDBRANCH  11  20
TORSDOF 2
ENDMDL
MODEL 5
REMARK VINA RESULT:      -6.7      5.903      8.109
REMARK  Name = 
REMARK  2 active torsions:
REMARK  status: ('A' for Active; 'I' for Inactive)
REMARK    1  A    between atoms: C_7  and  C_8
REMARK    2  A    between atoms: C_18  and  C_19
REMARK                            x       y       z     vdW  Elec       q    Type
REMARK                         _______ _______ _______ _____ _____    ______ ____
ROOT
ATOM      1  C   UNL     1      -0.932  11.525  22.428  0.00  0.00    +0.000 A 
ATOM      2  N   UNL     1      -0.431  11.787  21.232  0.00  0.00    +0.000 NA
ATOM      3  C   UNL     1       0.334  10.735  20.822  0.00  0.00    +0.000 A 
ATOM      4  C   UNL     1       0.355   9.624  21.641  0.00  0.00    +0.000 A 
ATOM      5  S   UNL     1      -0.584   9.930  23.024  0.00  0.00    +0.000 S 
ATOM      6  C   UNL     1       1.155   8.369  21.377  0.00  0.00    +0.000 C 
ATOM      7  C   UNL     1       1.439   8.170  19.853  0.00  0.00    +0.000 C 
ATOM      8  C   UNL     1       1.593   9.491  19.184  0.00  0.00    +0.000 A 
ATOM      9  O   UNL     1       2.264   9.645  18.025  0.00  0.00    +0.000 OA
ATOM     10  N   UNL     1       2.223  10.993  17.670  0.00  0.00    +0.000 NA
ATOM     11  C   UNL     1       1.532  11.637  18.640  0.00  0.00    +0.000 A 
ATOM     12  C   UNL     1       1.092  10.696  19.591  0.00  0.00    +0.000 A 
ENDROOT
BRANCH   1  19
ATOM     13  F   UNL     1      -0.183  14.260  23.030  0.00  0.00    +0.000 F 
ATOM     14  C   UNL     1      -1.363  13.789  23.460  0.00  0.00    +0.000 A 
ATOM     15  C   UNL     1      -2.189  14.668  24.163  0.00  0.00    +0.000 A 
ATOM     16  C   UNL     1      -3.446  14.249  24.593  0.00  0.00    +0.000 A 
ATOM     17  C   UNL     1      -3.878  12.957  24.305  0.00  0.00    +0.000 A 
ATOM     18  C   UNL     1      -3.046  12.082  23.599  0.00  0.00    +0.000 A 
ATOM     19  C   UNL     1      -1.762  12.478  23.179  0.00  0.00    +0.000 A 
ENDBRANCH   1  19
BRANCH  11  20
ATOM     20  C   UNL     1       1.352  13.091  18.612  0.00  0.00    +0.000 A 
ATOM     21  C   UNL     1       0.069  13.657  18.586  0.00  0.00    +0.000 A 
ATOM     22  C   UNL     1      -0.098  15.048  18.618  0.00  0.00    +0.000 A 
ATOM     23  C   UNL     1       1.018  15.880  18.680  0.00  0.00    +0.000 A 
ATOM     24 BR   UNL     1       0.799  17.754  18.772  0.00  0.00    +0.000 Br
ATOM     25  C   UNL     1       2.299  15.338  18.674  0.00  0.00    +0.000 A 
ATOM     26  C   UNL     1       2.460  13.953  18.615  0.00  0.00    +0.000 A 
ENDBRANCH  11  20
TORSDOF 2
ENDMDL
MODEL 6
REMARK VINA RESULT:      -6.7      9.162     12.218
REMARK  Name = 
REMARK  2 active torsions:
REMARK  status: ('A' for Active; 'I' for Inactive)
REMARK    1  A    between atoms: C_7  and  C_8
REMARK    2  A    between atoms: C_18  and  C_19
REMARK                            x       y       z     vdW  Elec       q    Type
REMARK                         _______ _______ _______ _____ _____    ______ ____
ROOT
ATOM      1  C   UNL     1      -5.613  13.160  21.616  0.00  0.00    +0.000 A 
ATOM      2  N   UNL     1      -4.438  13.111  22.221  0.00  0.00    +0.000 NA
ATOM      3  C   UNL     1      -4.250  14.257  22.937  0.00  0.00    +0.000 A 
ATOM      4  C   UNL     1      -5.303  15.150  22.971  0.00  0.00    +0.000 A 
ATOM      5  S   UNL     1      -6.573  14.552  22.012  0.00  0.00    +0.000 S 
ATOM      6  C   UNL     1      -5.288  16.480  23.687  0.00  0.00    +0.000 C 
ATOM      7  C   UNL     1      -4.271  16.490  24.875  0.00  0.00    +0.000 C 
ATOM      8  C   UNL     1      -3.101  15.629  24.553  0.00  0.00    +0.000 A 
ATOM      9  O   UNL     1      -1.900  15.783  25.146  0.00  0.00    +0.000 OA
ATOM     10  N   UNL     1      -1.027  14.826  24.628  0.00  0.00    +0.000 NA
ATOM     11  C   UNL     1      -1.722  14.113  23.710  0.00  0.00    +0.000 A 
ATOM     12  C   UNL     1      -3.050  14.582  23.675  0.00  0.00    +0.000 A 
ENDROOT
BRANCH   1  19
ATOM     13  F   UNL     1      -4.483  12.534  19.020  0.00  0.00    +0.000 F 
ATOM     14  C   UNL     1      -5.536  11.835  19.468  0.00  0.00    +0.000 A 
ATOM     15  C   UNL     1      -6.020  10.808  18.654  0.00  0.00    +0.000 A 
ATOM     16  C   UNL     1      -7.081  10.017  19.087  0.00  0.00    +0.000 A 
ATOM     17  C   UNL     1      -7.645  10.246  20.339  0.00  0.00    +0.000 A 
ATOM     18  C   UNL     1      -7.155  11.274  21.151  0.00  0.00    +0.000 A 
ATOM     19  C   UNL     1      -6.101  12.101  20.720  0.00  0.00    +0.000 A 
ENDBRANCH   1  19
BRANCH  11  20
ATOM     20  C   UNL     1      -1.083  13.056  22.921  0.00  0.00    +0.000 A 
ATOM     21  C   UNL     1      -1.343  11.704  23.187  0.00  0.00    +0.000 A 
ATOM     22  C   UNL     1      -0.775  10.700  22.392  0.00  0.00    +0.000 A 
ATOM     23  C   UNL     1       0.053  11.043  21.325  0.00  0.00    +0.000 A 
ATOM     24 BR   UNL     1       0.783   9.696  20.220  0.00  0.00    +0.000 Br
ATOM     25  C   UNL     1       0.347  12.377  21.066  0.00  0.00    +0.000 A 
ATOM     26  C   UNL     1      -0.200  13.373  21.877  0.00  0.00    +0.000 A 
ENDBRANCH  11  20
TORSDOF 2
ENDMDL
MODEL 7
REMARK VINA RESULT:      -6.7      9.305     12.346
REMARK  Name = 
REMARK  2 active torsions:
REMARK  status: ('A' for Active; 'I' for Inactive)
REMARK    1  A    between atoms: C_7  and  C_8
REMARK    2  A    between atoms: C_18  and  C_19
REMARK                            x       y       z     vdW  Elec       q    Type
REMARK                         _______ _______ _______ _____ _____    ______ ____
ROOT
ATOM      1  C   UNL     1      -5.538  13.293  21.555  0.00  0.00    +0.000 A 
ATOM      2  N   UNL     1      -4.369  13.228  22.170  0.00  0.00    +0.000 NA
ATOM      3  C   UNL     1      -4.189  14.353  22.920  0.00  0.00    +0.000 A 
ATOM      4  C   UNL     1      -5.243  15.244  22.969  0.00  0.00    +0.000 A 
ATOM      5  S   UNL     1      -6.503  14.674  21.980  0.00  0.00    +0.000 S 
ATOM      6  C   UNL     1      -5.235  16.554  23.722  0.00  0.00    +0.000 C 
ATOM      7  C   UNL     1      -4.231  16.530  24.920  0.00  0.00    +0.000 C 
ATOM      8  C   UNL     1      -3.057  15.679  24.586  0.00  0.00    +0.000 A 
ATOM      9  O   UNL     1      -1.863  15.815  25.196  0.00  0.00    +0.000 OA
ATOM     10  N   UNL     1      -0.985  14.874  24.661  0.00  0.00    +0.000 NA
ATOM     11  C   UNL     1      -1.670  14.187  23.715  0.00  0.00    +0.000 A 
ATOM     12  C   UNL     1      -2.997  14.657  23.679  0.00  0.00    +0.000 A 
ENDROOT
BRANCH   1  19
ATOM     13  F   UNL     1      -7.697  11.438  22.103  0.00  0.00    +0.000 F 
ATOM     14  C   UNL     1      -7.056  11.375  20.927  0.00  0.00    +0.000 A 
ATOM     15  C   UNL     1      -7.491  10.420  20.007  0.00  0.00    +0.000 A 
ATOM     16  C   UNL     1      -6.894  10.340  18.751  0.00  0.00    +0.000 A 
ATOM     17  C   UNL     1      -5.874  11.226  18.414  0.00  0.00    +0.000 A 
ATOM     18  C   UNL     1      -5.444  12.182  19.340  0.00  0.00    +0.000 A 
ATOM     19  C   UNL     1      -6.016  12.261  20.623  0.00  0.00    +0.000 A 
ENDBRANCH   1  19
BRANCH  11  20
ATOM     20  C   UNL     1      -1.022  13.153  22.904  0.00  0.00    +0.000 A 
ATOM     21  C   UNL     1      -1.305  11.795  23.109  0.00  0.00    +0.000 A 
ATOM     22  C   UNL     1      -0.728  10.815  22.292  0.00  0.00    +0.000 A 
ATOM     23  C   UNL     1       0.133  11.188  21.261  0.00  0.00    +0.000 A 
ATOM     24 BR   UNL     1       0.877   9.874  20.126  0.00  0.00    +0.000 Br
ATOM     25  C   UNL     1       0.450  12.527  21.063  0.00  0.00    +0.000 A 
ATOM     26  C   UNL     1      -0.107  13.498  21.897  0.00  0.00    +0.000 A 
ENDBRANCH  11  20
TORSDOF 2
ENDMDL
MODEL 8
REMARK VINA RESULT:      -6.7      2.121      2.811
REMARK  Name = 
REMARK  2 active torsions:
REMARK  status: ('A' for Active; 'I' for Inactive)
REMARK    1  A    between atoms: C_7  and  C_8
REMARK    2  A    between atoms: C_18  and  C_19
REMARK                            x       y       z     vdW  Elec       q    Type
REMARK                         _______ _______ _______ _____ _____    ______ ____
ROOT
ATOM      1  C   UNL     1       1.791   7.268  19.894  0.00  0.00    +0.000 A 
ATOM      2  N   UNL     1       2.807   6.590  19.385  0.00  0.00    +0.000 NA
ATOM      3  C   UNL     1       2.765   5.305  19.841  0.00  0.00    +0.000 A 
ATOM      4  C   UNL     1       1.678   4.954  20.618  0.00  0.00    +0.000 A 
ATOM      5  S   UNL     1       0.686   6.316  20.838  0.00  0.00    +0.000 S 
ATOM      6  C   UNL     1       1.459   3.592  21.233  0.00  0.00    +0.000 C 
ATOM      7  C   UNL     1       2.189   2.466  20.432  0.00  0.00    +0.000 C 
ATOM      8  C   UNL     1       3.451   2.993  19.845  0.00  0.00    +0.000 A 
ATOM      9  O   UNL     1       4.482   2.195  19.502  0.00  0.00    +0.000 OA
ATOM     10  N   UNL     1       5.502   2.993  18.984  0.00  0.00    +0.000 NA
ATOM     11  C   UNL     1       5.068   4.275  19.038  0.00  0.00    +0.000 A 
ATOM     12  C   UNL     1       3.754   4.292  19.546  0.00  0.00    +0.000 A 
ENDROOT
BRANCH   1  19
ATOM     13  F   UNL     1       2.252   8.597  17.359  0.00  0.00    +0.000 F 
ATOM     14  C   UNL     1       1.818   9.310  18.408  0.00  0.00    +0.000 A 
ATOM     15  C   UNL     1       1.582  10.671  18.208  0.00  0.00    +0.000 A 
ATOM     16  C   UNL     1       1.085  11.452  19.248  0.00  0.00    +0.000 A 
ATOM     17  C   UNL     1       0.811  10.866  20.481  0.00  0.00    +0.000 A 
ATOM     18  C   UNL     1       1.047   9.501  20.675  0.00  0.00    +0.000 A 
ATOM     19  C   UNL     1       1.574   8.700  19.644  0.00  0.00    +0.000 A 
ENDBRANCH   1  19
BRANCH  11  20
ATOM     20  C   UNL     1       5.925   5.389  18.625  0.00  0.00    +0.000 A 
ATOM     21  C   UNL     1       5.515   6.279  17.622  0.00  0.00    +0.000 A 
ATOM     22  C   UNL     1       6.313   7.376  17.272  0.00  0.00    +0.000 A 
ATOM     23  C   UNL     1       7.524   7.591  17.927  0.00  0.00    +0.000 A 
ATOM     24 BR   UNL     1       8.581   9.096  17.494  0.00  0.00    +0.000 Br
ATOM     25  C   UNL     1       7.962   6.702  18.902  0.00  0.00    +0.000 A 
ATOM     26  C   UNL     1       7.175   5.595  19.228  0.00  0.00    +0.000 A 
ENDBRANCH  11  20
TORSDOF 2
ENDMDL
MODEL 9
REMARK VINA RESULT:      -6.5      8.586     10.760
REMARK  Name = 
REMARK  2 active torsions:
REMARK  status: ('A' for Active; 'I' for Inactive)
REMARK    1  A    between atoms: C_7  and  C_8
REMARK    2  A    between atoms: C_18  and  C_19
REMARK                            x       y       z     vdW  Elec       q    Type
REMARK                         _______ _______ _______ _____ _____    ______ ____
ROOT
ATOM      1  C   UNL     1      -4.787  13.524  21.998  0.00  0.00    +0.000 A 
ATOM      2  N   UNL     1      -4.039  13.257  20.940  0.00  0.00    +0.000 NA
ATOM      3  C   UNL     1      -4.719  12.419  20.106  0.00  0.00    +0.000 A 
ATOM      4  C   UNL     1      -6.019  12.110  20.456  0.00  0.00    +0.000 A 
ATOM      5  S   UNL     1      -6.392  12.860  21.935  0.00  0.00    +0.000 S 
ATOM      6  C   UNL     1      -6.928  11.187  19.680  0.00  0.00    +0.000 C 
ATOM      7  C   UNL     1      -6.533  11.115  18.169  0.00  0.00    +0.000 C 
ATOM      8  C   UNL     1      -5.059  11.259  18.019  0.00  0.00    +0.000 A 
ATOM      9  O   UNL     1      -4.390  10.805  16.941  0.00  0.00    +0.000 OA
ATOM     10  N   UNL     1      -3.037  11.095  17.107  0.00  0.00    +0.000 NA
ATOM     11  C   UNL     1      -2.910  11.715  18.305  0.00  0.00    +0.000 A 
ATOM     12  C   UNL     1      -4.187  11.862  18.882  0.00  0.00    +0.000 A 
ENDROOT
BRANCH   1  19
ATOM     13  F   UNL     1      -2.555  12.885  23.734  0.00  0.00    +0.000 F 
ATOM     14  C   UNL     1      -3.252  14.012  23.943  0.00  0.00    +0.000 A 
ATOM     15  C   UNL     1      -2.838  14.842  24.986  0.00  0.00    +0.000 A 
ATOM     16  C   UNL     1      -3.493  16.048  25.220  0.00  0.00    +0.000 A 
ATOM     17  C   UNL     1      -4.552  16.428  24.399  0.00  0.00    +0.000 A 
ATOM     18  C   UNL     1      -4.961  15.593  23.354  0.00  0.00    +0.000 A 
ATOM     19  C   UNL     1      -4.328  14.358  23.118  0.00  0.00    +0.000 A 
ENDBRANCH   1  19
BRANCH  11  20
ATOM     20  C   UNL     1      -1.598  12.107  18.827  0.00  0.00    +0.000 A 
ATOM     21  C   UNL     1      -0.809  13.050  18.154  0.00  0.00    +0.000 A 
ATOM     22  C   UNL     1       0.418  13.464  18.688  0.00  0.00    +0.000 A 
ATOM     23  C   UNL     1       0.860  12.940  19.901  0.00  0.00    +0.000 A 
ATOM     24 BR   UNL     1       2.491  13.530  20.650  0.00  0.00    +0.000 Br
ATOM     25  C   UNL     1       0.107  11.980  20.567  0.00  0.00    +0.000 A 
ATOM     26  C   UNL     1      -1.103  11.551  20.017  0.00  0.00    +0.000 A 
ENDBRANCH  11  20
TORSDOF 2
ENDMDL
