MODEL 1
REMARK VINA RESULT:      -7.0      0.000      0.000
REMARK  Name = 
REMARK  4 active torsions:
REMARK  status: ('A' for Active; 'I' for Inactive)
REMARK    1  A    between atoms: C_1  and  C_2
REMARK    2  A    between atoms: C_2  and  C_3
REMARK    3  A    between atoms: C_9  and  N_10
REMARK    4  A    between atoms: C_11  and  C_13
REMARK                            x       y       z     vdW  Elec       q    Type
REMARK                         _______ _______ _______ _____ _____    ______ ____
ROOT
ATOM      1  C   UNL     1       5.902   4.073  16.848  0.00  0.00    +0.000 C 
ATOM      2  O   UNL     1       5.592   3.595  15.756  0.00  0.00    +0.000 OA
ATOM      3  N   UNL     1       5.018   4.074  17.930  0.00  0.00    +0.000 N 
ATOM      4  C   UNL     1       3.763   3.345  17.772  0.00  0.00    +0.000 C 
ATOM      5  C   UNL     1       2.643   4.265  17.303  0.00  0.00    +0.000 C 
ATOM      6  C   UNL     1       2.054   5.121  18.420  0.00  0.00    +0.000 C 
ATOM      7  C   UNL     1       3.061   6.032  19.140  0.00  0.00    +0.000 C 
ATOM      8  C   UNL     1       4.065   5.231  19.985  0.00  0.00    +0.000 C 
ATOM      9  C   UNL     1       5.286   4.753  19.197  0.00  0.00    +0.000 C 
ENDROOT
BRANCH   7  10
ATOM     10  N   UNL     1       2.312   6.948  20.000  0.00  0.00    +0.000 N 
ATOM     11  C   UNL     1       1.817   8.152  19.541  0.00  0.00    +0.000 C 
ATOM     12  O   UNL     1       1.964   8.558  18.393  0.00  0.00    +0.000 OA
ATOM     13  H   UNL     1       2.081   6.646  20.936  0.00  0.00    +0.000 HD
BRANCH  11  14
ATOM     14  C   UNL     1       1.029   8.939  20.528  0.00  0.00    +0.000 A 
ATOM     15  C   UNL     1       1.037   8.615  21.892  0.00  0.00    +0.000 A 
ATOM     16  C   UNL     1       0.255   9.345  22.786  0.00  0.00    +0.000 A 
ATOM     17  C   UNL     1      -0.527  10.405  22.327  0.00  0.00    +0.000 A 
ATOM     18  C   UNL     1      -0.516  10.748  20.974  0.00  0.00    +0.000 A 
ATOM     19  C   UNL     1       0.267  10.021  20.075  0.00  0.00    +0.000 A 
ENDBRANCH  11  14
ENDBRANCH   7  10
BRANCH   1  21
ATOM     20  C   UNL     1       7.305   6.172  16.855  0.00  0.00    +0.000 C 
ATOM     21  C   UNL     1       7.283   4.668  17.083  0.00  0.00    +0.000 C 
ENDBRANCH   1  21
TORSDOF 3
ENDMDL
MODEL 2
REMARK VINA RESULT:      -6.9      0.706      1.293
REMARK  Name = 
REMARK  4 active torsions:
REMARK  status: ('A' for Active; 'I' for Inactive)
REMARK    1  A    between atoms: C_1  and  C_2
REMARK    2  A    between atoms: C_2  and  C_3
REMARK    3  A    between atoms: C_9  and  N_10
REMARK    4  A    between atoms: C_11  and  C_13
REMARK                            x       y       z     vdW  Elec       q    Type
REMARK                         _______ _______ _______ _____ _____    ______ ____
ROOT
ATOM      1  C   UNL     1       5.653   4.098  16.272  0.00  0.00    +0.000 C 
ATOM      2  O   UNL     1       5.218   3.399  15.356  0.00  0.00    +0.000 OA
ATOM      3  N   UNL     1       5.028   4.151  17.521  0.00  0.00    +0.000 N 
ATOM      4  C   UNL     1       3.924   3.226  17.758  0.00  0.00    +0.000 C 
ATOM      5  C   UNL     1       2.581   3.875  17.445  0.00  0.00    +0.000 C 
ATOM      6  C   UNL     1       2.089   4.811  18.544  0.00  0.00    +0.000 C 
ATOM      7  C   UNL     1       3.038   5.972  18.882  0.00  0.00    +0.000 C 
ATOM      8  C   UNL     1       4.324   5.487  19.568  0.00  0.00    +0.000 C 
ATOM      9  C   UNL     1       5.422   5.070  18.588  0.00  0.00    +0.000 C 
ENDROOT
BRANCH   7  10
ATOM     10  N   UNL     1       2.327   6.899  19.762  0.00  0.00    +0.000 N 
ATOM     11  C   UNL     1       1.903   8.142  19.338  0.00  0.00    +0.000 C 
ATOM     12  O   UNL     1       2.088   8.577  18.206  0.00  0.00    +0.000 OA
ATOM     13  H   UNL     1       2.067   6.578  20.685  0.00  0.00    +0.000 HD
BRANCH  11  14
ATOM     14  C   UNL     1       1.145   8.938  20.341  0.00  0.00    +0.000 A 
ATOM     15  C   UNL     1       0.413  10.074  19.967  0.00  0.00    +0.000 A 
ATOM     16  C   UNL     1      -0.253  10.823  20.937  0.00  0.00    +0.000 A 
ATOM     17  C   UNL     1      -0.201  10.437  22.277  0.00  0.00    +0.000 A 
ATOM     18  C   UNL     1       0.503   9.291  22.648  0.00  0.00    +0.000 A 
ATOM     19  C   UNL     1       1.170   8.536  21.680  0.00  0.00    +0.000 A 
ENDBRANCH  11  14
ENDBRANCH   7  10
BRANCH   1  21
ATOM     20  C   UNL     1       7.329   5.041  14.636  0.00  0.00    +0.000 C 
ATOM     21  C   UNL     1       6.920   4.925  16.097  0.00  0.00    +0.000 C 
ENDBRANCH   1  21
TORSDOF 3
ENDMDL
MODEL 3
REMARK VINA RESULT:      -6.7      2.959      7.798
REMARK  Name = 
REMARK  4 active torsions:
REMARK  status: ('A' for Active; 'I' for Inactive)
REMARK    1  A    between atoms: C_1  and  C_2
REMARK    2  A    between atoms: C_2  and  C_3
REMARK    3  A    between atoms: C_9  and  N_10
REMARK    4  A    between atoms: C_11  and  C_13
REMARK                            x       y       z     vdW  Elec       q    Type
REMARK                         _______ _______ _______ _____ _____    ______ ____
ROOT
ATOM      1  C   UNL     1       1.859   4.628  20.821  0.00  0.00    +0.000 C 
ATOM      2  O   UNL     1       2.249   4.273  21.934  0.00  0.00    +0.000 OA
ATOM      3  N   UNL     1       2.031   3.828  19.689  0.00  0.00    +0.000 N 
ATOM      4  C   UNL     1       2.553   2.480  19.893  0.00  0.00    +0.000 C 
ATOM      5  C   UNL     1       4.067   2.441  19.725  0.00  0.00    +0.000 C 
ATOM      6  C   UNL     1       4.515   2.439  18.267  0.00  0.00    +0.000 C 
ATOM      7  C   UNL     1       4.040   3.645  17.440  0.00  0.00    +0.000 C 
ATOM      8  C   UNL     1       2.522   3.621  17.201  0.00  0.00    +0.000 C 
ATOM      9  C   UNL     1       1.714   4.265  18.330  0.00  0.00    +0.000 C 
ENDROOT
BRANCH   7  10
ATOM     10  N   UNL     1       4.742   3.621  16.157  0.00  0.00    +0.000 N 
ATOM     11  C   UNL     1       5.313   4.751  15.607  0.00  0.00    +0.000 C 
ATOM     12  O   UNL     1       5.277   5.859  16.131  0.00  0.00    +0.000 OA
ATOM     13  H   UNL     1       4.883   2.728  15.704  0.00  0.00    +0.000 HD
BRANCH  11  14
ATOM     14  C   UNL     1       6.039   4.543  14.324  0.00  0.00    +0.000 A 
ATOM     15  C   UNL     1       7.219   5.242  14.034  0.00  0.00    +0.000 A 
ATOM     16  C   UNL     1       7.854   5.057  12.806  0.00  0.00    +0.000 A 
ATOM     17  C   UNL     1       7.322   4.168  11.871  0.00  0.00    +0.000 A 
ATOM     18  C   UNL     1       6.163   3.450  12.168  0.00  0.00    +0.000 A 
ATOM     19  C   UNL     1       5.525   3.631  13.398  0.00  0.00    +0.000 A 
ENDBRANCH  11  14
ENDBRANCH   7  10
BRANCH   1  21
ATOM     20  C   UNL     1       2.106   7.095  20.345  0.00  0.00    +0.000 C 
ATOM     21  C   UNL     1       1.138   5.955  20.627  0.00  0.00    +0.000 C 
ENDBRANCH   1  21
TORSDOF 3
ENDMDL
MODEL 4
REMARK VINA RESULT:      -6.7      3.000      7.833
REMARK  Name = 
REMARK  4 active torsions:
REMARK  status: ('A' for Active; 'I' for Inactive)
REMARK    1  A    between atoms: C_1  and  C_2
REMARK    2  A    between atoms: C_2  and  C_3
REMARK    3  A    between atoms: C_9  and  N_10
REMARK    4  A    between atoms: C_11  and  C_13
REMARK                            x       y       z     vdW  Elec       q    Type
REMARK                         _______ _______ _______ _____ _____    ______ ____
ROOT
ATOM      1  C   UNL     1       1.790   4.296  20.818  0.00  0.00    +0.000 C 
ATOM      2  O   UNL     1       2.166   3.772  21.867  0.00  0.00    +0.000 OA
ATOM      3  N   UNL     1       1.868   3.631  19.591  0.00  0.00    +0.000 N 
ATOM      4  C   UNL     1       2.268   2.227  19.615  0.00  0.00    +0.000 C 
ATOM      5  C   UNL     1       3.769   2.075  19.399  0.00  0.00    +0.000 C 
ATOM      6  C   UNL     1       4.189   2.215  17.939  0.00  0.00    +0.000 C 
ATOM      7  C   UNL     1       3.812   3.551  17.280  0.00  0.00    +0.000 C 
ATOM      8  C   UNL     1       2.294   3.692  17.084  0.00  0.00    +0.000 C 
ATOM      9  C   UNL     1       1.569   4.260  18.306  0.00  0.00    +0.000 C 
ENDROOT
BRANCH   7  10
ATOM     10  N   UNL     1       4.486   3.625  15.984  0.00  0.00    +0.000 N 
ATOM     11  C   UNL     1       5.494   4.533  15.727  0.00  0.00    +0.000 C 
ATOM     12  O   UNL     1       5.902   5.350  16.545  0.00  0.00    +0.000 OA
ATOM     13  H   UNL     1       4.260   2.930  15.286  0.00  0.00    +0.000 HD
BRANCH  11  14
ATOM     14  C   UNL     1       6.113   4.438  14.377  0.00  0.00    +0.000 A 
ATOM     15  C   UNL     1       5.591   3.586  13.394  0.00  0.00    +0.000 A 
ATOM     16  C   UNL     1       6.218   3.487  12.152  0.00  0.00    +0.000 A 
ATOM     17  C   UNL     1       7.360   4.244  11.884  0.00  0.00    +0.000 A 
ATOM     18  C   UNL     1       7.866   5.114  12.850  0.00  0.00    +0.000 A 
ATOM     19  C   UNL     1       7.239   5.217  14.094  0.00  0.00    +0.000 A 
ENDBRANCH  11  14
ENDBRANCH   7  10
BRANCH   1  21
ATOM     20  C   UNL     1       2.194   6.744  20.350  0.00  0.00    +0.000 C 
ATOM     21  C   UNL     1       1.191   5.695  20.808  0.00  0.00    +0.000 C 
ENDBRANCH   1  21
TORSDOF 3
ENDMDL
MODEL 5
REMARK VINA RESULT:      -6.5      3.118      7.947
REMARK  Name = 
REMARK  4 active torsions:
REMARK  status: ('A' for Active; 'I' for Inactive)
REMARK    1  A    between atoms: C_1  and  C_2
REMARK    2  A    between atoms: C_2  and  C_3
REMARK    3  A    between atoms: C_9  and  N_10
REMARK    4  A    between atoms: C_11  and  C_13
REMARK                            x       y       z     vdW  Elec       q    Type
REMARK                         _______ _______ _______ _____ _____    ______ ____
ROOT
ATOM      1  C   UNL     1       1.673   4.374  20.346  0.00  0.00    +0.000 C 
ATOM      2  O   UNL     1       0.726   5.104  20.639  0.00  0.00    +0.000 OA
ATOM      3  N   UNL     1       2.880   4.889  19.864  0.00  0.00    +0.000 N 
ATOM      4  C   UNL     1       3.037   6.340  19.866  0.00  0.00    +0.000 C 
ATOM      5  C   UNL     1       2.644   6.942  18.522  0.00  0.00    +0.000 C 
ATOM      6  C   UNL     1       3.717   6.784  17.450  0.00  0.00    +0.000 C 
ATOM      7  C   UNL     1       4.125   5.333  17.148  0.00  0.00    +0.000 C 
ATOM      8  C   UNL     1       4.889   4.691  18.316  0.00  0.00    +0.000 C 
ATOM      9  C   UNL     1       3.977   4.059  19.371  0.00  0.00    +0.000 C 
ENDROOT
BRANCH   7  10
ATOM     10  N   UNL     1       4.965   5.336  15.951  0.00  0.00    +0.000 N 
ATOM     11  C   UNL     1       5.550   4.188  15.455  0.00  0.00    +0.000 C 
ATOM     12  O   UNL     1       5.426   3.082  15.969  0.00  0.00    +0.000 OA
ATOM     13  H   UNL     1       5.048   6.197  15.426  0.00  0.00    +0.000 HD
BRANCH  11  14
ATOM     14  C   UNL     1       6.327   4.356  14.197  0.00  0.00    +0.000 A 
ATOM     15  C   UNL     1       7.380   5.278  14.108  0.00  0.00    +0.000 A 
ATOM     16  C   UNL     1       8.062   5.443  12.903  0.00  0.00    +0.000 A 
ATOM     17  C   UNL     1       7.705   4.683  11.788  0.00  0.00    +0.000 A 
ATOM     18  C   UNL     1       6.677   3.744  11.881  0.00  0.00    +0.000 A 
ATOM     19  C   UNL     1       5.992   3.575  13.087  0.00  0.00    +0.000 A 
ENDBRANCH  11  14
ENDBRANCH   7  10
BRANCH   1  21
ATOM     20  C   UNL     1       1.618   2.457  21.987  0.00  0.00    +0.000 C 
ATOM     21  C   UNL     1       1.587   2.864  20.522  0.00  0.00    +0.000 C 
ENDBRANCH   1  21
TORSDOF 3
ENDMDL
MODEL 6
REMARK VINA RESULT:      -6.5      3.081      7.950
REMARK  Name = 
REMARK  4 active torsions:
REMARK  status: ('A' for Active; 'I' for Inactive)
REMARK    1  A    between atoms: C_1  and  C_2
REMARK    2  A    between atoms: C_2  and  C_3
REMARK    3  A    between atoms: C_9  and  N_10
REMARK    4  A    between atoms: C_11  and  C_13
REMARK                            x       y       z     vdW  Elec       q    Type
REMARK                         _______ _______ _______ _____ _____    ______ ____
ROOT
ATOM      1  C   UNL     1       2.206   4.596  20.657  0.00  0.00    +0.000 C 
ATOM      2  O   UNL     1       1.103   5.105  20.860  0.00  0.00    +0.000 OA
ATOM      3  N   UNL     1       3.227   5.287  19.999  0.00  0.00    +0.000 N 
ATOM      4  C   UNL     1       2.996   6.695  19.695  0.00  0.00    +0.000 C 
ATOM      5  C   UNL     1       2.442   6.873  18.287  0.00  0.00    +0.000 C 
ATOM      6  C   UNL     1       3.505   6.768  17.198  0.00  0.00    +0.000 C 
ATOM      7  C   UNL     1       4.278   5.440  17.171  0.00  0.00    +0.000 C 
ATOM      8  C   UNL     1       5.198   5.280  18.391  0.00  0.00    +0.000 C 
ATOM      9  C   UNL     1       4.499   4.678  19.611  0.00  0.00    +0.000 C 
ENDROOT
BRANCH   7  10
ATOM     10  N   UNL     1       5.072   5.401  15.943  0.00  0.00    +0.000 N 
ATOM     11  C   UNL     1       5.522   4.218  15.392  0.00  0.00    +0.000 C 
ATOM     12  O   UNL     1       5.306   3.113  15.877  0.00  0.00    +0.000 OA
ATOM     13  H   UNL     1       5.222   6.266  15.442  0.00  0.00    +0.000 HD
BRANCH  11  14
ATOM     14  C   UNL     1       6.269   4.351  14.111  0.00  0.00    +0.000 A 
ATOM     15  C   UNL     1       5.933   3.579  12.990  0.00  0.00    +0.000 A 
ATOM     16  C   UNL     1       6.678   3.696  11.816  0.00  0.00    +0.000 A 
ATOM     17  C   UNL     1       7.750   4.587  11.754  0.00  0.00    +0.000 A 
ATOM     18  C   UNL     1       8.068   5.377  12.860  0.00  0.00    +0.000 A 
ATOM     19  C   UNL     1       7.323   5.265  14.036  0.00  0.00    +0.000 A 
ENDBRANCH  11  14
ENDBRANCH   7  10
BRANCH   1  21
ATOM     20  C   UNL     1       1.346   2.554  21.866  0.00  0.00    +0.000 C 
ATOM     21  C   UNL     1       2.524   3.189  21.143  0.00  0.00    +0.000 C 
ENDBRANCH   1  21
TORSDOF 3
ENDMDL
MODEL 7
REMARK VINA RESULT:      -6.4      1.449      2.081
REMARK  Name = 
REMARK  4 active torsions:
REMARK  status: ('A' for Active; 'I' for Inactive)
REMARK    1  A    between atoms: C_1  and  C_2
REMARK    2  A    between atoms: C_2  and  C_3
REMARK    3  A    between atoms: C_9  and  N_10
REMARK    4  A    between atoms: C_11  and  C_13
REMARK                            x       y       z     vdW  Elec       q    Type
REMARK                         _______ _______ _______ _____ _____    ______ ____
ROOT
ATOM      1  C   UNL     1       3.977   3.186  17.438  0.00  0.00    +0.000 C 
ATOM      2  O   UNL     1       3.619   2.010  17.372  0.00  0.00    +0.000 OA
ATOM      3  N   UNL     1       4.006   3.881  18.650  0.00  0.00    +0.000 N 
ATOM      4  C   UNL     1       3.745   3.119  19.867  0.00  0.00    +0.000 C 
ATOM      5  C   UNL     1       2.275   3.189  20.260  0.00  0.00    +0.000 C 
ATOM      6  C   UNL     1       1.892   4.497  20.946  0.00  0.00    +0.000 C 
ATOM      7  C   UNL     1       2.159   5.765  20.121  0.00  0.00    +0.000 C 
ATOM      8  C   UNL     1       3.661   6.041  19.950  0.00  0.00    +0.000 C 
ATOM      9  C   UNL     1       4.285   5.313  18.758  0.00  0.00    +0.000 C 
ENDROOT
BRANCH   7  10
ATOM     10  N   UNL     1       1.524   6.893  20.803  0.00  0.00    +0.000 N 
ATOM     11  C   UNL     1       1.419   8.142  20.225  0.00  0.00    +0.000 C 
ATOM     12  O   UNL     1       1.848   8.416  19.109  0.00  0.00    +0.000 OA
ATOM     13  H   UNL     1       1.075   6.723  21.693  0.00  0.00    +0.000 HD
BRANCH  11  14
ATOM     14  C   UNL     1       0.694   9.163  21.030  0.00  0.00    +0.000 A 
ATOM     15  C   UNL     1       0.451  10.449  20.527  0.00  0.00    +0.000 A 
ATOM     16  C   UNL     1      -0.193  11.397  21.322  0.00  0.00    +0.000 A 
ATOM     17  C   UNL     1      -0.606  11.063  22.613  0.00  0.00    +0.000 A 
ATOM     18  C   UNL     1      -0.390   9.775  23.105  0.00  0.00    +0.000 A 
ATOM     19  C   UNL     1       0.253   8.822  22.312  0.00  0.00    +0.000 A 
ENDBRANCH  11  14
ENDBRANCH   7  10
BRANCH   1  21
ATOM     20  C   UNL     1       5.914   3.720  15.910  0.00  0.00    +0.000 C 
ATOM     21  C   UNL     1       4.436   3.939  16.197  0.00  0.00    +0.000 C 
ENDBRANCH   1  21
TORSDOF 3
ENDMDL
MODEL 8
REMARK VINA RESULT:      -6.4      1.371      1.697
REMARK  Name = 
REMARK  4 active torsions:
REMARK  status: ('A' for Active; 'I' for Inactive)
REMARK    1  A    between atoms: C_1  and  C_2
REMARK    2  A    between atoms: C_2  and  C_3
REMARK    3  A    between atoms: C_9  and  N_10
REMARK    4  A    between atoms: C_11  and  C_13
REMARK                            x       y       z     vdW  Elec       q    Type
REMARK                         _______ _______ _______ _____ _____    ______ ____
ROOT
ATOM      1  C   UNL     1       4.088   3.348  17.304  0.00  0.00    +0.000 C 
ATOM      2  O   UNL     1       3.705   2.185  17.171  0.00  0.00    +0.000 OA
ATOM      3  N   UNL     1       4.100   3.982  18.549  0.00  0.00    +0.000 N 
ATOM      4  C   UNL     1       3.791   3.168  19.720  0.00  0.00    +0.000 C 
ATOM      5  C   UNL     1       2.313   3.254  20.079  0.00  0.00    +0.000 C 
ATOM      6  C   UNL     1       1.942   4.535  20.820  0.00  0.00    +0.000 C 
ATOM      7  C   UNL     1       2.258   5.836  20.065  0.00  0.00    +0.000 C 
ATOM      8  C   UNL     1       3.770   6.083  19.945  0.00  0.00    +0.000 C 
ATOM      9  C   UNL     1       4.409   5.400  18.735  0.00  0.00    +0.000 C 
ENDROOT
BRANCH   7  10
ATOM     10  N   UNL     1       1.632   6.944  20.786  0.00  0.00    +0.000 N 
ATOM     11  C   UNL     1       1.461   8.191  20.220  0.00  0.00    +0.000 C 
ATOM     12  O   UNL     1       1.821   8.480  19.084  0.00  0.00    +0.000 OA
ATOM     13  H   UNL     1       1.237   6.759  21.698  0.00  0.00    +0.000 HD
BRANCH  11  14
ATOM     14  C   UNL     1       0.755   9.190  21.068  0.00  0.00    +0.000 A 
ATOM     15  C   UNL     1       0.299   8.861  22.352  0.00  0.00    +0.000 A 
ATOM     16  C   UNL     1      -0.397   9.806  23.106  0.00  0.00    +0.000 A 
ATOM     17  C   UNL     1      -0.631  11.080  22.588  0.00  0.00    +0.000 A 
ATOM     18  C   UNL     1      -0.154  11.419  21.321  0.00  0.00    +0.000 A 
ATOM     19  C   UNL     1       0.546  10.476  20.563  0.00  0.00    +0.000 A 
ENDBRANCH  11  14
ENDBRANCH   7  10
BRANCH   1  21
ATOM     20  C   UNL     1       6.062   3.866  15.818  0.00  0.00    +0.000 C 
ATOM     21  C   UNL     1       4.597   4.150  16.114  0.00  0.00    +0.000 C 
ENDBRANCH   1  21
TORSDOF 3
ENDMDL
MODEL 9
REMARK VINA RESULT:      -6.4      2.526      7.556
REMARK  Name = 
REMARK  4 active torsions:
REMARK  status: ('A' for Active; 'I' for Inactive)
REMARK    1  A    between atoms: C_1  and  C_2
REMARK    2  A    between atoms: C_2  and  C_3
REMARK    3  A    between atoms: C_9  and  N_10
REMARK    4  A    between atoms: C_11  and  C_13
REMARK                            x       y       z     vdW  Elec       q    Type
REMARK                         _______ _______ _______ _____ _____    ______ ____
ROOT
ATOM      1  C   UNL     1       1.652  12.733  20.399  0.00  0.00    +0.000 C 
ATOM      2  O   UNL     1       1.605  13.185  21.544  0.00  0.00    +0.000 OA
ATOM      3  N   UNL     1       0.957  11.577  20.033  0.00  0.00    +0.000 N 
ATOM      4  C   UNL     1       0.042  11.006  21.016  0.00  0.00    +0.000 C 
ATOM      5  C   UNL     1       0.722   9.918  21.838  0.00  0.00    +0.000 C 
ATOM      6  C   UNL     1       0.835   8.585  21.106  0.00  0.00    +0.000 C 
ATOM      7  C   UNL     1       1.605   8.638  19.777  0.00  0.00    +0.000 C 
ATOM      8  C   UNL     1       0.841   9.417  18.695  0.00  0.00    +0.000 C 
ATOM      9  C   UNL     1       1.094  10.925  18.731  0.00  0.00    +0.000 C 
ENDROOT
BRANCH   7  10
ATOM     10  N   UNL     1       1.834   7.264  19.328  0.00  0.00    +0.000 N 
ATOM     11  C   UNL     1       2.759   6.949  18.354  0.00  0.00    +0.000 C 
ATOM     12  O   UNL     1       3.456   7.780  17.781  0.00  0.00    +0.000 OA
ATOM     13  H   UNL     1       1.354   6.517  19.812  0.00  0.00    +0.000 HD
BRANCH  11  14
ATOM     14  C   UNL     1       2.908   5.499  18.055  0.00  0.00    +0.000 A 
ATOM     15  C   UNL     1       4.074   4.993  17.464  0.00  0.00    +0.000 A 
ATOM     16  C   UNL     1       4.167   3.635  17.158  0.00  0.00    +0.000 A 
ATOM     17  C   UNL     1       3.105   2.778  17.450  0.00  0.00    +0.000 A 
ATOM     18  C   UNL     1       1.954   3.274  18.065  0.00  0.00    +0.000 A 
ATOM     19  C   UNL     1       1.858   4.633  18.375  0.00  0.00    +0.000 A 
ENDBRANCH  11  14
ENDBRANCH   7  10
BRANCH   1  21
ATOM     20  C   UNL     1       1.759  14.687  18.804  0.00  0.00    +0.000 C 
ATOM     21  C   UNL     1       2.454  13.431  19.310  0.00  0.00    +0.000 C 
ENDBRANCH   1  21
TORSDOF 3
ENDMDL
