MODEL 1
REMARK VINA RESULT:      -7.5      0.000      0.000
REMARK  Name = 
REMARK  4 active torsions:
REMARK  status: ('A' for Active; 'I' for Inactive)
REMARK    1  A    between atoms: O_1  and  C_2
REMARK    2  A    between atoms: C_5  and  C_6
REMARK    3  A    between atoms: C_9  and  C_10
REMARK    4  A    between atoms: C_20  and  O_21
REMARK                            x       y       z     vdW  Elec       q    Type
REMARK                         _______ _______ _______ _____ _____    ______ ____
ROOT
ATOM      1  C   UNL     1       3.018   6.034  18.250  0.00  0.00    +0.000 A 
ATOM      2  C   UNL     1       2.661   4.702  18.303  0.00  0.00    +0.000 A 
ATOM      3  S   UNL     1       3.651   3.784  17.259  0.00  0.00    +0.000 S 
ATOM      4  C   UNL     1       4.543   5.203  16.861  0.00  0.00    +0.000 A 
ATOM      5  N   UNL     1       4.137   6.304  17.468  0.00  0.00    +0.000 NA
ENDROOT
BRANCH   4   6
ATOM      6  C   UNL     1       5.715   5.185  15.921  0.00  0.00    +0.000 A 
ATOM      7  C   UNL     1       6.936   5.784  16.154  0.00  0.00    +0.000 A 
ATOM      8  N   UNL     1       7.726   5.582  15.053  0.00  0.00    +0.000 N 
ATOM      9  C   UNL     1       7.034   4.873  14.097  0.00  0.00    +0.000 A 
ATOM     10  C   UNL     1       7.428   4.479  12.812  0.00  0.00    +0.000 A 
ATOM     11  C   UNL     1       6.508   3.763  12.043  0.00  0.00    +0.000 A 
ATOM     12  C   UNL     1       5.253   3.437  12.547  0.00  0.00    +0.000 A 
ATOM     13  C   UNL     1       4.879   3.832  13.835  0.00  0.00    +0.000 A 
ATOM     14  C   UNL     1       5.775   4.581  14.627  0.00  0.00    +0.000 A 
ATOM     15  H   UNL     1       8.673   5.917  14.943  0.00  0.00    +0.000 HD
ENDBRANCH   4   6
BRANCH   1  19
ATOM     16  C   UNL     1       1.047   9.122  20.440  0.00  0.00    +0.000 A 
ATOM     17  C   UNL     1       1.262   7.884  21.034  0.00  0.00    +0.000 A 
ATOM     18  C   UNL     1       1.899   6.874  20.306  0.00  0.00    +0.000 A 
ATOM     19  C   UNL     1       2.329   7.093  18.985  0.00  0.00    +0.000 A 
ATOM     20  C   UNL     1       2.068   8.345  18.404  0.00  0.00    +0.000 A 
ATOM     21  C   UNL     1       1.442   9.360  19.129  0.00  0.00    +0.000 A 
BRANCH  16  22
ATOM     22  O   UNL     1       0.436  10.132  21.122  0.00  0.00    +0.000 OA
ATOM     23  H   UNL     1      -0.195   9.750  21.752  0.00  0.00    +0.000 HD
ENDBRANCH  16  22
BRANCH  20  24
ATOM     24  O   UNL     1       2.412   8.641  17.111  0.00  0.00    +0.000 OA
ATOM     25  H   UNL     1       3.153   8.044  16.872  0.00  0.00    +0.000 HD
ENDBRANCH  20  24
ENDBRANCH   1  19
TORSDOF 4
ENDMDL
MODEL 2
REMARK VINA RESULT:      -7.5      2.941      3.626
REMARK  Name = 
REMARK  4 active torsions:
REMARK  status: ('A' for Active; 'I' for Inactive)
REMARK    1  A    between atoms: O_1  and  C_2
REMARK    2  A    between atoms: C_5  and  C_6
REMARK    3  A    between atoms: C_9  and  C_10
REMARK    4  A    between atoms: C_20  and  O_21
REMARK                            x       y       z     vdW  Elec       q    Type
REMARK                         _______ _______ _______ _____ _____    ______ ____
ROOT
ATOM      1  C   UNL     1       3.752   5.193  18.250  0.00  0.00    +0.000 A 
ATOM      2  C   UNL     1       3.496   6.533  18.040  0.00  0.00    +0.000 A 
ATOM      3  S   UNL     1       4.463   7.125  16.763  0.00  0.00    +0.000 S 
ATOM      4  C   UNL     1       5.103   5.545  16.519  0.00  0.00    +0.000 A 
ATOM      5  N   UNL     1       4.629   4.619  17.335  0.00  0.00    +0.000 NA
ENDROOT
BRANCH   4   6
ATOM      6  C   UNL     1       6.102   5.235  15.440  0.00  0.00    +0.000 A 
ATOM      7  C   UNL     1       7.421   5.640  15.432  0.00  0.00    +0.000 A 
ATOM      8  N   UNL     1       7.995   5.198  14.269  0.00  0.00    +0.000 N 
ATOM      9  C   UNL     1       7.066   4.523  13.509  0.00  0.00    +0.000 A 
ATOM     10  C   UNL     1       7.195   3.941  12.242  0.00  0.00    +0.000 A 
ATOM     11  C   UNL     1       6.071   3.316  11.698  0.00  0.00    +0.000 A 
ATOM     12  C   UNL     1       4.873   3.259  12.401  0.00  0.00    +0.000 A 
ATOM     13  C   UNL     1       4.763   3.839  13.669  0.00  0.00    +0.000 A 
ATOM     14  C   UNL     1       5.872   4.502  14.235  0.00  0.00    +0.000 A 
ATOM     15  H   UNL     1       8.954   5.356  13.992  0.00  0.00    +0.000 HD
ENDBRANCH   4   6
BRANCH   1  19
ATOM     16  C   UNL     1       1.883   2.867  21.301  0.00  0.00    +0.000 A 
ATOM     17  C   UNL     1       1.219   3.964  20.765  0.00  0.00    +0.000 A 
ATOM     18  C   UNL     1       1.843   4.728  19.774  0.00  0.00    +0.000 A 
ATOM     19  C   UNL     1       3.128   4.400  19.307  0.00  0.00    +0.000 A 
ATOM     20  C   UNL     1       3.784   3.304  19.892  0.00  0.00    +0.000 A 
ATOM     21  C   UNL     1       3.163   2.533  20.875  0.00  0.00    +0.000 A 
BRANCH  16  22
ATOM     22  O   UNL     1       1.303   2.096  22.265  0.00  0.00    +0.000 OA
ATOM     23  H   UNL     1       1.183   2.630  23.065  0.00  0.00    +0.000 HD
ENDBRANCH  16  22
BRANCH  20  24
ATOM     24  O   UNL     1       5.053   2.931  19.533  0.00  0.00    +0.000 OA
ATOM     25  H   UNL     1       5.562   3.757  19.393  0.00  0.00    +0.000 HD
ENDBRANCH  20  24
ENDBRANCH   1  19
TORSDOF 4
ENDMDL
MODEL 3
REMARK VINA RESULT:      -7.4      1.028      1.449
REMARK  Name = 
REMARK  4 active torsions:
REMARK  status: ('A' for Active; 'I' for Inactive)
REMARK    1  A    between atoms: O_1  and  C_2
REMARK    2  A    between atoms: C_5  and  C_6
REMARK    3  A    between atoms: C_9  and  C_10
REMARK    4  A    between atoms: C_20  and  O_21
REMARK                            x       y       z     vdW  Elec       q    Type
REMARK                         _______ _______ _______ _____ _____    ______ ____
ROOT
ATOM      1  C   UNL     1       3.129   6.059  17.999  0.00  0.00    +0.000 A 
ATOM      2  C   UNL     1       2.790   4.729  18.148  0.00  0.00    +0.000 A 
ATOM      3  S   UNL     1       3.785   3.752  17.163  0.00  0.00    +0.000 S 
ATOM      4  C   UNL     1       4.654   5.151  16.658  0.00  0.00    +0.000 A 
ATOM      5  N   UNL     1       4.238   6.287  17.190  0.00  0.00    +0.000 NA
ENDROOT
BRANCH   4   6
ATOM      6  C   UNL     1       5.818   5.082  15.711  0.00  0.00    +0.000 A 
ATOM      7  C   UNL     1       7.066   5.626  15.938  0.00  0.00    +0.000 A 
ATOM      8  N   UNL     1       7.840   5.391  14.832  0.00  0.00    +0.000 N 
ATOM      9  C   UNL     1       7.112   4.714  13.880  0.00  0.00    +0.000 A 
ATOM     10  C   UNL     1       7.481   4.304  12.593  0.00  0.00    +0.000 A 
ATOM     11  C   UNL     1       6.526   3.629  11.828  0.00  0.00    +0.000 A 
ATOM     12  C   UNL     1       5.261   3.359  12.339  0.00  0.00    +0.000 A 
ATOM     13  C   UNL     1       4.912   3.770  13.630  0.00  0.00    +0.000 A 
ATOM     14  C   UNL     1       5.844   4.477  14.417  0.00  0.00    +0.000 A 
ATOM     15  H   UNL     1       8.801   5.684  14.717  0.00  0.00    +0.000 HD
ENDBRANCH   4   6
BRANCH   1  19
ATOM     16  C   UNL     1       1.048   9.262  19.902  0.00  0.00    +0.000 A 
ATOM     17  C   UNL     1       1.364   9.350  18.552  0.00  0.00    +0.000 A 
ATOM     18  C   UNL     1       2.056   8.301  17.938  0.00  0.00    +0.000 A 
ATOM     19  C   UNL     1       2.432   7.157  18.664  0.00  0.00    +0.000 A 
ATOM     20  C   UNL     1       2.123   7.113  20.034  0.00  0.00    +0.000 A 
ATOM     21  C   UNL     1       1.426   8.153  20.650  0.00  0.00    +0.000 A 
BRANCH  16  22
ATOM     22  O   UNL     1       0.367  10.262  20.531  0.00  0.00    +0.000 OA
ATOM     23  H   UNL     1       0.839  11.098  20.393  0.00  0.00    +0.000 HD
ENDBRANCH  16  22
BRANCH  20  24
ATOM     24  O   UNL     1       2.483   6.060  20.835  0.00  0.00    +0.000 OA
ATOM     25  H   UNL     1       1.928   5.298  20.566  0.00  0.00    +0.000 HD
ENDBRANCH  20  24
ENDBRANCH   1  19
TORSDOF 4
ENDMDL
MODEL 4
REMARK VINA RESULT:      -7.3      4.184      5.776
REMARK  Name = 
REMARK  4 active torsions:
REMARK  status: ('A' for Active; 'I' for Inactive)
REMARK    1  A    between atoms: O_1  and  C_2
REMARK    2  A    between atoms: C_5  and  C_6
REMARK    3  A    between atoms: C_9  and  C_10
REMARK    4  A    between atoms: C_20  and  O_21
REMARK                            x       y       z     vdW  Elec       q    Type
REMARK                         _______ _______ _______ _____ _____    ______ ____
ROOT
ATOM      1  C   UNL     1       1.194   9.333  19.842  0.00  0.00    +0.000 A 
ATOM      2  C   UNL     1       1.324   9.583  18.491  0.00  0.00    +0.000 A 
ATOM      3  S   UNL     1       2.222   8.337  17.744  0.00  0.00    +0.000 S 
ATOM      4  C   UNL     1       2.315   7.505  19.250  0.00  0.00    +0.000 A 
ATOM      5  N   UNL     1       1.712   8.111  20.258  0.00  0.00    +0.000 NA
ENDROOT
BRANCH   4   6
ATOM      6  C   UNL     1       3.001   6.177  19.399  0.00  0.00    +0.000 A 
ATOM      7  C   UNL     1       4.301   5.903  19.023  0.00  0.00    +0.000 A 
ATOM      8  N   UNL     1       4.548   4.580  19.281  0.00  0.00    +0.000 N 
ATOM      9  C   UNL     1       3.425   3.982  19.806  0.00  0.00    +0.000 A 
ATOM     10  C   UNL     1       3.209   2.649  20.177  0.00  0.00    +0.000 A 
ATOM     11  C   UNL     1       1.952   2.313  20.685  0.00  0.00    +0.000 A 
ATOM     12  C   UNL     1       0.959   3.276  20.833  0.00  0.00    +0.000 A 
ATOM     13  C   UNL     1       1.194   4.604  20.464  0.00  0.00    +0.000 A 
ATOM     14  C   UNL     1       2.444   4.970  19.922  0.00  0.00    +0.000 A 
ATOM     15  H   UNL     1       5.419   4.101  19.098  0.00  0.00    +0.000 HD
ENDBRANCH   4   6
BRANCH   1  19
ATOM     16  C   UNL     1      -0.783  11.997  22.526  0.00  0.00    +0.000 A 
ATOM     17  C   UNL     1       0.040  12.507  21.530  0.00  0.00    +0.000 A 
ATOM     18  C   UNL     1       0.694  11.627  20.661  0.00  0.00    +0.000 A 
ATOM     19  C   UNL     1       0.526  10.236  20.776  0.00  0.00    +0.000 A 
ATOM     20  C   UNL     1      -0.289   9.752  21.814  0.00  0.00    +0.000 A 
ATOM     21  C   UNL     1      -0.950  10.625  22.678  0.00  0.00    +0.000 A 
BRANCH  16  22
ATOM     22  O   UNL     1      -1.442  12.826  23.386  0.00  0.00    +0.000 OA
ATOM     23  H   UNL     1      -2.102  13.333  22.890  0.00  0.00    +0.000 HD
ENDBRANCH  16  22
BRANCH  20  24
ATOM     24  O   UNL     1      -0.482   8.413  22.033  0.00  0.00    +0.000 OA
ATOM     25  H   UNL     1      -0.133   7.944  21.246  0.00  0.00    +0.000 HD
ENDBRANCH  20  24
ENDBRANCH   1  19
TORSDOF 4
ENDMDL
MODEL 5
REMARK VINA RESULT:      -7.3      4.522      9.071
REMARK  Name = 
REMARK  4 active torsions:
REMARK  status: ('A' for Active; 'I' for Inactive)
REMARK    1  A    between atoms: O_1  and  C_2
REMARK    2  A    between atoms: C_5  and  C_6
REMARK    3  A    between atoms: C_9  and  C_10
REMARK    4  A    between atoms: C_20  and  O_21
REMARK                            x       y       z     vdW  Elec       q    Type
REMARK                         _______ _______ _______ _____ _____    ______ ____
ROOT
ATOM      1  C   UNL     1       2.375   6.998  19.587  0.00  0.00    +0.000 A 
ATOM      2  C   UNL     1       2.363   7.848  18.500  0.00  0.00    +0.000 A 
ATOM      3  S   UNL     1       1.427   9.234  18.845  0.00  0.00    +0.000 S 
ATOM      4  C   UNL     1       1.161   8.653  20.445  0.00  0.00    +0.000 A 
ATOM      5  N   UNL     1       1.735   7.494  20.719  0.00  0.00    +0.000 NA
ENDROOT
BRANCH   4   6
ATOM      6  C   UNL     1       0.365   9.420  21.462  0.00  0.00    +0.000 A 
ATOM      7  C   UNL     1      -0.381   8.861  22.480  0.00  0.00    +0.000 A 
ATOM      8  N   UNL     1      -0.990   9.877  23.169  0.00  0.00    +0.000 N 
ATOM      9  C   UNL     1      -0.666  11.091  22.607  0.00  0.00    +0.000 A 
ATOM     10  C   UNL     1      -1.088  12.380  22.953  0.00  0.00    +0.000 A 
ATOM     11  C   UNL     1      -0.598  13.448  22.196  0.00  0.00    +0.000 A 
ATOM     12  C   UNL     1       0.292  13.234  21.149  0.00  0.00    +0.000 A 
ATOM     13  C   UNL     1       0.709  11.940  20.822  0.00  0.00    +0.000 A 
ATOM     14  C   UNL     1       0.211  10.838  21.549  0.00  0.00    +0.000 A 
ATOM     15  H   UNL     1      -1.604   9.759  23.963  0.00  0.00    +0.000 HD
ENDBRANCH   4   6
BRANCH   1  19
ATOM     16  C   UNL     1       4.367   3.225  19.649  0.00  0.00    +0.000 A 
ATOM     17  C   UNL     1       5.007   4.334  19.112  0.00  0.00    +0.000 A 
ATOM     18  C   UNL     1       4.344   5.565  19.085  0.00  0.00    +0.000 A 
ATOM     19  C   UNL     1       3.041   5.698  19.598  0.00  0.00    +0.000 A 
ATOM     20  C   UNL     1       2.411   4.549  20.105  0.00  0.00    +0.000 A 
ATOM     21  C   UNL     1       3.071   3.321  20.142  0.00  0.00    +0.000 A 
BRANCH  16  22
ATOM     22  O   UNL     1       4.986   2.010  19.698  0.00  0.00    +0.000 OA
ATOM     23  H   UNL     1       4.479   1.377  19.166  0.00  0.00    +0.000 HD
ENDBRANCH  16  22
BRANCH  20  24
ATOM     24  O   UNL     1       1.128   4.569  20.589  0.00  0.00    +0.000 OA
ATOM     25  H   UNL     1       1.150   5.073  21.429  0.00  0.00    +0.000 HD
ENDBRANCH  20  24
ENDBRANCH   1  19
TORSDOF 4
ENDMDL
MODEL 6
REMARK VINA RESULT:      -7.3      4.080      4.988
REMARK  Name = 
REMARK  4 active torsions:
REMARK  status: ('A' for Active; 'I' for Inactive)
REMARK    1  A    between atoms: O_1  and  C_2
REMARK    2  A    between atoms: C_5  and  C_6
REMARK    3  A    between atoms: C_9  and  C_10
REMARK    4  A    between atoms: C_20  and  O_21
REMARK                            x       y       z     vdW  Elec       q    Type
REMARK                         _______ _______ _______ _____ _____    ______ ____
ROOT
ATOM      1  C   UNL     1       1.480   8.802  19.586  0.00  0.00    +0.000 A 
ATOM      2  C   UNL     1       1.827   9.212  18.315  0.00  0.00    +0.000 A 
ATOM      3  S   UNL     1       2.836   8.049  17.575  0.00  0.00    +0.000 S 
ATOM      4  C   UNL     1       2.684   7.039  18.963  0.00  0.00    +0.000 A 
ATOM      5  N   UNL     1       1.924   7.529  19.927  0.00  0.00    +0.000 NA
ENDROOT
BRANCH   4   6
ATOM      6  C   UNL     1       3.338   5.690  19.057  0.00  0.00    +0.000 A 
ATOM      7  C   UNL     1       4.689   5.468  19.233  0.00  0.00    +0.000 A 
ATOM      8  N   UNL     1       4.902   4.115  19.229  0.00  0.00    +0.000 N 
ATOM      9  C   UNL     1       3.712   3.449  19.038  0.00  0.00    +0.000 A 
ATOM     10  C   UNL     1       3.461   2.076  18.926  0.00  0.00    +0.000 A 
ATOM     11  C   UNL     1       2.139   1.673  18.727  0.00  0.00    +0.000 A 
ATOM     12  C   UNL     1       1.108   2.605  18.662  0.00  0.00    +0.000 A 
ATOM     13  C   UNL     1       1.376   3.972  18.783  0.00  0.00    +0.000 A 
ATOM     14  C   UNL     1       2.705   4.413  18.958  0.00  0.00    +0.000 A 
ATOM     15  H   UNL     1       5.800   3.663  19.333  0.00  0.00    +0.000 HD
ENDBRANCH   4   6
BRANCH   1  19
ATOM     16  C   UNL     1      -0.942  11.102  22.243  0.00  0.00    +0.000 A 
ATOM     17  C   UNL     1      -1.091  11.251  20.870  0.00  0.00    +0.000 A 
ATOM     18  C   UNL     1      -0.286  10.502  20.005  0.00  0.00    +0.000 A 
ATOM     19  C   UNL     1       0.668   9.597  20.504  0.00  0.00    +0.000 A 
ATOM     20  C   UNL     1       0.814   9.493  21.898  0.00  0.00    +0.000 A 
ATOM     21  C   UNL     1       0.008  10.232  22.765  0.00  0.00    +0.000 A 
BRANCH  16  22
ATOM     22  O   UNL     1      -1.714  11.811  23.115  0.00  0.00    +0.000 OA
ATOM     23  H   UNL     1      -1.184  12.530  23.492  0.00  0.00    +0.000 HD
ENDBRANCH  16  22
BRANCH  20  24
ATOM     24  O   UNL     1       1.743   8.670  22.479  0.00  0.00    +0.000 OA
ATOM     25  H   UNL     1       2.412   9.251  22.899  0.00  0.00    +0.000 HD
ENDBRANCH  20  24
ENDBRANCH   1  19
TORSDOF 4
ENDMDL
MODEL 7
REMARK VINA RESULT:      -7.2      1.740      2.424
REMARK  Name = 
REMARK  4 active torsions:
REMARK  status: ('A' for Active; 'I' for Inactive)
REMARK    1  A    between atoms: O_1  and  C_2
REMARK    2  A    between atoms: C_5  and  C_6
REMARK    3  A    between atoms: C_9  and  C_10
REMARK    4  A    between atoms: C_20  and  O_21
REMARK                            x       y       z     vdW  Elec       q    Type
REMARK                         _______ _______ _______ _____ _____    ______ ____
ROOT
ATOM      1  C   UNL     1       2.222   6.750  20.038  0.00  0.00    +0.000 A 
ATOM      2  C   UNL     1       1.816   5.519  20.513  0.00  0.00    +0.000 A 
ATOM      3  S   UNL     1       2.941   4.314  20.068  0.00  0.00    +0.000 S 
ATOM      4  C   UNL     1       3.936   5.516  19.339  0.00  0.00    +0.000 A 
ATOM      5  N   UNL     1       3.468   6.750  19.418  0.00  0.00    +0.000 NA
ENDROOT
BRANCH   4   6
ATOM      6  C   UNL     1       5.251   5.192  18.689  0.00  0.00    +0.000 A 
ATOM      7  C   UNL     1       6.475   5.173  19.328  0.00  0.00    +0.000 A 
ATOM      8  N   UNL     1       7.435   4.874  18.398  0.00  0.00    +0.000 N 
ATOM      9  C   UNL     1       6.860   4.713  17.158  0.00  0.00    +0.000 A 
ATOM     10  C   UNL     1       7.457   4.442  15.920  0.00  0.00    +0.000 A 
ATOM     11  C   UNL     1       6.621   4.333  14.807  0.00  0.00    +0.000 A 
ATOM     12  C   UNL     1       5.242   4.470  14.931  0.00  0.00    +0.000 A 
ATOM     13  C   UNL     1       4.662   4.732  16.175  0.00  0.00    +0.000 A 
ATOM     14  C   UNL     1       5.481   4.875  17.315  0.00  0.00    +0.000 A 
ATOM     15  H   UNL     1       8.426   4.799  18.583  0.00  0.00    +0.000 HD
ENDBRANCH   4   6
BRANCH   1  19
ATOM     16  C   UNL     1       0.006  10.359  20.565  0.00  0.00    +0.000 A 
ATOM     17  C   UNL     1       0.034   9.411  21.581  0.00  0.00    +0.000 A 
ATOM     18  C   UNL     1       0.753   8.226  21.396  0.00  0.00    +0.000 A 
ATOM     19  C   UNL     1       1.453   7.981  20.202  0.00  0.00    +0.000 A 
ATOM     20  C   UNL     1       1.379   8.946  19.183  0.00  0.00    +0.000 A 
ATOM     21  C   UNL     1       0.671  10.134  19.365  0.00  0.00    +0.000 A 
BRANCH  16  22
ATOM     22  O   UNL     1      -0.679  11.529  20.713  0.00  0.00    +0.000 OA
ATOM     23  H   UNL     1      -0.705  11.760  21.655  0.00  0.00    +0.000 HD
ENDBRANCH  16  22
BRANCH  20  24
ATOM     24  O   UNL     1       1.993   8.781  17.968  0.00  0.00    +0.000 OA
ATOM     25  H   UNL     1       1.620   7.965  17.572  0.00  0.00    +0.000 HD
ENDBRANCH  20  24
ENDBRANCH   1  19
TORSDOF 4
ENDMDL
MODEL 8
REMARK VINA RESULT:      -7.2      4.432      8.372
REMARK  Name = 
REMARK  4 active torsions:
REMARK  status: ('A' for Active; 'I' for Inactive)
REMARK    1  A    between atoms: O_1  and  C_2
REMARK    2  A    between atoms: C_5  and  C_6
REMARK    3  A    between atoms: C_9  and  C_10
REMARK    4  A    between atoms: C_20  and  O_21
REMARK                            x       y       z     vdW  Elec       q    Type
REMARK                         _______ _______ _______ _____ _____    ______ ____
ROOT
ATOM      1  C   UNL     1       2.686   6.184  18.693  0.00  0.00    +0.000 A 
ATOM      2  C   UNL     1       2.978   7.091  17.694  0.00  0.00    +0.000 A 
ATOM      3  S   UNL     1       2.380   8.636  18.107  0.00  0.00    +0.000 S 
ATOM      4  C   UNL     1       1.837   8.018  19.621  0.00  0.00    +0.000 A 
ATOM      5  N   UNL     1       2.085   6.735  19.820  0.00  0.00    +0.000 NA
ENDROOT
BRANCH   4   6
ATOM      6  C   UNL     1       1.162   8.879  20.650  0.00  0.00    +0.000 A 
ATOM      7  C   UNL     1       1.318   8.762  22.017  0.00  0.00    +0.000 A 
ATOM      8  N   UNL     1       0.513   9.694  22.618  0.00  0.00    +0.000 N 
ATOM      9  C   UNL     1      -0.179  10.408  21.666  0.00  0.00    +0.000 A 
ATOM     10  C   UNL     1      -1.133  11.420  21.821  0.00  0.00    +0.000 A 
ATOM     11  C   UNL     1      -1.685  11.975  20.665  0.00  0.00    +0.000 A 
ATOM     12  C   UNL     1      -1.284  11.546  19.403  0.00  0.00    +0.000 A 
ATOM     13  C   UNL     1      -0.325  10.538  19.266  0.00  0.00    +0.000 A 
ATOM     14  C   UNL     1       0.233   9.939  20.415  0.00  0.00    +0.000 A 
ATOM     15  H   UNL     1       0.420   9.831  23.615  0.00  0.00    +0.000 HD
ENDBRANCH   4   6
BRANCH   1  19
ATOM     16  C   UNL     1       3.644   2.028  18.549  0.00  0.00    +0.000 A 
ATOM     17  C   UNL     1       4.483   2.906  19.222  0.00  0.00    +0.000 A 
ATOM     18  C   UNL     1       4.168   4.268  19.256  0.00  0.00    +0.000 A 
ATOM     19  C   UNL     1       3.013   4.762  18.623  0.00  0.00    +0.000 A 
ATOM     20  C   UNL     1       2.203   3.851  17.924  0.00  0.00    +0.000 A 
ATOM     21  C   UNL     1       2.507   2.490  17.895  0.00  0.00    +0.000 A 
BRANCH  16  22
ATOM     22  O   UNL     1       3.915   0.692  18.502  0.00  0.00    +0.000 OA
ATOM     23  H   UNL     1       4.442   0.451  19.280  0.00  0.00    +0.000 HD
ENDBRANCH  16  22
BRANCH  20  24
ATOM     24  O   UNL     1       1.079   4.241  17.242  0.00  0.00    +0.000 OA
ATOM     25  H   UNL     1       1.369   4.489  16.339  0.00  0.00    +0.000 HD
ENDBRANCH  20  24
ENDBRANCH   1  19
TORSDOF 4
ENDMDL
MODEL 9
REMARK VINA RESULT:      -7.1      4.306      8.675
REMARK  Name = 
REMARK  4 active torsions:
REMARK  status: ('A' for Active; 'I' for Inactive)
REMARK    1  A    between atoms: O_1  and  C_2
REMARK    2  A    between atoms: C_5  and  C_6
REMARK    3  A    between atoms: C_9  and  C_10
REMARK    4  A    between atoms: C_20  and  O_21
REMARK                            x       y       z     vdW  Elec       q    Type
REMARK                         _______ _______ _______ _____ _____    ______ ____
ROOT
ATOM      1  C   UNL     1       2.436   6.734  18.695  0.00  0.00    +0.000 A 
ATOM      2  C   UNL     1       2.565   7.717  17.736  0.00  0.00    +0.000 A 
ATOM      3  S   UNL     1       1.904   9.186  18.303  0.00  0.00    +0.000 S 
ATOM      4  C   UNL     1       1.557   8.441  19.817  0.00  0.00    +0.000 A 
ATOM      5  N   UNL     1       1.912   7.171  19.908  0.00  0.00    +0.000 NA
ENDROOT
BRANCH   4   6
ATOM      6  C   UNL     1       0.928   9.187  20.960  0.00  0.00    +0.000 A 
ATOM      7  C   UNL     1       1.155   8.938  22.298  0.00  0.00    +0.000 A 
ATOM      8  N   UNL     1       0.374   9.794  23.029  0.00  0.00    +0.000 N 
ATOM      9  C   UNL     1      -0.372  10.589  22.188  0.00  0.00    +0.000 A 
ATOM     10  C   UNL     1      -1.326  11.568  22.492  0.00  0.00    +0.000 A 
ATOM     11  C   UNL     1      -1.943  12.225  21.425  0.00  0.00    +0.000 A 
ATOM     12  C   UNL     1      -1.603  11.929  20.109  0.00  0.00    +0.000 A 
ATOM     13  C   UNL     1      -0.643  10.953  19.824  0.00  0.00    +0.000 A 
ATOM     14  C   UNL     1      -0.022  10.252  20.878  0.00  0.00    +0.000 A 
ATOM     15  H   UNL     1       0.332   9.831  24.038  0.00  0.00    +0.000 HD
ENDBRANCH   4   6
BRANCH   1  19
ATOM     16  C   UNL     1       3.652   2.691  18.071  0.00  0.00    +0.000 A 
ATOM     17  C   UNL     1       2.466   3.149  17.512  0.00  0.00    +0.000 A 
ATOM     18  C   UNL     1       2.068   4.472  17.730  0.00  0.00    +0.000 A 
ATOM     19  C   UNL     1       2.853   5.347  18.502  0.00  0.00    +0.000 A 
ATOM     20  C   UNL     1       4.031   4.843  19.078  0.00  0.00    +0.000 A 
ATOM     21  C   UNL     1       4.437   3.527  18.857  0.00  0.00    +0.000 A 
BRANCH  16  22
ATOM     22  O   UNL     1       4.075   1.409  17.873  0.00  0.00    +0.000 OA
ATOM     23  H   UNL     1       4.096   1.229  16.920  0.00  0.00    +0.000 HD
ENDBRANCH  16  22
BRANCH  20  24
ATOM     24  O   UNL     1       4.841   5.606  19.879  0.00  0.00    +0.000 OA
ATOM     25  H   UNL     1       5.653   5.080  20.043  0.00  0.00    +0.000 HD
ENDBRANCH  20  24
ENDBRANCH   1  19
TORSDOF 4
ENDMDL
