MODEL 1
REMARK VINA RESULT:      -7.2      0.000      0.000
REMARK  Name = 
REMARK  7 active torsions:
REMARK  status: ('A' for Active; 'I' for Inactive)
REMARK    1  A    between atoms: C_1  and  C_2
REMARK    2  A    between atoms: C_2  and  C_3
REMARK    3  A    between atoms: C_2  and  C_4
REMARK    4  A    between atoms: C_9  and  C_10
REMARK    5  A    between atoms: C_9  and  C_11
REMARK    6  A    between atoms: N_13  and  C_14
REMARK    7  A    between atoms: C_14  and  C_15
REMARK                            x       y       z     vdW  Elec       q    Type
REMARK                         _______ _______ _______ _____ _____    ______ ____
ROOT
ATOM      1  C   UNL     1       4.354   3.277  19.044  0.00  0.00    +0.000 C 
ATOM      2  O   UNL     1       5.329   3.105  19.780  0.00  0.00    +0.000 OA
ATOM      3  N   UNL     1       4.547   3.615  17.713  0.00  0.00    +0.000 N 
ATOM      4  H   UNL     1       3.761   3.674  17.081  0.00  0.00    +0.000 HD
ENDROOT
BRANCH   1  10
ATOM      5  C   UNL     1       2.430   5.663  19.669  0.00  0.00    +0.000 C 
ATOM      6  O   UNL     1       2.388   6.513  20.561  0.00  0.00    +0.000 OA
ATOM      7  N   UNL     1       2.102   4.344  19.909  0.00  0.00    +0.000 N 
ATOM      8  C   UNL     1       1.720   3.821  21.219  0.00  0.00    +0.000 C 
ATOM      9  C   UNL     1       2.680   2.664  20.985  0.00  0.00    +0.000 C 
ATOM     10  C   UNL     1       2.826   3.106  19.505  0.00  0.00    +0.000 C 
ATOM     11  C   UNL     1       1.930   2.292  18.565  0.00  0.00    +0.000 C 
BRANCH   5  13
ATOM     12  C   UNL     1       1.389   5.538  17.430  0.00  0.00    +0.000 C 
ATOM     13  C   UNL     1       2.606   6.052  18.204  0.00  0.00    +0.000 C 
ATOM     14  C   UNL     1       2.717   7.568  18.046  0.00  0.00    +0.000 C 
ENDBRANCH   5  13
ENDBRANCH   1  10
BRANCH   3  15
ATOM     15  C   UNL     1       5.858   3.731  17.105  0.00  0.00    +0.000 C 
BRANCH  15  16
ATOM     16  C   UNL     1       6.548   5.034  17.429  0.00  0.00    +0.000 A 
ATOM     17  C   UNL     1       7.484   5.063  18.483  0.00  0.00    +0.000 A 
ATOM     18  C   UNL     1       8.112   6.253  18.856  0.00  0.00    +0.000 A 
ATOM     19  C   UNL     1       7.814   7.426  18.176  0.00  0.00    +0.000 A 
ATOM     20  F   UNL     1       8.416   8.568  18.534  0.00  0.00    +0.000 F 
ATOM     21  C   UNL     1       6.899   7.431  17.132  0.00  0.00    +0.000 A 
ATOM     22  C   UNL     1       6.264   6.243  16.764  0.00  0.00    +0.000 A 
ATOM     23 CL   UNL     1       5.113   6.323  15.474  0.00  0.00    +0.000 Cl
ENDBRANCH  15  16
ENDBRANCH   3  15
TORSDOF 4
ENDMDL
MODEL 2
REMARK VINA RESULT:      -6.8      1.265      1.575
REMARK  Name = 
REMARK  7 active torsions:
REMARK  status: ('A' for Active; 'I' for Inactive)
REMARK    1  A    between atoms: C_1  and  C_2
REMARK    2  A    between atoms: C_2  and  C_3
REMARK    3  A    between atoms: C_2  and  C_4
REMARK    4  A    between atoms: C_9  and  C_10
REMARK    5  A    between atoms: C_9  and  C_11
REMARK    6  A    between atoms: N_13  and  C_14
REMARK    7  A    between atoms: C_14  and  C_15
REMARK                            x       y       z     vdW  Elec       q    Type
REMARK                         _______ _______ _______ _____ _____    ______ ____
ROOT
ATOM      1  C   UNL     1       3.440   3.215  17.891  0.00  0.00    +0.000 C 
ATOM      2  O   UNL     1       4.212   2.516  18.553  0.00  0.00    +0.000 OA
ATOM      3  N   UNL     1       3.917   3.922  16.798  0.00  0.00    +0.000 N 
ATOM      4  H   UNL     1       3.280   4.428  16.199  0.00  0.00    +0.000 HD
ENDROOT
BRANCH   1  10
ATOM      5  C   UNL     1       2.222   4.947  20.193  0.00  0.00    +0.000 C 
ATOM      6  O   UNL     1       2.228   4.858  21.422  0.00  0.00    +0.000 OA
ATOM      7  N   UNL     1       1.470   4.095  19.409  0.00  0.00    +0.000 N 
ATOM      8  C   UNL     1       0.658   3.000  19.936  0.00  0.00    +0.000 C 
ATOM      9  C   UNL     1       1.258   2.102  18.865  0.00  0.00    +0.000 C 
ATOM     10  C   UNL     1       1.867   3.354  18.179  0.00  0.00    +0.000 C 
ATOM     11  C   UNL     1       1.013   3.846  17.006  0.00  0.00    +0.000 C 
BRANCH   5  13
ATOM     12  C   UNL     1       2.219   7.416  20.062  0.00  0.00    +0.000 C 
ATOM     13  C   UNL     1       2.839   6.145  19.476  0.00  0.00    +0.000 C 
ATOM     14  C   UNL     1       4.356   6.176  19.662  0.00  0.00    +0.000 C 
ENDBRANCH   5  13
ENDBRANCH   1  10
BRANCH   3  15
ATOM     15  C   UNL     1       5.291   3.850  16.344  0.00  0.00    +0.000 C 
BRANCH  15  16
ATOM     16  C   UNL     1       6.172   4.919  16.944  0.00  0.00    +0.000 A 
ATOM     17  C   UNL     1       7.086   4.557  17.954  0.00  0.00    +0.000 A 
ATOM     18  C   UNL     1       7.886   5.516  18.579  0.00  0.00    +0.000 A 
ATOM     19  C   UNL     1       7.785   6.846  18.195  0.00  0.00    +0.000 A 
ATOM     20  F   UNL     1       8.552   7.767  18.795  0.00  0.00    +0.000 F 
ATOM     21  C   UNL     1       6.896   7.236  17.203  0.00  0.00    +0.000 A 
ATOM     22  C   UNL     1       6.089   6.278  16.585  0.00  0.00    +0.000 A 
ATOM     23 CL   UNL     1       4.981   6.834  15.375  0.00  0.00    +0.000 Cl
ENDBRANCH  15  16
ENDBRANCH   3  15
TORSDOF 4
ENDMDL
MODEL 3
REMARK VINA RESULT:      -6.8      3.165      5.534
REMARK  Name = 
REMARK  7 active torsions:
REMARK  status: ('A' for Active; 'I' for Inactive)
REMARK    1  A    between atoms: C_1  and  C_2
REMARK    2  A    between atoms: C_2  and  C_3
REMARK    3  A    between atoms: C_2  and  C_4
REMARK    4  A    between atoms: C_9  and  C_10
REMARK    5  A    between atoms: C_9  and  C_11
REMARK    6  A    between atoms: N_13  and  C_14
REMARK    7  A    between atoms: C_14  and  C_15
REMARK                            x       y       z     vdW  Elec       q    Type
REMARK                         _______ _______ _______ _____ _____    ______ ____
ROOT
ATOM      1  C   UNL     1       5.089   6.551  16.604  0.00  0.00    +0.000 C 
ATOM      2  O   UNL     1       4.838   6.886  15.443  0.00  0.00    +0.000 OA
ATOM      3  N   UNL     1       4.307   7.029  17.644  0.00  0.00    +0.000 N 
ATOM      4  H   UNL     1       4.449   6.694  18.586  0.00  0.00    +0.000 HD
ENDROOT
BRANCH   1  10
ATOM      5  C   UNL     1       4.719   4.114  18.529  0.00  0.00    +0.000 C 
ATOM      6  O   UNL     1       4.480   4.008  19.734  0.00  0.00    +0.000 OA
ATOM      7  N   UNL     1       5.951   4.534  18.070  0.00  0.00    +0.000 N 
ATOM      8  C   UNL     1       7.058   4.928  18.940  0.00  0.00    +0.000 C 
ATOM      9  C   UNL     1       7.250   6.156  18.062  0.00  0.00    +0.000 C 
ATOM     10  C   UNL     1       6.269   5.547  17.024  0.00  0.00    +0.000 C 
ATOM     11  C   UNL     1       7.003   4.854  15.870  0.00  0.00    +0.000 C 
BRANCH   5  13
ATOM     12  C   UNL     1       3.664   2.046  17.680  0.00  0.00    +0.000 C 
ATOM     13  C   UNL     1       3.767   3.559  17.474  0.00  0.00    +0.000 C 
ATOM     14  C   UNL     1       2.381   4.193  17.596  0.00  0.00    +0.000 C 
ENDBRANCH   5  13
ENDBRANCH   1  10
BRANCH   3  15
ATOM     15  C   UNL     1       3.150   7.879  17.441  0.00  0.00    +0.000 C 
BRANCH  15  16
ATOM     16  C   UNL     1       2.351   8.103  18.701  0.00  0.00    +0.000 A 
ATOM     17  C   UNL     1       2.297   7.075  19.664  0.00  0.00    +0.000 A 
ATOM     18  C   UNL     1       1.530   7.211  20.822  0.00  0.00    +0.000 A 
ATOM     19  C   UNL     1       0.813   8.381  21.034  0.00  0.00    +0.000 A 
ATOM     20  F   UNL     1       0.076   8.512  22.146  0.00  0.00    +0.000 F 
ATOM     21  C   UNL     1       0.846   9.414  20.108  0.00  0.00    +0.000 A 
ATOM     22  C   UNL     1       1.606   9.274  18.944  0.00  0.00    +0.000 A 
ATOM     23 CL   UNL     1       1.581  10.587  17.816  0.00  0.00    +0.000 Cl
ENDBRANCH  15  16
ENDBRANCH   3  15
TORSDOF 4
ENDMDL
MODEL 4
REMARK VINA RESULT:      -6.8      3.990      6.381
REMARK  Name = 
REMARK  7 active torsions:
REMARK  status: ('A' for Active; 'I' for Inactive)
REMARK    1  A    between atoms: C_1  and  C_2
REMARK    2  A    between atoms: C_2  and  C_3
REMARK    3  A    between atoms: C_2  and  C_4
REMARK    4  A    between atoms: C_9  and  C_10
REMARK    5  A    between atoms: C_9  and  C_11
REMARK    6  A    between atoms: N_13  and  C_14
REMARK    7  A    between atoms: C_14  and  C_15
REMARK                            x       y       z     vdW  Elec       q    Type
REMARK                         _______ _______ _______ _____ _____    ______ ____
ROOT
ATOM      1  C   UNL     1       3.355   6.695  18.047  0.00  0.00    +0.000 C 
ATOM      2  O   UNL     1       3.778   7.345  17.087  0.00  0.00    +0.000 OA
ATOM      3  N   UNL     1       2.443   7.268  18.919  0.00  0.00    +0.000 N 
ATOM      4  H   UNL     1       2.025   6.718  19.656  0.00  0.00    +0.000 HD
ENDROOT
BRANCH   1  10
ATOM      5  C   UNL     1       6.108   5.418  17.289  0.00  0.00    +0.000 C 
ATOM      6  O   UNL     1       6.645   5.120  16.220  0.00  0.00    +0.000 OA
ATOM      7  N   UNL     1       5.051   4.689  17.796  0.00  0.00    +0.000 N 
ATOM      8  C   UNL     1       4.444   3.546  17.116  0.00  0.00    +0.000 C 
ATOM      9  C   UNL     1       3.080   4.150  17.417  0.00  0.00    +0.000 C 
ATOM     10  C   UNL     1       3.761   5.174  18.363  0.00  0.00    +0.000 C 
ATOM     11  C   UNL     1       3.677   4.751  19.834  0.00  0.00    +0.000 C 
BRANCH   5  13
ATOM     12  C   UNL     1       7.654   5.700  19.198  0.00  0.00    +0.000 C 
ATOM     13  C   UNL     1       6.726   6.444  18.235  0.00  0.00    +0.000 C 
ATOM     14  C   UNL     1       7.519   7.497  17.461  0.00  0.00    +0.000 C 
ENDBRANCH   5  13
ENDBRANCH   1  10
BRANCH   3  15
ATOM     15  C   UNL     1       1.903   8.602  18.740  0.00  0.00    +0.000 C 
BRANCH  15  16
ATOM     16  C   UNL     1       1.160   9.108  19.953  0.00  0.00    +0.000 A 
ATOM     17  C   UNL     1       1.445   8.540  21.211  0.00  0.00    +0.000 A 
ATOM     18  C   UNL     1       0.750   8.936  22.355  0.00  0.00    +0.000 A 
ATOM     19  C   UNL     1      -0.235   9.909  22.254  0.00  0.00    +0.000 A 
ATOM     20  F   UNL     1      -0.903  10.289  23.351  0.00  0.00    +0.000 F 
ATOM     21  C   UNL     1      -0.540  10.490  21.031  0.00  0.00    +0.000 A 
ATOM     22  C   UNL     1       0.150  10.088  19.885  0.00  0.00    +0.000 A 
ATOM     23 CL   UNL     1      -0.297  10.831  18.386  0.00  0.00    +0.000 Cl
ENDBRANCH  15  16
ENDBRANCH   3  15
TORSDOF 4
ENDMDL
MODEL 5
REMARK VINA RESULT:      -6.7      3.247      6.326
REMARK  Name = 
REMARK  7 active torsions:
REMARK  status: ('A' for Active; 'I' for Inactive)
REMARK    1  A    between atoms: C_1  and  C_2
REMARK    2  A    between atoms: C_2  and  C_3
REMARK    3  A    between atoms: C_2  and  C_4
REMARK    4  A    between atoms: C_9  and  C_10
REMARK    5  A    between atoms: C_9  and  C_11
REMARK    6  A    between atoms: N_13  and  C_14
REMARK    7  A    between atoms: C_14  and  C_15
REMARK                            x       y       z     vdW  Elec       q    Type
REMARK                         _______ _______ _______ _____ _____    ______ ____
ROOT
ATOM      1  C   UNL     1       5.078   6.535  17.443  0.00  0.00    +0.000 C 
ATOM      2  O   UNL     1       4.486   7.354  16.736  0.00  0.00    +0.000 OA
ATOM      3  N   UNL     1       4.354   5.611  18.181  0.00  0.00    +0.000 N 
ATOM      4  H   UNL     1       4.828   4.882  18.694  0.00  0.00    +0.000 HD
ENDROOT
BRANCH   1  10
ATOM      5  C   UNL     1       6.811   4.443  15.893  0.00  0.00    +0.000 C 
ATOM      6  O   UNL     1       6.928   3.217  15.956  0.00  0.00    +0.000 OA
ATOM      7  N   UNL     1       7.322   5.271  16.872  0.00  0.00    +0.000 N 
ATOM      8  C   UNL     1       7.999   4.793  18.076  0.00  0.00    +0.000 C 
ATOM      9  C   UNL     1       7.146   5.760  18.883  0.00  0.00    +0.000 C 
ATOM     10  C   UNL     1       6.675   6.423  17.561  0.00  0.00    +0.000 C 
ATOM     11  C   UNL     1       7.462   7.698  17.239  0.00  0.00    +0.000 C 
BRANCH   5  13
ATOM     12  C   UNL     1       7.531   5.372  13.718  0.00  0.00    +0.000 C 
ATOM     13  C   UNL     1       6.320   5.133  14.623  0.00  0.00    +0.000 C 
ATOM     14  C   UNL     1       5.289   4.273  13.893  0.00  0.00    +0.000 C 
ENDBRANCH   5  13
ENDBRANCH   1  10
BRANCH   3  15
ATOM     15  C   UNL     1       2.908   5.513  18.132  0.00  0.00    +0.000 C 
BRANCH  15  16
ATOM     16  C   UNL     1       2.341   4.585  19.178  0.00  0.00    +0.000 A 
ATOM     17  C   UNL     1       2.109   5.083  20.475  0.00  0.00    +0.000 A 
ATOM     18  C   UNL     1       1.635   4.253  21.493  0.00  0.00    +0.000 A 
ATOM     19  C   UNL     1       1.381   2.916  21.221  0.00  0.00    +0.000 A 
ATOM     20  F   UNL     1       0.926   2.118  22.197  0.00  0.00    +0.000 F 
ATOM     21  C   UNL     1       1.596   2.393  19.954  0.00  0.00    +0.000 A 
ATOM     22  C   UNL     1       2.080   3.221  18.938  0.00  0.00    +0.000 A 
ATOM     23 CL   UNL     1       2.353   2.501  17.387  0.00  0.00    +0.000 Cl
ENDBRANCH  15  16
ENDBRANCH   3  15
TORSDOF 4
ENDMDL
MODEL 6
REMARK VINA RESULT:      -6.6      1.937      2.417
REMARK  Name = 
REMARK  7 active torsions:
REMARK  status: ('A' for Active; 'I' for Inactive)
REMARK    1  A    between atoms: C_1  and  C_2
REMARK    2  A    between atoms: C_2  and  C_3
REMARK    3  A    between atoms: C_2  and  C_4
REMARK    4  A    between atoms: C_9  and  C_10
REMARK    5  A    between atoms: C_9  and  C_11
REMARK    6  A    between atoms: N_13  and  C_14
REMARK    7  A    between atoms: C_14  and  C_15
REMARK                            x       y       z     vdW  Elec       q    Type
REMARK                         _______ _______ _______ _____ _____    ______ ____
ROOT
ATOM      1  C   UNL     1       4.275   3.015  19.850  0.00  0.00    +0.000 C 
ATOM      2  O   UNL     1       5.192   2.253  20.167  0.00  0.00    +0.000 OA
ATOM      3  N   UNL     1       4.566   4.243  19.275  0.00  0.00    +0.000 N 
ATOM      4  H   UNL     1       3.824   4.836  18.933  0.00  0.00    +0.000 HD
ENDROOT
BRANCH   1  10
ATOM      5  C   UNL     1       2.009   5.171  19.893  0.00  0.00    +0.000 C 
ATOM      6  O   UNL     1       1.694   6.062  20.685  0.00  0.00    +0.000 OA
ATOM      7  N   UNL     1       1.790   3.838  20.176  0.00  0.00    +0.000 N 
ATOM      8  C   UNL     1       1.215   3.352  21.429  0.00  0.00    +0.000 C 
ATOM      9  C   UNL     1       2.326   2.314  21.482  0.00  0.00    +0.000 C 
ATOM     10  C   UNL     1       2.714   2.680  20.024  0.00  0.00    +0.000 C 
ATOM     11  C   UNL     1       2.121   1.703  19.003  0.00  0.00    +0.000 C 
BRANCH   5  13
ATOM     12  C   UNL     1       1.427   4.821  17.515  0.00  0.00    +0.000 C 
ATOM     13  C   UNL     1       2.429   5.489  18.460  0.00  0.00    +0.000 C 
ATOM     14  C   UNL     1       2.447   6.997  18.214  0.00  0.00    +0.000 C 
ENDBRANCH   5  13
ENDBRANCH   1  10
BRANCH   3  15
ATOM     15  C   UNL     1       5.915   4.675  18.968  0.00  0.00    +0.000 C 
BRANCH  15  16
ATOM     16  C   UNL     1       6.185   4.771  17.486  0.00  0.00    +0.000 A 
ATOM     17  C   UNL     1       5.620   3.805  16.629  0.00  0.00    +0.000 A 
ATOM     18  C   UNL     1       5.881   3.817  15.258  0.00  0.00    +0.000 A 
ATOM     19  C   UNL     1       6.705   4.801  14.727  0.00  0.00    +0.000 A 
ATOM     20  F   UNL     1       6.956   4.813  13.411  0.00  0.00    +0.000 F 
ATOM     21  C   UNL     1       7.276   5.768  15.543  0.00  0.00    +0.000 A 
ATOM     22  C   UNL     1       7.022   5.750  16.916  0.00  0.00    +0.000 A 
ATOM     23 CL   UNL     1       7.787   6.967  17.882  0.00  0.00    +0.000 Cl
ENDBRANCH  15  16
ENDBRANCH   3  15
TORSDOF 4
ENDMDL
MODEL 7
REMARK VINA RESULT:      -6.6      4.474      6.430
REMARK  Name = 
REMARK  7 active torsions:
REMARK  status: ('A' for Active; 'I' for Inactive)
REMARK    1  A    between atoms: C_1  and  C_2
REMARK    2  A    between atoms: C_2  and  C_3
REMARK    3  A    between atoms: C_2  and  C_4
REMARK    4  A    between atoms: C_9  and  C_10
REMARK    5  A    between atoms: C_9  and  C_11
REMARK    6  A    between atoms: N_13  and  C_14
REMARK    7  A    between atoms: C_14  and  C_15
REMARK                            x       y       z     vdW  Elec       q    Type
REMARK                         _______ _______ _______ _____ _____    ______ ____
ROOT
ATOM      1  C   UNL     1       1.456   9.473  18.431  0.00  0.00    +0.000 C 
ATOM      2  O   UNL     1       1.904  10.103  17.469  0.00  0.00    +0.000 OA
ATOM      3  N   UNL     1       2.029   8.262  18.789  0.00  0.00    +0.000 N 
ATOM      4  H   UNL     1       1.728   7.780  19.624  0.00  0.00    +0.000 HD
ENDROOT
BRANCH   1  10
ATOM      5  C   UNL     1       1.462  12.151  20.046  0.00  0.00    +0.000 C 
ATOM      6  O   UNL     1       2.099  12.559  21.019  0.00  0.00    +0.000 OA
ATOM      7  N   UNL     1       0.477  11.193  20.174  0.00  0.00    +0.000 N 
ATOM      8  C   UNL     1       0.123  10.547  21.437  0.00  0.00    +0.000 C 
ATOM      9  C   UNL     1       0.155   9.212  20.708  0.00  0.00    +0.000 C 
ATOM     10  C   UNL     1       0.243   9.970  19.357  0.00  0.00    +0.000 C 
ATOM     11  C   UNL     1      -1.121  10.087  18.667  0.00  0.00    +0.000 C 
BRANCH   5  13
ATOM     12  C   UNL     1       0.344  13.789  18.568  0.00  0.00    +0.000 C 
ATOM     13  C   UNL     1       1.545  12.847  18.690  0.00  0.00    +0.000 C 
ATOM     14  C   UNL     1       2.843  13.643  18.558  0.00  0.00    +0.000 C 
ENDBRANCH   5  13
ENDBRANCH   1  10
BRANCH   3  15
ATOM     15  C   UNL     1       3.184   7.700  18.116  0.00  0.00    +0.000 C 
BRANCH  15  16
ATOM     16  C   UNL     1       3.055   6.220  17.851  0.00  0.00    +0.000 A 
ATOM     17  C   UNL     1       1.872   5.561  18.243  0.00  0.00    +0.000 A 
ATOM     18  C   UNL     1       1.723   4.184  18.068  0.00  0.00    +0.000 A 
ATOM     19  C   UNL     1       2.753   3.452  17.494  0.00  0.00    +0.000 A 
ATOM     20  F   UNL     1       2.610   2.130  17.326  0.00  0.00    +0.000 F 
ATOM     21  C   UNL     1       3.930   4.070  17.095  0.00  0.00    +0.000 A 
ATOM     22  C   UNL     1       4.083   5.446  17.278  0.00  0.00    +0.000 A 
ATOM     23 CL   UNL     1       5.586   6.151  16.785  0.00  0.00    +0.000 Cl
ENDBRANCH  15  16
ENDBRANCH   3  15
TORSDOF 4
ENDMDL
MODEL 8
REMARK VINA RESULT:      -6.6      4.017      6.190
REMARK  Name = 
REMARK  7 active torsions:
REMARK  status: ('A' for Active; 'I' for Inactive)
REMARK    1  A    between atoms: C_1  and  C_2
REMARK    2  A    between atoms: C_2  and  C_3
REMARK    3  A    between atoms: C_2  and  C_4
REMARK    4  A    between atoms: C_9  and  C_10
REMARK    5  A    between atoms: C_9  and  C_11
REMARK    6  A    between atoms: N_13  and  C_14
REMARK    7  A    between atoms: C_14  and  C_15
REMARK                            x       y       z     vdW  Elec       q    Type
REMARK                         _______ _______ _______ _____ _____    ______ ____
ROOT
ATOM      1  C   UNL     1       2.207   5.997  18.725  0.00  0.00    +0.000 C 
ATOM      2  O   UNL     1       1.884   6.221  17.556  0.00  0.00    +0.000 OA
ATOM      3  N   UNL     1       2.255   7.039  19.639  0.00  0.00    +0.000 N 
ATOM      4  H   UNL     1       2.434   6.854  20.616  0.00  0.00    +0.000 HD
ENDROOT
BRANCH   1  10
ATOM      5  C   UNL     1       4.613   4.248  17.757  0.00  0.00    +0.000 C 
ATOM      6  O   UNL     1       4.871   3.661  16.704  0.00  0.00    +0.000 OA
ATOM      7  N   UNL     1       3.645   3.787  18.625  0.00  0.00    +0.000 N 
ATOM      8  C   UNL     1       2.816   2.609  18.376  0.00  0.00    +0.000 C 
ATOM      9  C   UNL     1       1.605   3.431  18.792  0.00  0.00    +0.000 C 
ATOM     10  C   UNL     1       2.557   4.542  19.308  0.00  0.00    +0.000 C 
ATOM     11  C   UNL     1       2.774   4.463  20.824  0.00  0.00    +0.000 C 
BRANCH   5  13
ATOM     12  C   UNL     1       6.943   4.849  18.326  0.00  0.00    +0.000 C 
ATOM     13  C   UNL     1       5.504   5.370  18.284  0.00  0.00    +0.000 C 
ATOM     14  C   UNL     1       5.426   6.604  17.386  0.00  0.00    +0.000 C 
ENDBRANCH   5  13
ENDBRANCH   1  10
BRANCH   3  15
ATOM     15  C   UNL     1       1.891   8.402  19.308  0.00  0.00    +0.000 C 
BRANCH  15  16
ATOM     16  C   UNL     1       1.080   9.078  20.386  0.00  0.00    +0.000 A 
ATOM     17  C   UNL     1       1.278   8.693  21.727  0.00  0.00    +0.000 A 
ATOM     18  C   UNL     1       0.516   9.249  22.757  0.00  0.00    +0.000 A 
ATOM     19  C   UNL     1      -0.448  10.201  22.456  0.00  0.00    +0.000 A 
ATOM     20  F   UNL     1      -1.180  10.735  23.444  0.00  0.00    +0.000 F 
ATOM     21  C   UNL     1      -0.667  10.604  21.146  0.00  0.00    +0.000 A 
ATOM     22  C   UNL     1       0.088  10.041  20.115  0.00  0.00    +0.000 A 
ATOM     23 CL   UNL     1      -0.254  10.566  18.501  0.00  0.00    +0.000 Cl
ENDBRANCH  15  16
ENDBRANCH   3  15
TORSDOF 4
ENDMDL
MODEL 9
REMARK VINA RESULT:      -6.5      2.410      3.271
REMARK  Name = 
REMARK  7 active torsions:
REMARK  status: ('A' for Active; 'I' for Inactive)
REMARK    1  A    between atoms: C_1  and  C_2
REMARK    2  A    between atoms: C_2  and  C_3
REMARK    3  A    between atoms: C_2  and  C_4
REMARK    4  A    between atoms: C_9  and  C_10
REMARK    5  A    between atoms: C_9  and  C_11
REMARK    6  A    between atoms: N_13  and  C_14
REMARK    7  A    between atoms: C_14  and  C_15
REMARK                            x       y       z     vdW  Elec       q    Type
REMARK                         _______ _______ _______ _____ _____    ______ ____
ROOT
ATOM      1  C   UNL     1       3.732   4.347  19.850  0.00  0.00    +0.000 C 
ATOM      2  O   UNL     1       3.042   5.311  19.509  0.00  0.00    +0.000 OA
ATOM      3  N   UNL     1       5.094   4.347  19.588  0.00  0.00    +0.000 N 
ATOM      4  H   UNL     1       5.682   3.604  19.939  0.00  0.00    +0.000 HD
ENDROOT
BRANCH   1  10
ATOM      5  C   UNL     1       1.467   2.482  18.765  0.00  0.00    +0.000 C 
ATOM      6  O   UNL     1       0.259   2.633  18.571  0.00  0.00    +0.000 OA
ATOM      7  N   UNL     1       1.989   2.376  20.038  0.00  0.00    +0.000 N 
ATOM      8  C   UNL     1       1.191   2.470  21.259  0.00  0.00    +0.000 C 
ATOM      9  C   UNL     1       2.240   3.421  21.816  0.00  0.00    +0.000 C 
ATOM     10  C   UNL     1       3.173   3.059  20.630  0.00  0.00    +0.000 C 
ATOM     11  C   UNL     1       4.216   2.003  21.012  0.00  0.00    +0.000 C 
BRANCH   5  13
ATOM     12  C   UNL     1       2.828   3.478  16.956  0.00  0.00    +0.000 C 
ATOM     13  C   UNL     1       2.425   2.159  17.621  0.00  0.00    +0.000 C 
ATOM     14  C   UNL     1       3.671   1.437  18.135  0.00  0.00    +0.000 C 
ENDBRANCH   5  13
ENDBRANCH   1  10
BRANCH   3  15
ATOM     15  C   UNL     1       5.783   5.461  18.967  0.00  0.00    +0.000 C 
BRANCH  15  16
ATOM     16  C   UNL     1       5.945   5.300  17.475  0.00  0.00    +0.000 A 
ATOM     17  C   UNL     1       6.898   4.382  16.990  0.00  0.00    +0.000 A 
ATOM     18  C   UNL     1       7.124   4.233  15.620  0.00  0.00    +0.000 A 
ATOM     19  C   UNL     1       6.393   4.996  14.720  0.00  0.00    +0.000 A 
ATOM     20  F   UNL     1       6.610   4.854  13.405  0.00  0.00    +0.000 F 
ATOM     21  C   UNL     1       5.445   5.907  15.163  0.00  0.00    +0.000 A 
ATOM     22  C   UNL     1       5.226   6.063  16.534  0.00  0.00    +0.000 A 
ATOM     23 CL   UNL     1       4.050   7.236  17.022  0.00  0.00    +0.000 Cl
ENDBRANCH  15  16
ENDBRANCH   3  15
TORSDOF 4
ENDMDL
