MODEL 1
REMARK VINA RESULT:      -8.7      0.000      0.000
REMARK  Name = 
REMARK  7 active torsions:
REMARK  status: ('A' for Active; 'I' for Inactive)
REMARK    1  A    between atoms: C_1  and  O_2
REMARK    2  A    between atoms: O_2  and  C_3
REMARK    3  A    between atoms: C_3  and  C_5
REMARK    4  A    between atoms: C_10  and  C_11
REMARK    5  A    between atoms: C_14  and  N_15
REMARK    6  A    between atoms: C_16  and  O_18
REMARK    7  A    between atoms: O_18  and  C_19
REMARK                            x       y       z     vdW  Elec       q    Type
REMARK                         _______ _______ _______ _____ _____    ______ ____
ROOT
ATOM      1  C   UNL     1       6.707   5.875  16.312  0.00  0.00    +0.000 A 
ATOM      2  N   UNL     1       7.620   5.731  15.289  0.00  0.00    +0.000 N 
ATOM      3  C   UNL     1       7.098   5.008  14.250  0.00  0.00    +0.000 A 
ATOM      4  C   UNL     1       7.673   4.667  13.021  0.00  0.00    +0.000 A 
ATOM      5  C   UNL     1       6.895   3.940  12.115  0.00  0.00    +0.000 A 
ATOM      6  C   UNL     1       5.590   3.566  12.427  0.00  0.00    +0.000 A 
ATOM      7  C   UNL     1       4.736   2.801  11.460  0.00  0.00    +0.000 C 
ATOM      8  C   UNL     1       5.043   3.925  13.670  0.00  0.00    +0.000 A 
ATOM      9  C   UNL     1       5.801   4.649  14.615  0.00  0.00    +0.000 A 
ATOM     10  C   UNL     1       5.551   5.214  15.912  0.00  0.00    +0.000 A 
ATOM     11  H   UNL     1       8.552   6.123  15.310  0.00  0.00    +0.000 HD
ENDROOT
BRANCH  10  12
ATOM     12  N   UNL     1       4.378   5.206  16.654  0.00  0.00    +0.000 N 
ATOM     13  C   UNL     1       3.732   4.112  17.175  0.00  0.00    +0.000 C 
ATOM     14  O   UNL     1       4.149   2.965  17.259  0.00  0.00    +0.000 OA
ATOM     15  H   UNL     1       4.029   6.097  16.980  0.00  0.00    +0.000 HD
BRANCH  13  16
ATOM     16  O   UNL     1       2.522   4.535  17.711  0.00  0.00    +0.000 OA
BRANCH  16  17
ATOM     17  C   UNL     1       2.256   4.024  18.987  0.00  0.00    +0.000 A 
ATOM     18  C   UNL     1       2.795   4.658  20.105  0.00  0.00    +0.000 A 
ATOM     19  C   UNL     1       2.417   4.245  21.379  0.00  0.00    +0.000 A 
ATOM     20  C   UNL     1       1.490   3.215  21.531  0.00  0.00    +0.000 A 
ATOM     21  C   UNL     1       0.949   2.589  20.405  0.00  0.00    +0.000 A 
ATOM     22  C   UNL     1       1.330   2.992  19.122  0.00  0.00    +0.000 A 
ENDBRANCH  16  17
ENDBRANCH  13  16
ENDBRANCH  10  12
BRANCH   1  23
ATOM     23  C   UNL     1       7.105   6.589  17.502  0.00  0.00    +0.000 C 
ATOM     24  O   UNL     1       7.753   7.630  17.483  0.00  0.00    +0.000 OA
BRANCH  23  26
ATOM     25  C   UNL     1       7.803   5.551  19.469  0.00  0.00    +0.000 C 
ATOM     26  O   UNL     1       6.708   5.944  18.634  0.00  0.00    +0.000 OA
ENDBRANCH  23  26
ENDBRANCH   1  23
TORSDOF 5
ENDMDL
MODEL 2
REMARK VINA RESULT:      -8.5      0.652      1.421
REMARK  Name = 
REMARK  7 active torsions:
REMARK  status: ('A' for Active; 'I' for Inactive)
REMARK    1  A    between atoms: C_1  and  O_2
REMARK    2  A    between atoms: O_2  and  C_3
REMARK    3  A    between atoms: C_3  and  C_5
REMARK    4  A    between atoms: C_10  and  C_11
REMARK    5  A    between atoms: C_14  and  N_15
REMARK    6  A    between atoms: C_16  and  O_18
REMARK    7  A    between atoms: O_18  and  C_19
REMARK                            x       y       z     vdW  Elec       q    Type
REMARK                         _______ _______ _______ _____ _____    ______ ____
ROOT
ATOM      1  C   UNL     1       6.788   5.912  16.171  0.00  0.00    +0.000 A 
ATOM      2  N   UNL     1       7.674   5.634  15.152  0.00  0.00    +0.000 N 
ATOM      3  C   UNL     1       7.074   4.928  14.145  0.00  0.00    +0.000 A 
ATOM      4  C   UNL     1       7.604   4.481  12.929  0.00  0.00    +0.000 A 
ATOM      5  C   UNL     1       6.750   3.803  12.055  0.00  0.00    +0.000 A 
ATOM      6  C   UNL     1       5.414   3.578  12.384  0.00  0.00    +0.000 A 
ATOM      7  C   UNL     1       4.480   2.867  11.450  0.00  0.00    +0.000 C 
ATOM      8  C   UNL     1       4.915   4.041  13.613  0.00  0.00    +0.000 A 
ATOM      9  C   UNL     1       5.750   4.720  14.527  0.00  0.00    +0.000 A 
ATOM     10  C   UNL     1       5.567   5.359  15.801  0.00  0.00    +0.000 A 
ATOM     11  H   UNL     1       8.642   5.928  15.156  0.00  0.00    +0.000 HD
ENDROOT
BRANCH  10  12
ATOM     12  N   UNL     1       4.405   5.501  16.544  0.00  0.00    +0.000 N 
ATOM     13  C   UNL     1       3.911   4.634  17.489  0.00  0.00    +0.000 C 
ATOM     14  O   UNL     1       4.478   3.678  17.997  0.00  0.00    +0.000 OA
ATOM     15  H   UNL     1       3.938   6.397  16.508  0.00  0.00    +0.000 HD
BRANCH  13  16
ATOM     16  O   UNL     1       2.653   5.082  17.875  0.00  0.00    +0.000 OA
BRANCH  16  17
ATOM     17  C   UNL     1       2.125   4.408  18.983  0.00  0.00    +0.000 A 
ATOM     18  C   UNL     1       1.334   3.279  18.783  0.00  0.00    +0.000 A 
ATOM     19  C   UNL     1       0.928   2.521  19.878  0.00  0.00    +0.000 A 
ATOM     20  C   UNL     1       1.329   2.884  21.163  0.00  0.00    +0.000 A 
ATOM     21  C   UNL     1       2.127   4.014  21.353  0.00  0.00    +0.000 A 
ATOM     22  C   UNL     1       2.532   4.785  20.260  0.00  0.00    +0.000 A 
ENDBRANCH  16  17
ENDBRANCH  13  16
ENDBRANCH  10  12
BRANCH   1  23
ATOM     23  C   UNL     1       7.264   6.628  17.330  0.00  0.00    +0.000 C 
ATOM     24  O   UNL     1       7.163   6.206  18.477  0.00  0.00    +0.000 OA
BRANCH  23  26
ATOM     25  C   UNL     1       8.220   8.599  18.130  0.00  0.00    +0.000 C 
ATOM     26  O   UNL     1       7.796   7.837  16.994  0.00  0.00    +0.000 OA
ENDBRANCH  23  26
ENDBRANCH   1  23
TORSDOF 5
ENDMDL
MODEL 3
REMARK VINA RESULT:      -8.5      0.432      1.066
REMARK  Name = 
REMARK  7 active torsions:
REMARK  status: ('A' for Active; 'I' for Inactive)
REMARK    1  A    between atoms: C_1  and  O_2
REMARK    2  A    between atoms: O_2  and  C_3
REMARK    3  A    between atoms: C_3  and  C_5
REMARK    4  A    between atoms: C_10  and  C_11
REMARK    5  A    between atoms: C_14  and  N_15
REMARK    6  A    between atoms: C_16  and  O_18
REMARK    7  A    between atoms: O_18  and  C_19
REMARK                            x       y       z     vdW  Elec       q    Type
REMARK                         _______ _______ _______ _____ _____    ______ ____
ROOT
ATOM      1  C   UNL     1       6.475   5.796  16.282  0.00  0.00    +0.000 A 
ATOM      2  N   UNL     1       7.456   5.692  15.319  0.00  0.00    +0.000 N 
ATOM      3  C   UNL     1       7.031   4.952  14.248  0.00  0.00    +0.000 A 
ATOM      4  C   UNL     1       7.697   4.639  13.058  0.00  0.00    +0.000 A 
ATOM      5  C   UNL     1       7.009   3.885  12.104  0.00  0.00    +0.000 A 
ATOM      6  C   UNL     1       5.702   3.457  12.332  0.00  0.00    +0.000 A 
ATOM      7  C   UNL     1       4.944   2.661  11.312  0.00  0.00    +0.000 C 
ATOM      8  C   UNL     1       5.063   3.789  13.537  0.00  0.00    +0.000 A 
ATOM      9  C   UNL     1       5.730   4.541  14.530  0.00  0.00    +0.000 A 
ATOM     10  C   UNL     1       5.374   5.090  15.809  0.00  0.00    +0.000 A 
ATOM     11  H   UNL     1       8.368   6.122  15.400  0.00  0.00    +0.000 HD
ENDROOT
BRANCH  10  12
ATOM     12  N   UNL     1       4.158   5.032  16.474  0.00  0.00    +0.000 N 
ATOM     13  C   UNL     1       3.620   3.951  17.128  0.00  0.00    +0.000 C 
ATOM     14  O   UNL     1       4.173   2.900  17.421  0.00  0.00    +0.000 OA
ATOM     15  H   UNL     1       3.672   5.905  16.630  0.00  0.00    +0.000 HD
BRANCH  13  16
ATOM     16  O   UNL     1       2.327   4.278  17.519  0.00  0.00    +0.000 OA
BRANCH  16  17
ATOM     17  C   UNL     1       2.062   4.031  18.871  0.00  0.00    +0.000 A 
ATOM     18  C   UNL     1       1.402   2.858  19.236  0.00  0.00    +0.000 A 
ATOM     19  C   UNL     1       1.266   2.537  20.583  0.00  0.00    +0.000 A 
ATOM     20  C   UNL     1       1.803   3.377  21.558  0.00  0.00    +0.000 A 
ATOM     21  C   UNL     1       2.468   4.547  21.183  0.00  0.00    +0.000 A 
ATOM     22  C   UNL     1       2.602   4.881  19.833  0.00  0.00    +0.000 A 
ENDBRANCH  16  17
ENDBRANCH  13  16
ENDBRANCH  10  12
BRANCH   1  23
ATOM     23  C   UNL     1       6.767   6.522  17.495  0.00  0.00    +0.000 C 
ATOM     24  O   UNL     1       7.717   7.287  17.616  0.00  0.00    +0.000 OA
BRANCH  23  26
ATOM     25  C   UNL     1       6.383   5.232  19.399  0.00  0.00    +0.000 C 
ATOM     26  O   UNL     1       5.885   6.219  18.489  0.00  0.00    +0.000 OA
ENDBRANCH  23  26
ENDBRANCH   1  23
TORSDOF 5
ENDMDL
MODEL 4
REMARK VINA RESULT:      -8.4      0.955      1.349
REMARK  Name = 
REMARK  7 active torsions:
REMARK  status: ('A' for Active; 'I' for Inactive)
REMARK    1  A    between atoms: C_1  and  O_2
REMARK    2  A    between atoms: O_2  and  C_3
REMARK    3  A    between atoms: C_3  and  C_5
REMARK    4  A    between atoms: C_10  and  C_11
REMARK    5  A    between atoms: C_14  and  N_15
REMARK    6  A    between atoms: C_16  and  O_18
REMARK    7  A    between atoms: O_18  and  C_19
REMARK                            x       y       z     vdW  Elec       q    Type
REMARK                         _______ _______ _______ _____ _____    ______ ____
ROOT
ATOM      1  C   UNL     1       6.921   6.033  16.207  0.00  0.00    +0.000 A 
ATOM      2  N   UNL     1       7.784   5.705  15.183  0.00  0.00    +0.000 N 
ATOM      3  C   UNL     1       7.149   4.993  14.200  0.00  0.00    +0.000 A 
ATOM      4  C   UNL     1       7.647   4.503  12.988  0.00  0.00    +0.000 A 
ATOM      5  C   UNL     1       6.761   3.830  12.143  0.00  0.00    +0.000 A 
ATOM      6  C   UNL     1       5.425   3.653  12.496  0.00  0.00    +0.000 A 
ATOM      7  C   UNL     1       4.457   2.948  11.592  0.00  0.00    +0.000 C 
ATOM      8  C   UNL     1       4.957   4.159  13.720  0.00  0.00    +0.000 A 
ATOM      9  C   UNL     1       5.825   4.834  14.606  0.00  0.00    +0.000 A 
ATOM     10  C   UNL     1       5.679   5.507  15.867  0.00  0.00    +0.000 A 
ATOM     11  H   UNL     1       8.760   5.970  15.166  0.00  0.00    +0.000 HD
ENDROOT
BRANCH  10  12
ATOM     12  N   UNL     1       4.533   5.701  16.623  0.00  0.00    +0.000 N 
ATOM     13  C   UNL     1       4.252   5.169  17.858  0.00  0.00    +0.000 C 
ATOM     14  O   UNL     1       5.015   4.586  18.614  0.00  0.00    +0.000 OA
ATOM     15  H   UNL     1       3.891   6.420  16.318  0.00  0.00    +0.000 HD
BRANCH  13  16
ATOM     16  O   UNL     1       2.940   5.493  18.183  0.00  0.00    +0.000 OA
BRANCH  16  17
ATOM     17  C   UNL     1       2.244   4.465  18.829  0.00  0.00    +0.000 A 
ATOM     18  C   UNL     1       1.965   4.578  20.190  0.00  0.00    +0.000 A 
ATOM     19  C   UNL     1       1.149   3.632  20.806  0.00  0.00    +0.000 A 
ATOM     20  C   UNL     1       0.603   2.590  20.057  0.00  0.00    +0.000 A 
ATOM     21  C   UNL     1       0.883   2.488  18.693  0.00  0.00    +0.000 A 
ATOM     22  C   UNL     1       1.707   3.429  18.069  0.00  0.00    +0.000 A 
ENDBRANCH  16  17
ENDBRANCH  13  16
ENDBRANCH  10  12
BRANCH   1  23
ATOM     23  C   UNL     1       7.435   6.761  17.342  0.00  0.00    +0.000 C 
ATOM     24  O   UNL     1       7.884   6.221  18.347  0.00  0.00    +0.000 OA
BRANCH  23  26
ATOM     25  C   UNL     1       8.254   8.855  17.960  0.00  0.00    +0.000 C 
ATOM     26  O   UNL     1       7.320   8.108  17.172  0.00  0.00    +0.000 OA
ENDBRANCH  23  26
ENDBRANCH   1  23
TORSDOF 5
ENDMDL
MODEL 5
REMARK VINA RESULT:      -8.3      0.987      1.101
REMARK  Name = 
REMARK  7 active torsions:
REMARK  status: ('A' for Active; 'I' for Inactive)
REMARK    1  A    between atoms: C_1  and  O_2
REMARK    2  A    between atoms: O_2  and  C_3
REMARK    3  A    between atoms: C_3  and  C_5
REMARK    4  A    between atoms: C_10  and  C_11
REMARK    5  A    between atoms: C_14  and  N_15
REMARK    6  A    between atoms: C_16  and  O_18
REMARK    7  A    between atoms: O_18  and  C_19
REMARK                            x       y       z     vdW  Elec       q    Type
REMARK                         _______ _______ _______ _____ _____    ______ ____
ROOT
ATOM      1  C   UNL     1       7.081   5.226  16.332  0.00  0.00    +0.000 A 
ATOM      2  N   UNL     1       7.633   5.727  15.173  0.00  0.00    +0.000 N 
ATOM      3  C   UNL     1       7.254   4.995  14.080  0.00  0.00    +0.000 A 
ATOM      4  C   UNL     1       7.561   5.184  12.727  0.00  0.00    +0.000 A 
ATOM      5  C   UNL     1       7.006   4.296  11.802  0.00  0.00    +0.000 A 
ATOM      6  C   UNL     1       6.175   3.256  12.212  0.00  0.00    +0.000 A 
ATOM      7  C   UNL     1       5.558   2.304  11.230  0.00  0.00    +0.000 C 
ATOM      8  C   UNL     1       5.887   3.094  13.577  0.00  0.00    +0.000 A 
ATOM      9  C   UNL     1       6.438   3.964  14.544  0.00  0.00    +0.000 A 
ATOM     10  C   UNL     1       6.316   4.123  15.967  0.00  0.00    +0.000 A 
ATOM     11  H   UNL     1       8.234   6.540  15.145  0.00  0.00    +0.000 HD
ENDROOT
BRANCH  10  12
ATOM     12  N   UNL     1       5.541   3.398  16.860  0.00  0.00    +0.000 N 
ATOM     13  C   UNL     1       4.299   3.731  17.343  0.00  0.00    +0.000 C 
ATOM     14  O   UNL     1       3.553   4.615  16.947  0.00  0.00    +0.000 OA
ATOM     15  H   UNL     1       5.839   2.456  17.074  0.00  0.00    +0.000 HD
BRANCH  13  16
ATOM     16  O   UNL     1       3.953   2.810  18.325  0.00  0.00    +0.000 OA
BRANCH  16  17
ATOM     17  C   UNL     1       2.956   3.259  19.199  0.00  0.00    +0.000 A 
ATOM     18  C   UNL     1       3.170   4.418  19.943  0.00  0.00    +0.000 A 
ATOM     19  C   UNL     1       2.130   4.949  20.702  0.00  0.00    +0.000 A 
ATOM     20  C   UNL     1       0.880   4.332  20.700  0.00  0.00    +0.000 A 
ATOM     21  C   UNL     1       0.673   3.174  19.946  0.00  0.00    +0.000 A 
ATOM     22  C   UNL     1       1.713   2.630  19.188  0.00  0.00    +0.000 A 
ENDBRANCH  16  17
ENDBRANCH  13  16
ENDBRANCH  10  12
BRANCH   1  23
ATOM     23  C   UNL     1       7.401   5.864  17.587  0.00  0.00    +0.000 C 
ATOM     24  O   UNL     1       7.508   7.077  17.722  0.00  0.00    +0.000 OA
BRANCH  23  26
ATOM     25  C   UNL     1       7.844   5.556  19.855  0.00  0.00    +0.000 C 
ATOM     26  O   UNL     1       7.609   4.952  18.578  0.00  0.00    +0.000 OA
ENDBRANCH  23  26
ENDBRANCH   1  23
TORSDOF 5
ENDMDL
MODEL 6
REMARK VINA RESULT:      -8.2      1.026      1.531
REMARK  Name = 
REMARK  7 active torsions:
REMARK  status: ('A' for Active; 'I' for Inactive)
REMARK    1  A    between atoms: C_1  and  O_2
REMARK    2  A    between atoms: O_2  and  C_3
REMARK    3  A    between atoms: C_3  and  C_5
REMARK    4  A    between atoms: C_10  and  C_11
REMARK    5  A    between atoms: C_14  and  N_15
REMARK    6  A    between atoms: C_16  and  O_18
REMARK    7  A    between atoms: O_18  and  C_19
REMARK                            x       y       z     vdW  Elec       q    Type
REMARK                         _______ _______ _______ _____ _____    ______ ____
ROOT
ATOM      1  C   UNL     1       7.169   5.371  16.206  0.00  0.00    +0.000 A 
ATOM      2  N   UNL     1       7.683   5.813  15.005  0.00  0.00    +0.000 N 
ATOM      3  C   UNL     1       7.283   5.020  13.965  0.00  0.00    +0.000 A 
ATOM      4  C   UNL     1       7.549   5.138  12.596  0.00  0.00    +0.000 A 
ATOM      5  C   UNL     1       6.978   4.196  11.736  0.00  0.00    +0.000 A 
ATOM      6  C   UNL     1       6.171   3.172  12.225  0.00  0.00    +0.000 A 
ATOM      7  C   UNL     1       5.537   2.163  11.314  0.00  0.00    +0.000 C 
ATOM      8  C   UNL     1       5.923   3.082  13.605  0.00  0.00    +0.000 A 
ATOM      9  C   UNL     1       6.491   4.008  14.507  0.00  0.00    +0.000 A 
ATOM     10  C   UNL     1       6.406   4.243  15.922  0.00  0.00    +0.000 A 
ATOM     11  H   UNL     1       8.274   6.629  14.917  0.00  0.00    +0.000 HD
ENDROOT
BRANCH  10  12
ATOM     12  N   UNL     1       5.665   3.560  16.874  0.00  0.00    +0.000 N 
ATOM     13  C   UNL     1       4.642   4.058  17.645  0.00  0.00    +0.000 C 
ATOM     14  O   UNL     1       4.057   5.124  17.516  0.00  0.00    +0.000 OA
ATOM     15  H   UNL     1       5.774   2.556  16.916  0.00  0.00    +0.000 HD
BRANCH  13  16
ATOM     16  O   UNL     1       4.282   3.085  18.570  0.00  0.00    +0.000 OA
BRANCH  16  17
ATOM     17  C   UNL     1       2.971   3.211  19.046  0.00  0.00    +0.000 A 
ATOM     18  C   UNL     1       1.936   2.555  18.381  0.00  0.00    +0.000 A 
ATOM     19  C   UNL     1       0.657   2.556  18.931  0.00  0.00    +0.000 A 
ATOM     20  C   UNL     1       0.422   3.195  20.148  0.00  0.00    +0.000 A 
ATOM     21  C   UNL     1       1.467   3.844  20.810  0.00  0.00    +0.000 A 
ATOM     22  C   UNL     1       2.752   3.855  20.261  0.00  0.00    +0.000 A 
ENDBRANCH  16  17
ENDBRANCH  13  16
ENDBRANCH  10  12
BRANCH   1  23
ATOM     23  C   UNL     1       7.517   6.079  17.414  0.00  0.00    +0.000 C 
ATOM     24  O   UNL     1       7.503   7.301  17.511  0.00  0.00    +0.000 OA
BRANCH  23  26
ATOM     25  C   UNL     1       7.449   5.637  19.702  0.00  0.00    +0.000 C 
ATOM     26  O   UNL     1       7.899   5.227  18.407  0.00  0.00    +0.000 OA
ENDBRANCH  23  26
ENDBRANCH   1  23
TORSDOF 5
ENDMDL
MODEL 7
REMARK VINA RESULT:      -8.1      1.140      1.538
REMARK  Name = 
REMARK  7 active torsions:
REMARK  status: ('A' for Active; 'I' for Inactive)
REMARK    1  A    between atoms: C_1  and  O_2
REMARK    2  A    between atoms: O_2  and  C_3
REMARK    3  A    between atoms: C_3  and  C_5
REMARK    4  A    between atoms: C_10  and  C_11
REMARK    5  A    between atoms: C_14  and  N_15
REMARK    6  A    between atoms: C_16  and  O_18
REMARK    7  A    between atoms: O_18  and  C_19
REMARK                            x       y       z     vdW  Elec       q    Type
REMARK                         _______ _______ _______ _____ _____    ______ ____
ROOT
ATOM      1  C   UNL     1       7.108   5.513  16.282  0.00  0.00    +0.000 A 
ATOM      2  N   UNL     1       7.571   5.967  15.066  0.00  0.00    +0.000 N 
ATOM      3  C   UNL     1       7.224   5.120  14.048  0.00  0.00    +0.000 A 
ATOM      4  C   UNL     1       7.465   5.228  12.674  0.00  0.00    +0.000 A 
ATOM      5  C   UNL     1       6.962   4.223  11.843  0.00  0.00    +0.000 A 
ATOM      6  C   UNL     1       6.245   3.149  12.365  0.00  0.00    +0.000 A 
ATOM      7  C   UNL     1       5.684   2.072  11.485  0.00  0.00    +0.000 C 
ATOM      8  C   UNL     1       6.020   3.072  13.749  0.00  0.00    +0.000 A 
ATOM      9  C   UNL     1       6.522   4.062  14.623  0.00  0.00    +0.000 A 
ATOM     10  C   UNL     1       6.434   4.322  16.033  0.00  0.00    +0.000 A 
ATOM     11  H   UNL     1       8.094   6.826  14.951  0.00  0.00    +0.000 HD
ENDROOT
BRANCH  10  12
ATOM     12  N   UNL     1       5.761   3.604  17.011  0.00  0.00    +0.000 N 
ATOM     13  C   UNL     1       4.688   4.025  17.759  0.00  0.00    +0.000 C 
ATOM     14  O   UNL     1       3.999   5.020  17.588  0.00  0.00    +0.000 OA
ATOM     15  H   UNL     1       5.971   2.619  17.091  0.00  0.00    +0.000 HD
BRANCH  13  16
ATOM     16  O   UNL     1       4.423   3.057  18.721  0.00  0.00    +0.000 OA
BRANCH  16  17
ATOM     17  C   UNL     1       3.098   3.051  19.172  0.00  0.00    +0.000 A 
ATOM     18  C   UNL     1       2.749   3.817  20.283  0.00  0.00    +0.000 A 
ATOM     19  C   UNL     1       1.411   3.931  20.647  0.00  0.00    +0.000 A 
ATOM     20  C   UNL     1       0.426   3.296  19.890  0.00  0.00    +0.000 A 
ATOM     21  C   UNL     1       0.784   2.536  18.774  0.00  0.00    +0.000 A 
ATOM     22  C   UNL     1       2.127   2.410  18.407  0.00  0.00    +0.000 A 
ENDBRANCH  16  17
ENDBRANCH  13  16
ENDBRANCH  10  12
BRANCH   1  23
ATOM     23  C   UNL     1       7.411   6.275  17.470  0.00  0.00    +0.000 C 
ATOM     24  O   UNL     1       7.792   5.770  18.520  0.00  0.00    +0.000 OA
BRANCH  23  26
ATOM     25  C   UNL     1       8.157   8.435  17.932  0.00  0.00    +0.000 C 
ATOM     26  O   UNL     1       7.183   7.606  17.288  0.00  0.00    +0.000 OA
ENDBRANCH  23  26
ENDBRANCH   1  23
TORSDOF 5
ENDMDL
MODEL 8
REMARK VINA RESULT:      -7.9      1.326      1.921
REMARK  Name = 
REMARK  7 active torsions:
REMARK  status: ('A' for Active; 'I' for Inactive)
REMARK    1  A    between atoms: C_1  and  O_2
REMARK    2  A    between atoms: O_2  and  C_3
REMARK    3  A    between atoms: C_3  and  C_5
REMARK    4  A    between atoms: C_10  and  C_11
REMARK    5  A    between atoms: C_14  and  N_15
REMARK    6  A    between atoms: C_16  and  O_18
REMARK    7  A    between atoms: O_18  and  C_19
REMARK                            x       y       z     vdW  Elec       q    Type
REMARK                         _______ _______ _______ _____ _____    ______ ____
ROOT
ATOM      1  C   UNL     1       6.636   5.775  16.031  0.00  0.00    +0.000 A 
ATOM      2  N   UNL     1       7.570   5.642  15.026  0.00  0.00    +0.000 N 
ATOM      3  C   UNL     1       7.093   4.879  13.995  0.00  0.00    +0.000 A 
ATOM      4  C   UNL     1       7.701   4.533  12.783  0.00  0.00    +0.000 A 
ATOM      5  C   UNL     1       6.965   3.759  11.882  0.00  0.00    +0.000 A 
ATOM      6  C   UNL     1       5.669   3.344  12.180  0.00  0.00    +0.000 A 
ATOM      7  C   UNL     1       4.860   2.527  11.217  0.00  0.00    +0.000 C 
ATOM      8  C   UNL     1       5.088   3.709  13.406  0.00  0.00    +0.000 A 
ATOM      9  C   UNL     1       5.804   4.481  14.347  0.00  0.00    +0.000 A 
ATOM     10  C   UNL     1       5.511   5.064  15.628  0.00  0.00    +0.000 A 
ATOM     11  H   UNL     1       8.487   6.069  15.054  0.00  0.00    +0.000 HD
ENDROOT
BRANCH  10  12
ATOM     12  N   UNL     1       4.327   5.028  16.350  0.00  0.00    +0.000 N 
ATOM     13  C   UNL     1       4.017   4.194  17.396  0.00  0.00    +0.000 C 
ATOM     14  O   UNL     1       4.771   3.461  18.019  0.00  0.00    +0.000 OA
ATOM     15  H   UNL     1       3.671   5.784  16.204  0.00  0.00    +0.000 HD
BRANCH  13  16
ATOM     16  O   UNL     1       2.681   4.389  17.726  0.00  0.00    +0.000 OA
BRANCH  16  17
ATOM     17  C   UNL     1       2.469   5.411  18.659  0.00  0.00    +0.000 A 
ATOM     18  C   UNL     1       2.575   6.740  18.253  0.00  0.00    +0.000 A 
ATOM     19  C   UNL     1       2.223   7.758  19.135  0.00  0.00    +0.000 A 
ATOM     20  C   UNL     1       1.752   7.444  20.410  0.00  0.00    +0.000 A 
ATOM     21  C   UNL     1       1.643   6.109  20.806  0.00  0.00    +0.000 A 
ATOM     22  C   UNL     1       2.002   5.081  19.929  0.00  0.00    +0.000 A 
ENDBRANCH  16  17
ENDBRANCH  13  16
ENDBRANCH  10  12
BRANCH   1  23
ATOM     23  C   UNL     1       6.987   6.528  17.211  0.00  0.00    +0.000 C 
ATOM     24  O   UNL     1       6.585   6.253  18.336  0.00  0.00    +0.000 OA
BRANCH  23  26
ATOM     25  C   UNL     1       8.127   8.376  18.061  0.00  0.00    +0.000 C 
ATOM     26  O   UNL     1       7.779   7.596  16.912  0.00  0.00    +0.000 OA
ENDBRANCH  23  26
ENDBRANCH   1  23
TORSDOF 5
ENDMDL
MODEL 9
REMARK VINA RESULT:      -7.9      1.543      1.996
REMARK  Name = 
REMARK  7 active torsions:
REMARK  status: ('A' for Active; 'I' for Inactive)
REMARK    1  A    between atoms: C_1  and  O_2
REMARK    2  A    between atoms: O_2  and  C_3
REMARK    3  A    between atoms: C_3  and  C_5
REMARK    4  A    between atoms: C_10  and  C_11
REMARK    5  A    between atoms: C_14  and  N_15
REMARK    6  A    between atoms: C_16  and  O_18
REMARK    7  A    between atoms: O_18  and  C_19
REMARK                            x       y       z     vdW  Elec       q    Type
REMARK                         _______ _______ _______ _____ _____    ______ ____
ROOT
ATOM      1  C   UNL     1       5.998   4.757  17.737  0.00  0.00    +0.000 A 
ATOM      2  N   UNL     1       6.835   5.485  16.918  0.00  0.00    +0.000 N 
ATOM      3  C   UNL     1       6.790   5.035  15.626  0.00  0.00    +0.000 A 
ATOM      4  C   UNL     1       7.452   5.513  14.490  0.00  0.00    +0.000 A 
ATOM      5  C   UNL     1       7.195   4.880  13.270  0.00  0.00    +0.000 A 
ATOM      6  C   UNL     1       6.309   3.807  13.189  0.00  0.00    +0.000 A 
ATOM      7  C   UNL     1       6.009   3.128  11.886  0.00  0.00    +0.000 C 
ATOM      8  C   UNL     1       5.661   3.353  14.350  0.00  0.00    +0.000 A 
ATOM      9  C   UNL     1       5.903   3.960  15.602  0.00  0.00    +0.000 A 
ATOM     10  C   UNL     1       5.390   3.798  16.934  0.00  0.00    +0.000 A 
ATOM     11  H   UNL     1       7.401   6.259  17.242  0.00  0.00    +0.000 HD
ENDROOT
BRANCH  10  12
ATOM     12  N   UNL     1       4.418   2.921  17.392  0.00  0.00    +0.000 N 
ATOM     13  C   UNL     1       3.068   2.972  17.142  0.00  0.00    +0.000 C 
ATOM     14  O   UNL     1       2.484   3.670  16.326  0.00  0.00    +0.000 OA
ATOM     15  H   UNL     1       4.733   2.068  17.834  0.00  0.00    +0.000 HD
BRANCH  13  16
ATOM     16  O   UNL     1       2.445   1.999  17.914  0.00  0.00    +0.000 OA
BRANCH  16  17
ATOM     17  C   UNL     1       2.129   2.418  19.211  0.00  0.00    +0.000 A 
ATOM     18  C   UNL     1       2.935   2.017  20.275  0.00  0.00    +0.000 A 
ATOM     19  C   UNL     1       2.714   2.547  21.543  0.00  0.00    +0.000 A 
ATOM     20  C   UNL     1       1.703   3.487  21.739  0.00  0.00    +0.000 A 
ATOM     21  C   UNL     1       0.904   3.888  20.666  0.00  0.00    +0.000 A 
ATOM     22  C   UNL     1       1.115   3.355  19.391  0.00  0.00    +0.000 A 
ENDBRANCH  16  17
ENDBRANCH  13  16
ENDBRANCH  10  12
BRANCH   1  23
ATOM     23  C   UNL     1       5.946   5.082  19.142  0.00  0.00    +0.000 C 
ATOM     24  O   UNL     1       6.919   5.453  19.789  0.00  0.00    +0.000 OA
BRANCH  23  26
ATOM     25  C   UNL     1       3.785   5.936  19.333  0.00  0.00    +0.000 C 
ATOM     26  O   UNL     1       4.700   4.886  19.660  0.00  0.00    +0.000 OA
ENDBRANCH  23  26
ENDBRANCH   1  23
TORSDOF 5
ENDMDL
