MODEL 1
REMARK VINA RESULT:      -6.9      0.000      0.000
REMARK  Name = 
REMARK  8 active torsions:
REMARK  status: ('A' for Active; 'I' for Inactive)
REMARK    1  A    between atoms: C_1  and  O_2
REMARK    2  A    between atoms: O_2  and  C_3
REMARK    3  A    between atoms: C_5  and  C_6
REMARK    4  A    between atoms: C_6  and  N_8
REMARK    5  A    between atoms: N_13  and  C_14
REMARK    6  A    between atoms: C_15  and  N_16
REMARK    7  A    between atoms: C_20  and  O_21
REMARK    8  A    between atoms: O_21  and  C_22
REMARK                            x       y       z     vdW  Elec       q    Type
REMARK                         _______ _______ _______ _____ _____    ______ ____
ROOT
ATOM      1  C   UNL     1       5.731   5.848  16.781  0.00  0.00    +0.000 A 
ATOM      2  C   UNL     1       4.770   6.473  17.598  0.00  0.00    +0.000 A 
ATOM      3  C   UNL     1       3.629   5.791  18.037  0.00  0.00    +0.000 A 
ATOM      4  C   UNL     1       3.399   4.513  17.540  0.00  0.00    +0.000 A 
ATOM      5  C   UNL     1       4.302   3.903  16.661  0.00  0.00    +0.000 A 
ATOM      6  C   UNL     1       5.483   4.558  16.286  0.00  0.00    +0.000 A 
ENDROOT
BRANCH   4   7
ATOM      7  N   UNL     1       2.262   3.726  17.961  0.00  0.00    +0.000 N 
ATOM      8  O   UNL     1       2.471   2.850  18.809  0.00  0.00    +0.000 OA
ATOM      9  O   UNL     1       1.199   3.915  17.353  0.00  0.00    +0.000 OA
ENDBRANCH   4   7
BRANCH   1  11
ATOM     10  C   UNL     1       7.488   7.256  17.516  0.00  0.00    +0.000 C 
ATOM     11  O   UNL     1       6.898   6.491  16.464  0.00  0.00    +0.000 OA
ENDBRANCH   1  11
BRANCH   3  12
ATOM     12  C   UNL     1       2.748   6.456  19.035  0.00  0.00    +0.000 C 
ATOM     13  O   UNL     1       2.526   5.883  20.091  0.00  0.00    +0.000 OA
BRANCH  12  14
ATOM     14  N   UNL     1       2.335   7.714  18.667  0.00  0.00    +0.000 NA
ATOM     15  C   UNL     1       1.721   8.501  19.490  0.00  0.00    +0.000 A 
ATOM     16  S   UNL     1       1.215   8.126  21.167  0.00  0.00    +0.000 S 
ATOM     17  C   UNL     1       0.555   9.722  21.382  0.00  0.00    +0.000 A 
ATOM     18  C   UNL     1       0.684  10.447  20.264  0.00  0.00    +0.000 A 
ATOM     19  N   UNL     1       1.301   9.801  19.209  0.00  0.00    +0.000 N 
ATOM     20  C   UNL     1       1.575  10.443  17.934  0.00  0.00    +0.000 C 
ENDBRANCH  12  14
ENDBRANCH   3  12
BRANCH   6  21
ATOM     21  O   UNL     1       6.262   3.778  15.478  0.00  0.00    +0.000 OA
ATOM     22  C   UNL     1       6.263   4.003  14.078  0.00  0.00    +0.000 C 
ENDBRANCH   6  21
TORSDOF 5
ENDMDL
MODEL 2
REMARK VINA RESULT:      -6.8      2.971      5.994
REMARK  Name = 
REMARK  8 active torsions:
REMARK  status: ('A' for Active; 'I' for Inactive)
REMARK    1  A    between atoms: C_1  and  O_2
REMARK    2  A    between atoms: O_2  and  C_3
REMARK    3  A    between atoms: C_5  and  C_6
REMARK    4  A    between atoms: C_6  and  N_8
REMARK    5  A    between atoms: N_13  and  C_14
REMARK    6  A    between atoms: C_15  and  N_16
REMARK    7  A    between atoms: C_20  and  O_21
REMARK    8  A    between atoms: O_21  and  C_22
REMARK                            x       y       z     vdW  Elec       q    Type
REMARK                         _______ _______ _______ _____ _____    ______ ____
ROOT
ATOM      1  C   UNL     1       2.271   7.653  18.854  0.00  0.00    +0.000 A 
ATOM      2  C   UNL     1       2.621   6.554  18.049  0.00  0.00    +0.000 A 
ATOM      3  C   UNL     1       2.498   5.239  18.512  0.00  0.00    +0.000 A 
ATOM      4  C   UNL     1       2.141   5.045  19.842  0.00  0.00    +0.000 A 
ATOM      5  C   UNL     1       1.865   6.129  20.685  0.00  0.00    +0.000 A 
ATOM      6  C   UNL     1       1.914   7.441  20.195  0.00  0.00    +0.000 A 
ENDROOT
BRANCH   4   7
ATOM      7  N   UNL     1       1.962   3.722  20.396  0.00  0.00    +0.000 N 
ATOM      8  O   UNL     1       0.798   3.323  20.527  0.00  0.00    +0.000 OA
ATOM      9  O   UNL     1       2.982   3.147  20.803  0.00  0.00    +0.000 OA
ENDBRANCH   4   7
BRANCH   1  11
ATOM     10  C   UNL     1       1.028   9.404  17.854  0.00  0.00    +0.000 C 
ATOM     11  O   UNL     1       2.283   8.923  18.342  0.00  0.00    +0.000 OA
ENDBRANCH   1  11
BRANCH   3  12
ATOM     12  C   UNL     1       2.721   4.126  17.550  0.00  0.00    +0.000 C 
ATOM     13  O   UNL     1       1.983   3.154  17.600  0.00  0.00    +0.000 OA
BRANCH  12  14
ATOM     14  N   UNL     1       3.721   4.367  16.637  0.00  0.00    +0.000 NA
ATOM     15  C   UNL     1       4.961   4.464  16.991  0.00  0.00    +0.000 A 
ATOM     16  S   UNL     1       5.617   4.402  18.657  0.00  0.00    +0.000 S 
ATOM     17  C   UNL     1       7.249   4.586  18.080  0.00  0.00    +0.000 A 
ATOM     18  C   UNL     1       7.272   4.716  16.747  0.00  0.00    +0.000 A 
ATOM     19  N   UNL     1       6.037   4.671  16.128  0.00  0.00    +0.000 N 
ATOM     20  C   UNL     1       5.868   4.743  14.685  0.00  0.00    +0.000 C 
ENDBRANCH  12  14
ENDBRANCH   3  12
BRANCH   6  21
ATOM     21  O   UNL     1       1.553   8.352  21.149  0.00  0.00    +0.000 OA
ATOM     22  C   UNL     1       0.178   8.608  21.386  0.00  0.00    +0.000 C 
ENDBRANCH   6  21
TORSDOF 5
ENDMDL
MODEL 3
REMARK VINA RESULT:      -6.7      3.184      6.283
REMARK  Name = 
REMARK  8 active torsions:
REMARK  status: ('A' for Active; 'I' for Inactive)
REMARK    1  A    between atoms: C_1  and  O_2
REMARK    2  A    between atoms: O_2  and  C_3
REMARK    3  A    between atoms: C_5  and  C_6
REMARK    4  A    between atoms: C_6  and  N_8
REMARK    5  A    between atoms: N_13  and  C_14
REMARK    6  A    between atoms: C_15  and  N_16
REMARK    7  A    between atoms: C_20  and  O_21
REMARK    8  A    between atoms: O_21  and  C_22
REMARK                            x       y       z     vdW  Elec       q    Type
REMARK                         _______ _______ _______ _____ _____    ______ ____
ROOT
ATOM      1  C   UNL     1       2.414   7.381  19.284  0.00  0.00    +0.000 A 
ATOM      2  C   UNL     1       3.170   6.282  18.839  0.00  0.00    +0.000 A 
ATOM      3  C   UNL     1       3.005   5.008  19.396  0.00  0.00    +0.000 A 
ATOM      4  C   UNL     1       2.162   4.878  20.494  0.00  0.00    +0.000 A 
ATOM      5  C   UNL     1       1.460   5.977  21.003  0.00  0.00    +0.000 A 
ATOM      6  C   UNL     1       1.568   7.235  20.395  0.00  0.00    +0.000 A 
ENDROOT
BRANCH   4   7
ATOM      7  N   UNL     1       1.910   3.595  21.112  0.00  0.00    +0.000 N 
ATOM      8  O   UNL     1       0.916   2.971  20.721  0.00  0.00    +0.000 OA
ATOM      9  O   UNL     1       2.641   3.284  22.063  0.00  0.00    +0.000 OA
ENDBRANCH   4   7
BRANCH   1  11
ATOM     10  C   UNL     1       1.384   8.940  17.827  0.00  0.00    +0.000 C 
ATOM     11  O   UNL     1       2.502   8.590  18.646  0.00  0.00    +0.000 OA
ENDBRANCH   1  11
BRANCH   3  12
ATOM     12  C   UNL     1       3.711   3.862  18.761  0.00  0.00    +0.000 C 
ATOM     13  O   UNL     1       3.053   2.897  18.403  0.00  0.00    +0.000 OA
BRANCH  12  14
ATOM     14  N   UNL     1       5.058   4.065  18.580  0.00  0.00    +0.000 NA
ATOM     15  C   UNL     1       5.562   4.311  17.414  0.00  0.00    +0.000 A 
ATOM     16  S   UNL     1       4.691   4.350  15.849  0.00  0.00    +0.000 S 
ATOM     17  C   UNL     1       6.148   4.758  14.986  0.00  0.00    +0.000 A 
ATOM     18  C   UNL     1       7.194   4.820  15.820  0.00  0.00    +0.000 A 
ATOM     19  N   UNL     1       6.908   4.564  17.148  0.00  0.00    +0.000 N 
ATOM     20  C   UNL     1       7.903   4.636  18.205  0.00  0.00    +0.000 C 
ENDBRANCH  12  14
ENDBRANCH   3  12
BRANCH   6  21
ATOM     21  O   UNL     1       0.761   8.160  20.995  0.00  0.00    +0.000 OA
ATOM     22  C   UNL     1       1.308   9.044  21.960  0.00  0.00    +0.000 C 
ENDBRANCH   6  21
TORSDOF 5
ENDMDL
MODEL 4
REMARK VINA RESULT:      -6.6      2.231      3.987
REMARK  Name = 
REMARK  8 active torsions:
REMARK  status: ('A' for Active; 'I' for Inactive)
REMARK    1  A    between atoms: C_1  and  O_2
REMARK    2  A    between atoms: O_2  and  C_3
REMARK    3  A    between atoms: C_5  and  C_6
REMARK    4  A    between atoms: C_6  and  N_8
REMARK    5  A    between atoms: N_13  and  C_14
REMARK    6  A    between atoms: C_15  and  N_16
REMARK    7  A    between atoms: C_20  and  O_21
REMARK    8  A    between atoms: O_21  and  C_22
REMARK                            x       y       z     vdW  Elec       q    Type
REMARK                         _______ _______ _______ _____ _____    ______ ____
ROOT
ATOM      1  C   UNL     1       2.002   4.086  18.317  0.00  0.00    +0.000 A 
ATOM      2  C   UNL     1       1.910   5.474  18.525  0.00  0.00    +0.000 A 
ATOM      3  C   UNL     1       2.870   6.356  18.014  0.00  0.00    +0.000 A 
ATOM      4  C   UNL     1       3.994   5.814  17.400  0.00  0.00    +0.000 A 
ATOM      5  C   UNL     1       4.144   4.429  17.253  0.00  0.00    +0.000 A 
ATOM      6  C   UNL     1       3.144   3.554  17.696  0.00  0.00    +0.000 A 
ENDROOT
BRANCH   4   7
ATOM      7  N   UNL     1       5.020   6.650  16.818  0.00  0.00    +0.000 N 
ATOM      8  O   UNL     1       5.008   6.775  15.588  0.00  0.00    +0.000 OA
ATOM      9  O   UNL     1       5.894   7.073  17.588  0.00  0.00    +0.000 OA
ENDBRANCH   4   7
BRANCH   1  11
ATOM     10  C   UNL     1       0.897   3.031  20.127  0.00  0.00    +0.000 C 
ATOM     11  O   UNL     1       0.991   3.254  18.719  0.00  0.00    +0.000 OA
ENDBRANCH   1  11
BRANCH   3  12
ATOM     12  C   UNL     1       2.618   7.818  18.124  0.00  0.00    +0.000 C 
ATOM     13  O   UNL     1       2.721   8.506  17.120  0.00  0.00    +0.000 OA
BRANCH  12  14
ATOM     14  N   UNL     1       2.212   8.223  19.374  0.00  0.00    +0.000 NA
ATOM     15  C   UNL     1       1.238   9.058  19.539  0.00  0.00    +0.000 A 
ATOM     16  S   UNL     1       0.310   9.901  18.259  0.00  0.00    +0.000 S 
ATOM     17  C   UNL     1      -0.693  10.700  19.436  0.00  0.00    +0.000 A 
ATOM     18  C   UNL     1      -0.321  10.373  20.680  0.00  0.00    +0.000 A 
ATOM     19  N   UNL     1       0.741   9.493  20.768  0.00  0.00    +0.000 N 
ATOM     20  C   UNL     1       1.252   8.984  22.030  0.00  0.00    +0.000 C 
ENDBRANCH  12  14
ENDBRANCH   3  12
BRANCH   6  21
ATOM     21  O   UNL     1       3.443   2.252  17.407  0.00  0.00    +0.000 OA
ATOM     22  C   UNL     1       3.779   1.362  18.459  0.00  0.00    +0.000 C 
ENDBRANCH   6  21
TORSDOF 5
ENDMDL
MODEL 5
REMARK VINA RESULT:      -6.6      3.072      4.985
REMARK  Name = 
REMARK  8 active torsions:
REMARK  status: ('A' for Active; 'I' for Inactive)
REMARK    1  A    between atoms: C_1  and  O_2
REMARK    2  A    between atoms: O_2  and  C_3
REMARK    3  A    between atoms: C_5  and  C_6
REMARK    4  A    between atoms: C_6  and  N_8
REMARK    5  A    between atoms: N_13  and  C_14
REMARK    6  A    between atoms: C_15  and  N_16
REMARK    7  A    between atoms: C_20  and  O_21
REMARK    8  A    between atoms: O_21  and  C_22
REMARK                            x       y       z     vdW  Elec       q    Type
REMARK                         _______ _______ _______ _____ _____    ______ ____
ROOT
ATOM      1  C   UNL     1       2.860   6.832  18.377  0.00  0.00    +0.000 A 
ATOM      2  C   UNL     1       2.221   8.037  18.033  0.00  0.00    +0.000 A 
ATOM      3  C   UNL     1       1.525   8.793  18.983  0.00  0.00    +0.000 A 
ATOM      4  C   UNL     1       1.369   8.258  20.257  0.00  0.00    +0.000 A 
ATOM      5  C   UNL     1       1.929   7.021  20.599  0.00  0.00    +0.000 A 
ATOM      6  C   UNL     1       2.691   6.304  19.667  0.00  0.00    +0.000 A 
ENDROOT
BRANCH   4   7
ATOM      7  N   UNL     1       0.691   8.983  21.309  0.00  0.00    +0.000 N 
ATOM      8  O   UNL     1       1.375   9.762  21.983  0.00  0.00    +0.000 OA
ATOM      9  O   UNL     1      -0.491   8.675  21.523  0.00  0.00    +0.000 OA
ENDBRANCH   4   7
BRANCH   1  11
ATOM     10  C   UNL     1       4.957   6.687  17.286  0.00  0.00    +0.000 C 
ATOM     11  O   UNL     1       3.636   6.170  17.463  0.00  0.00    +0.000 OA
ENDBRANCH   1  11
BRANCH   3  12
ATOM     12  C   UNL     1       1.025  10.138  18.590  0.00  0.00    +0.000 C 
ATOM     13  O   UNL     1       1.760  11.102  18.740  0.00  0.00    +0.000 OA
BRANCH  12  14
ATOM     14  N   UNL     1      -0.223  10.123  18.013  0.00  0.00    +0.000 NA
ATOM     15  C   UNL     1      -1.206  10.817  18.489  0.00  0.00    +0.000 A 
ATOM     16  S   UNL     1      -1.197  11.824  19.971  0.00  0.00    +0.000 S 
ATOM     17  C   UNL     1      -2.852  12.303  19.721  0.00  0.00    +0.000 A 
ATOM     18  C   UNL     1      -3.359  11.717  18.629  0.00  0.00    +0.000 A 
ATOM     19  N   UNL     1      -2.489  10.887  17.947  0.00  0.00    +0.000 N 
ATOM     20  C   UNL     1      -2.843  10.205  16.712  0.00  0.00    +0.000 C 
ENDBRANCH  12  14
ENDBRANCH   3  12
BRANCH   6  21
ATOM     21  O   UNL     1       3.203   5.157  20.205  0.00  0.00    +0.000 OA
ATOM     22  C   UNL     1       2.358   4.296  20.951  0.00  0.00    +0.000 C 
ENDBRANCH   6  21
TORSDOF 5
ENDMDL
MODEL 6
REMARK VINA RESULT:      -6.4      3.722      5.344
REMARK  Name = 
REMARK  8 active torsions:
REMARK  status: ('A' for Active; 'I' for Inactive)
REMARK    1  A    between atoms: C_1  and  O_2
REMARK    2  A    between atoms: O_2  and  C_3
REMARK    3  A    between atoms: C_5  and  C_6
REMARK    4  A    between atoms: C_6  and  N_8
REMARK    5  A    between atoms: N_13  and  C_14
REMARK    6  A    between atoms: C_15  and  N_16
REMARK    7  A    between atoms: C_20  and  O_21
REMARK    8  A    between atoms: O_21  and  C_22
REMARK                            x       y       z     vdW  Elec       q    Type
REMARK                         _______ _______ _______ _____ _____    ______ ____
ROOT
ATOM      1  C   UNL     1       5.540   4.419  14.125  0.00  0.00    +0.000 A 
ATOM      2  C   UNL     1       4.808   4.562  15.318  0.00  0.00    +0.000 A 
ATOM      3  C   UNL     1       5.373   5.149  16.457  0.00  0.00    +0.000 A 
ATOM      4  C   UNL     1       6.724   5.475  16.422  0.00  0.00    +0.000 A 
ATOM      5  C   UNL     1       7.492   5.267  15.269  0.00  0.00    +0.000 A 
ATOM      6  C   UNL     1       6.904   4.751  14.107  0.00  0.00    +0.000 A 
ENDROOT
BRANCH   4   7
ATOM      7  N   UNL     1       7.382   6.112  17.541  0.00  0.00    +0.000 N 
ATOM      8  O   UNL     1       7.529   7.338  17.479  0.00  0.00    +0.000 OA
ATOM      9  O   UNL     1       7.848   5.362  18.411  0.00  0.00    +0.000 OA
ENDBRANCH   4   7
BRANCH   1  11
ATOM     10  C   UNL     1       5.652   2.950  12.270  0.00  0.00    +0.000 C 
ATOM     11  O   UNL     1       4.933   3.955  12.988  0.00  0.00    +0.000 OA
ENDBRANCH   1  11
BRANCH   3  12
ATOM     12  C   UNL     1       4.491   5.423  17.623  0.00  0.00    +0.000 C 
ATOM     13  O   UNL     1       3.876   6.479  17.655  0.00  0.00    +0.000 OA
BRANCH  12  14
ATOM     14  N   UNL     1       4.413   4.386  18.521  0.00  0.00    +0.000 NA
ATOM     15  C   UNL     1       3.325   3.704  18.687  0.00  0.00    +0.000 A 
ATOM     16  S   UNL     1       1.741   3.993  17.901  0.00  0.00    +0.000 S 
ATOM     17  C   UNL     1       1.028   2.629  18.715  0.00  0.00    +0.000 A 
ATOM     18  C   UNL     1       1.915   2.042  19.530  0.00  0.00    +0.000 A 
ATOM     19  N   UNL     1       3.171   2.618  19.548  0.00  0.00    +0.000 N 
ATOM     20  C   UNL     1       4.277   2.090  20.330  0.00  0.00    +0.000 C 
ENDBRANCH  12  14
ENDBRANCH   3  12
BRANCH   6  21
ATOM     21  O   UNL     1       7.797   4.682  13.074  0.00  0.00    +0.000 OA
ATOM     22  C   UNL     1       8.399   5.871  12.589  0.00  0.00    +0.000 C 
ENDBRANCH   6  21
TORSDOF 5
ENDMDL
MODEL 7
REMARK VINA RESULT:      -6.3      5.302      8.996
REMARK  Name = 
REMARK  8 active torsions:
REMARK  status: ('A' for Active; 'I' for Inactive)
REMARK    1  A    between atoms: C_1  and  O_2
REMARK    2  A    between atoms: O_2  and  C_3
REMARK    3  A    between atoms: C_5  and  C_6
REMARK    4  A    between atoms: C_6  and  N_8
REMARK    5  A    between atoms: N_13  and  C_14
REMARK    6  A    between atoms: C_15  and  N_16
REMARK    7  A    between atoms: C_20  and  O_21
REMARK    8  A    between atoms: O_21  and  C_22
REMARK                            x       y       z     vdW  Elec       q    Type
REMARK                         _______ _______ _______ _____ _____    ______ ____
ROOT
ATOM      1  C   UNL     1      -3.150  10.552  17.083  0.00  0.00    +0.000 A 
ATOM      2  C   UNL     1      -1.819  10.774  17.480  0.00  0.00    +0.000 A 
ATOM      3  C   UNL     1      -1.512  11.503  18.635  0.00  0.00    +0.000 A 
ATOM      4  C   UNL     1      -2.557  12.117  19.317  0.00  0.00    +0.000 A 
ATOM      5  C   UNL     1      -3.884  11.975  18.893  0.00  0.00    +0.000 A 
ATOM      6  C   UNL     1      -4.194  11.180  17.781  0.00  0.00    +0.000 A 
ENDROOT
BRANCH   4   7
ATOM      7  N   UNL     1      -2.336  12.864  20.535  0.00  0.00    +0.000 N 
ATOM      8  O   UNL     1      -2.501  12.258  21.601  0.00  0.00    +0.000 OA
ATOM      9  O   UNL     1      -2.115  14.077  20.411  0.00  0.00    +0.000 OA
ENDBRANCH   4   7
BRANCH   1  11
ATOM     10  C   UNL     1      -3.104  10.261  14.732  0.00  0.00    +0.000 C 
ATOM     11  O   UNL     1      -3.432   9.735  16.020  0.00  0.00    +0.000 OA
ENDBRANCH   1  11
BRANCH   3  12
ATOM     12  C   UNL     1      -0.096  11.551  19.086  0.00  0.00    +0.000 C 
ATOM     13  O   UNL     1       0.601  12.489  18.728  0.00  0.00    +0.000 OA
BRANCH  12  14
ATOM     14  N   UNL     1       0.251  10.536  19.947  0.00  0.00    +0.000 NA
ATOM     15  C   UNL     1       0.981   9.537  19.568  0.00  0.00    +0.000 A 
ATOM     16  S   UNL     1       1.594   9.215  17.915  0.00  0.00    +0.000 S 
ATOM     17  C   UNL     1       2.411   7.770  18.442  0.00  0.00    +0.000 A 
ATOM     18  C   UNL     1       2.198   7.550  19.746  0.00  0.00    +0.000 A 
ATOM     19  N   UNL     1       1.407   8.488  20.382  0.00  0.00    +0.000 N 
ATOM     20  C   UNL     1       1.109   8.445  21.804  0.00  0.00    +0.000 C 
ENDBRANCH  12  14
ENDBRANCH   3  12
BRANCH   6  21
ATOM     21  O   UNL     1      -5.542  11.114  17.564  0.00  0.00    +0.000 OA
ATOM     22  C   UNL     1      -6.395  10.649  18.598  0.00  0.00    +0.000 C 
ENDBRANCH   6  21
TORSDOF 5
ENDMDL
MODEL 8
REMARK VINA RESULT:      -6.2      2.411      3.204
REMARK  Name = 
REMARK  8 active torsions:
REMARK  status: ('A' for Active; 'I' for Inactive)
REMARK    1  A    between atoms: C_1  and  O_2
REMARK    2  A    between atoms: O_2  and  C_3
REMARK    3  A    between atoms: C_5  and  C_6
REMARK    4  A    between atoms: C_6  and  N_8
REMARK    5  A    between atoms: N_13  and  C_14
REMARK    6  A    between atoms: C_15  and  N_16
REMARK    7  A    between atoms: C_20  and  O_21
REMARK    8  A    between atoms: O_21  and  C_22
REMARK                            x       y       z     vdW  Elec       q    Type
REMARK                         _______ _______ _______ _____ _____    ______ ____
ROOT
ATOM      1  C   UNL     1       7.070   4.930  14.838  0.00  0.00    +0.000 A 
ATOM      2  C   UNL     1       6.756   5.375  16.135  0.00  0.00    +0.000 A 
ATOM      3  C   UNL     1       5.719   4.796  16.876  0.00  0.00    +0.000 A 
ATOM      4  C   UNL     1       4.916   3.850  16.248  0.00  0.00    +0.000 A 
ATOM      5  C   UNL     1       5.161   3.450  14.929  0.00  0.00    +0.000 A 
ATOM      6  C   UNL     1       6.248   3.975  14.217  0.00  0.00    +0.000 A 
ENDROOT
BRANCH   4   7
ATOM      7  N   UNL     1       3.842   3.180  16.947  0.00  0.00    +0.000 N 
ATOM      8  O   UNL     1       4.135   2.153  17.569  0.00  0.00    +0.000 OA
ATOM      9  O   UNL     1       2.699   3.625  16.766  0.00  0.00    +0.000 OA
ENDBRANCH   4   7
BRANCH   1  11
ATOM     10  C   UNL     1       7.977   5.692  12.786  0.00  0.00    +0.000 C 
ATOM     11  O   UNL     1       8.164   5.424  14.178  0.00  0.00    +0.000 OA
ENDBRANCH   1  11
BRANCH   3  12
ATOM     12  C   UNL     1       5.556   5.198  18.299  0.00  0.00    +0.000 C 
ATOM     13  O   UNL     1       6.396   4.834  19.108  0.00  0.00    +0.000 OA
BRANCH  12  14
ATOM     14  N   UNL     1       4.482   6.024  18.528  0.00  0.00    +0.000 NA
ATOM     15  C   UNL     1       3.541   5.709  19.358  0.00  0.00    +0.000 A 
ATOM     16  S   UNL     1       3.379   4.178  20.275  0.00  0.00    +0.000 S 
ATOM     17  C   UNL     1       1.918   4.731  21.045  0.00  0.00    +0.000 A 
ATOM     18  C   UNL     1       1.581   5.950  20.608  0.00  0.00    +0.000 A 
ATOM     19  N   UNL     1       2.438   6.502  19.674  0.00  0.00    +0.000 N 
ATOM     20  C   UNL     1       2.264   7.836  19.124  0.00  0.00    +0.000 C 
ENDBRANCH  12  14
ENDBRANCH   3  12
BRANCH   6  21
ATOM     21  O   UNL     1       6.359   3.416  12.974  0.00  0.00    +0.000 OA
ATOM     22  C   UNL     1       5.210   3.316  12.148  0.00  0.00    +0.000 C 
ENDBRANCH   6  21
TORSDOF 5
ENDMDL
MODEL 9
REMARK VINA RESULT:      -6.1      2.687      4.338
REMARK  Name = 
REMARK  8 active torsions:
REMARK  status: ('A' for Active; 'I' for Inactive)
REMARK    1  A    between atoms: C_1  and  O_2
REMARK    2  A    between atoms: O_2  and  C_3
REMARK    3  A    between atoms: C_5  and  C_6
REMARK    4  A    between atoms: C_6  and  N_8
REMARK    5  A    between atoms: N_13  and  C_14
REMARK    6  A    between atoms: C_15  and  N_16
REMARK    7  A    between atoms: C_20  and  O_21
REMARK    8  A    between atoms: O_21  and  C_22
REMARK                            x       y       z     vdW  Elec       q    Type
REMARK                         _______ _______ _______ _____ _____    ______ ____
ROOT
ATOM      1  C   UNL     1       6.253   4.056  14.001  0.00  0.00    +0.000 A 
ATOM      2  C   UNL     1       5.283   3.625  14.923  0.00  0.00    +0.000 A 
ATOM      3  C   UNL     1       5.283   4.074  16.249  0.00  0.00    +0.000 A 
ATOM      4  C   UNL     1       6.348   4.863  16.672  0.00  0.00    +0.000 A 
ATOM      5  C   UNL     1       7.368   5.238  15.789  0.00  0.00    +0.000 A 
ATOM      6  C   UNL     1       7.323   4.850  14.443  0.00  0.00    +0.000 A 
ENDROOT
BRANCH   4   7
ATOM      7  N   UNL     1       6.414   5.395  18.014  0.00  0.00    +0.000 N 
ATOM      8  O   UNL     1       6.235   6.612  18.143  0.00  0.00    +0.000 OA
ATOM      9  O   UNL     1       6.762   4.609  18.907  0.00  0.00    +0.000 OA
ENDBRANCH   4   7
BRANCH   1  11
ATOM     10  C   UNL     1       4.847   3.423  12.203  0.00  0.00    +0.000 C 
ATOM     11  O   UNL     1       6.164   3.702  12.681  0.00  0.00    +0.000 OA
ENDBRANCH   1  11
BRANCH   3  12
ATOM     12  C   UNL     1       4.131   3.715  17.119  0.00  0.00    +0.000 C 
ATOM     13  O   UNL     1       3.901   2.532  17.325  0.00  0.00    +0.000 OA
BRANCH  12  14
ATOM     14  N   UNL     1       3.484   4.797  17.667  0.00  0.00    +0.000 NA
ATOM     15  C   UNL     1       2.967   4.757  18.852  0.00  0.00    +0.000 A 
ATOM     16  S   UNL     1       2.896   3.344  19.951  0.00  0.00    +0.000 S 
ATOM     17  C   UNL     1       2.094   4.275  21.184  0.00  0.00    +0.000 A 
ATOM     18  C   UNL     1       1.878   5.530  20.770  0.00  0.00    +0.000 A 
ATOM     19  N   UNL     1       2.328   5.817  19.495  0.00  0.00    +0.000 N 
ATOM     20  C   UNL     1       2.228   7.137  18.894  0.00  0.00    +0.000 C 
ENDBRANCH  12  14
ENDBRANCH   3  12
BRANCH   6  21
ATOM     21  O   UNL     1       8.370   5.366  13.731  0.00  0.00    +0.000 OA
ATOM     22  C   UNL     1       8.148   5.862  12.421  0.00  0.00    +0.000 C 
ENDBRANCH   6  21
TORSDOF 5
ENDMDL
