MODEL 1
REMARK VINA RESULT:      -6.6      0.000      0.000
REMARK  Name = 
REMARK  9 active torsions:
REMARK  status: ('A' for Active; 'I' for Inactive)
REMARK    1  A    between atoms: C_1  and  N_2
REMARK    2  A    between atoms: N_2  and  C_3
REMARK    3  A    between atoms: C_3  and  C_4
REMARK    4  A    between atoms: C_4  and  O_5
REMARK    5  A    between atoms: C_4  and  C_6
REMARK    6  A    between atoms: C_6  and  N_7
REMARK    7  A    between atoms: N_10  and  C_11
REMARK    8  A    between atoms: C_16  and  O_17
REMARK    9  A    between atoms: O_17  and  C_18
REMARK                            x       y       z     vdW  Elec       q    Type
REMARK                         _______ _______ _______ _____ _____    ______ ____
ROOT
ATOM      1  N   UNL     1       2.545   1.835  18.744  0.00  0.00    +0.000 NA
ATOM      2  C   UNL     1       2.605   2.615  17.484  0.00  0.00    +0.000 C 
ATOM      3  C   UNL     1       3.327   3.982  17.550  0.00  0.00    +0.000 C 
ATOM      4  N   UNL     1       4.680   3.779  18.099  0.00  0.00    +0.000 N 
ATOM      5  C   UNL     1       4.627   3.223  19.461  0.00  0.00    +0.000 C 
ATOM      6  C   UNL     1       3.871   1.859  19.419  0.00  0.00    +0.000 C 
ENDROOT
BRANCH   4   7
ATOM      7  C   UNL     1       5.680   4.716  17.812  0.00  0.00    +0.000 A 
ATOM      8  C   UNL     1       6.443   5.290  18.851  0.00  0.00    +0.000 A 
ATOM      9  C   UNL     1       7.394   6.293  18.624  0.00  0.00    +0.000 A 
ATOM     10  C   UNL     1       7.620   6.753  17.336  0.00  0.00    +0.000 A 
ATOM     11  C   UNL     1       6.917   6.184  16.282  0.00  0.00    +0.000 A 
ATOM     12  C   UNL     1       5.957   5.179  16.503  0.00  0.00    +0.000 A 
BRANCH  12  13
ATOM     13  O   UNL     1       5.407   4.734  15.327  0.00  0.00    +0.000 OA
ATOM     14  C   UNL     1       6.291   4.155  14.379  0.00  0.00    +0.000 C 
ENDBRANCH  12  13
ENDBRANCH   4   7
BRANCH   1  15
ATOM     15  C   UNL     1       1.472   2.238  19.654  0.00  0.00    +0.000 C 
BRANCH  15  16
ATOM     16  C   UNL     1       1.854   3.223  20.793  0.00  0.00    +0.000 C 
BRANCH  16  17
ATOM     17  O   UNL     1       1.443   2.637  22.044  0.00  0.00    +0.000 OA
ATOM     18  H   UNL     1       1.443   3.348  22.709  0.00  0.00    +0.000 HD
ENDBRANCH  16  17
BRANCH  16  19
ATOM     19  C   UNL     1       1.230   4.630  20.662  0.00  0.00    +0.000 C 
BRANCH  19  21
ATOM     20  C   UNL     1       2.386   6.609  19.831  0.00  0.00    +0.000 C 
ATOM     21  N   UNL     1       2.284   5.631  20.898  0.00  0.00    +0.000 NA
ATOM     22  H   UNL     1       2.109   6.087  21.796  0.00  0.00    +0.000 HD
ENDBRANCH  19  21
ENDBRANCH  16  19
ENDBRANCH  15  16
ENDBRANCH   1  15
TORSDOF 7
ENDMDL
MODEL 2
REMARK VINA RESULT:      -6.5      2.121      6.207
REMARK  Name = 
REMARK  9 active torsions:
REMARK  status: ('A' for Active; 'I' for Inactive)
REMARK    1  A    between atoms: C_1  and  N_2
REMARK    2  A    between atoms: N_2  and  C_3
REMARK    3  A    between atoms: C_3  and  C_4
REMARK    4  A    between atoms: C_4  and  O_5
REMARK    5  A    between atoms: C_4  and  C_6
REMARK    6  A    between atoms: C_6  and  N_7
REMARK    7  A    between atoms: N_10  and  C_11
REMARK    8  A    between atoms: C_16  and  O_17
REMARK    9  A    between atoms: O_17  and  C_18
REMARK                            x       y       z     vdW  Elec       q    Type
REMARK                         _______ _______ _______ _____ _____    ______ ____
ROOT
ATOM      1  N   UNL     1       6.693   6.040  17.002  0.00  0.00    +0.000 NA
ATOM      2  C   UNL     1       5.307   6.480  16.711  0.00  0.00    +0.000 C 
ATOM      3  C   UNL     1       4.178   5.477  17.047  0.00  0.00    +0.000 C 
ATOM      4  N   UNL     1       4.307   5.072  18.459  0.00  0.00    +0.000 N 
ATOM      5  C   UNL     1       5.597   4.408  18.709  0.00  0.00    +0.000 C 
ATOM      6  C   UNL     1       6.750   5.393  18.341  0.00  0.00    +0.000 C 
ENDROOT
BRANCH   4   7
ATOM      7  C   UNL     1       3.180   4.590  19.136  0.00  0.00    +0.000 A 
ATOM      8  C   UNL     1       2.497   5.408  20.062  0.00  0.00    +0.000 A 
ATOM      9  C   UNL     1       1.419   4.944  20.827  0.00  0.00    +0.000 A 
ATOM     10  C   UNL     1       0.981   3.636  20.683  0.00  0.00    +0.000 A 
ATOM     11  C   UNL     1       1.602   2.813  19.752  0.00  0.00    +0.000 A 
ATOM     12  C   UNL     1       2.688   3.271  18.984  0.00  0.00    +0.000 A 
BRANCH  12  13
ATOM     13  O   UNL     1       3.130   2.313  18.106  0.00  0.00    +0.000 OA
ATOM     14  C   UNL     1       3.726   1.152  18.664  0.00  0.00    +0.000 C 
ENDBRANCH  12  13
ENDBRANCH   4   7
BRANCH   1  15
ATOM     15  C   UNL     1       7.287   5.188  15.970  0.00  0.00    +0.000 C 
BRANCH  15  16
ATOM     16  C   UNL     1       6.302   4.398  15.064  0.00  0.00    +0.000 C 
BRANCH  16  17
ATOM     17  O   UNL     1       6.205   3.055  15.578  0.00  0.00    +0.000 OA
ATOM     18  H   UNL     1       5.614   3.085  16.351  0.00  0.00    +0.000 HD
ENDBRANCH  16  17
BRANCH  16  19
ATOM     19  C   UNL     1       6.703   4.343  13.573  0.00  0.00    +0.000 C 
BRANCH  19  21
ATOM     20  C   UNL     1       5.329   3.244  11.884  0.00  0.00    +0.000 C 
ATOM     21  N   UNL     1       6.229   3.068  13.010  0.00  0.00    +0.000 NA
ATOM     22  H   UNL     1       7.040   2.505  12.743  0.00  0.00    +0.000 HD
ENDBRANCH  19  21
ENDBRANCH  16  19
ENDBRANCH  15  16
ENDBRANCH   1  15
TORSDOF 7
ENDMDL
MODEL 3
REMARK VINA RESULT:      -6.4      2.196      6.378
REMARK  Name = 
REMARK  9 active torsions:
REMARK  status: ('A' for Active; 'I' for Inactive)
REMARK    1  A    between atoms: C_1  and  N_2
REMARK    2  A    between atoms: N_2  and  C_3
REMARK    3  A    between atoms: C_3  and  C_4
REMARK    4  A    between atoms: C_4  and  O_5
REMARK    5  A    between atoms: C_4  and  C_6
REMARK    6  A    between atoms: C_6  and  N_7
REMARK    7  A    between atoms: N_10  and  C_11
REMARK    8  A    between atoms: C_16  and  O_17
REMARK    9  A    between atoms: O_17  and  C_18
REMARK                            x       y       z     vdW  Elec       q    Type
REMARK                         _______ _______ _______ _____ _____    ______ ____
ROOT
ATOM      1  N   UNL     1       6.686   6.054  16.837  0.00  0.00    +0.000 NA
ATOM      2  C   UNL     1       5.267   6.390  16.567  0.00  0.00    +0.000 C 
ATOM      3  C   UNL     1       4.211   5.363  17.041  0.00  0.00    +0.000 C 
ATOM      4  N   UNL     1       4.418   5.097  18.476  0.00  0.00    +0.000 N 
ATOM      5  C   UNL     1       5.753   4.530  18.729  0.00  0.00    +0.000 C 
ATOM      6  C   UNL     1       6.832   5.538  18.224  0.00  0.00    +0.000 C 
ENDROOT
BRANCH   4   7
ATOM      7  C   UNL     1       3.348   4.620  19.243  0.00  0.00    +0.000 A 
ATOM      8  C   UNL     1       3.071   3.237  19.303  0.00  0.00    +0.000 A 
ATOM      9  C   UNL     1       1.963   2.718  19.984  0.00  0.00    +0.000 A 
ATOM     10  C   UNL     1       1.091   3.573  20.641  0.00  0.00    +0.000 A 
ATOM     11  C   UNL     1       1.353   4.938  20.637  0.00  0.00    +0.000 A 
ATOM     12  C   UNL     1       2.462   5.466  19.951  0.00  0.00    +0.000 A 
BRANCH  12  13
ATOM     13  O   UNL     1       2.553   6.827  20.105  0.00  0.00    +0.000 OA
ATOM     14  C   UNL     1       2.187   7.629  18.992  0.00  0.00    +0.000 C 
ENDBRANCH  12  13
ENDBRANCH   4   7
BRANCH   1  15
ATOM     15  C   UNL     1       7.288   5.144  15.860  0.00  0.00    +0.000 C 
BRANCH  15  16
ATOM     16  C   UNL     1       6.312   4.376  14.926  0.00  0.00    +0.000 C 
BRANCH  16  17
ATOM     17  O   UNL     1       6.157   3.042  15.446  0.00  0.00    +0.000 OA
ATOM     18  H   UNL     1       5.344   3.034  15.981  0.00  0.00    +0.000 HD
ENDBRANCH  16  17
BRANCH  16  19
ATOM     19  C   UNL     1       6.764   4.297  13.450  0.00  0.00    +0.000 C 
BRANCH  19  21
ATOM     20  C   UNL     1       5.136   3.252  11.967  0.00  0.00    +0.000 C 
ATOM     21  N   UNL     1       6.250   3.043  12.873  0.00  0.00    +0.000 NA
ATOM     22  H   UNL     1       7.018   2.561  12.401  0.00  0.00    +0.000 HD
ENDBRANCH  19  21
ENDBRANCH  16  19
ENDBRANCH  15  16
ENDBRANCH   1  15
TORSDOF 7
ENDMDL
MODEL 4
REMARK VINA RESULT:      -6.3      2.212      6.293
REMARK  Name = 
REMARK  9 active torsions:
REMARK  status: ('A' for Active; 'I' for Inactive)
REMARK    1  A    between atoms: C_1  and  N_2
REMARK    2  A    between atoms: N_2  and  C_3
REMARK    3  A    between atoms: C_3  and  C_4
REMARK    4  A    between atoms: C_4  and  O_5
REMARK    5  A    between atoms: C_4  and  C_6
REMARK    6  A    between atoms: C_6  and  N_7
REMARK    7  A    between atoms: N_10  and  C_11
REMARK    8  A    between atoms: C_16  and  O_17
REMARK    9  A    between atoms: O_17  and  C_18
REMARK                            x       y       z     vdW  Elec       q    Type
REMARK                         _______ _______ _______ _____ _____    ______ ____
ROOT
ATOM      1  N   UNL     1       5.464   6.665  17.040  0.00  0.00    +0.000 NA
ATOM      2  C   UNL     1       4.070   7.044  17.375  0.00  0.00    +0.000 C 
ATOM      3  C   UNL     1       3.099   5.886  17.708  0.00  0.00    +0.000 C 
ATOM      4  N   UNL     1       3.686   5.068  18.784  0.00  0.00    +0.000 N 
ATOM      5  C   UNL     1       4.972   4.483  18.370  0.00  0.00    +0.000 C 
ATOM      6  C   UNL     1       5.954   5.636  17.996  0.00  0.00    +0.000 C 
ENDROOT
BRANCH   4   7
ATOM      7  C   UNL     1       2.844   4.294  19.591  0.00  0.00    +0.000 A 
ATOM      8  C   UNL     1       2.819   4.483  20.989  0.00  0.00    +0.000 A 
ATOM      9  C   UNL     1       2.059   3.677  21.846  0.00  0.00    +0.000 A 
ATOM     10  C   UNL     1       1.284   2.651  21.326  0.00  0.00    +0.000 A 
ATOM     11  C   UNL     1       1.251   2.461  19.949  0.00  0.00    +0.000 A 
ATOM     12  C   UNL     1       2.016   3.264  19.083  0.00  0.00    +0.000 A 
BRANCH  12  13
ATOM     13  O   UNL     1       1.811   2.930  17.768  0.00  0.00    +0.000 OA
ATOM     14  C   UNL     1       2.728   2.020  17.182  0.00  0.00    +0.000 C 
ENDBRANCH  12  13
ENDBRANCH   4   7
BRANCH   1  15
ATOM     15  C   UNL     1       5.659   6.243  15.651  0.00  0.00    +0.000 C 
BRANCH  15  16
ATOM     16  C   UNL     1       6.609   5.037  15.414  0.00  0.00    +0.000 C 
BRANCH  16  17
ATOM     17  O   UNL     1       7.748   5.509  14.667  0.00  0.00    +0.000 OA
ATOM     18  H   UNL     1       8.171   4.730  14.266  0.00  0.00    +0.000 HD
ENDBRANCH  16  17
BRANCH  16  19
ATOM     19  C   UNL     1       5.966   3.850  14.663  0.00  0.00    +0.000 C 
BRANCH  19  21
ATOM     20  C   UNL     1       5.733   3.239  12.314  0.00  0.00    +0.000 C 
ATOM     21  N   UNL     1       6.627   3.713  13.354  0.00  0.00    +0.000 NA
ATOM     22  H   UNL     1       7.037   4.615  13.099  0.00  0.00    +0.000 HD
ENDBRANCH  19  21
ENDBRANCH  16  19
ENDBRANCH  15  16
ENDBRANCH   1  15
TORSDOF 7
ENDMDL
MODEL 5
REMARK VINA RESULT:      -6.2      2.178      6.571
REMARK  Name = 
REMARK  9 active torsions:
REMARK  status: ('A' for Active; 'I' for Inactive)
REMARK    1  A    between atoms: C_1  and  N_2
REMARK    2  A    between atoms: N_2  and  C_3
REMARK    3  A    between atoms: C_3  and  C_4
REMARK    4  A    between atoms: C_4  and  O_5
REMARK    5  A    between atoms: C_4  and  C_6
REMARK    6  A    between atoms: C_6  and  N_7
REMARK    7  A    between atoms: N_10  and  C_11
REMARK    8  A    between atoms: C_16  and  O_17
REMARK    9  A    between atoms: O_17  and  C_18
REMARK                            x       y       z     vdW  Elec       q    Type
REMARK                         _______ _______ _______ _____ _____    ______ ____
ROOT
ATOM      1  N   UNL     1       6.085   6.207  16.963  0.00  0.00    +0.000 NA
ATOM      2  C   UNL     1       4.932   6.870  17.618  0.00  0.00    +0.000 C 
ATOM      3  C   UNL     1       3.697   5.982  17.908  0.00  0.00    +0.000 C 
ATOM      4  N   UNL     1       4.129   4.807  18.685  0.00  0.00    +0.000 N 
ATOM      5  C   UNL     1       5.107   4.000  17.936  0.00  0.00    +0.000 C 
ATOM      6  C   UNL     1       6.345   4.890  17.604  0.00  0.00    +0.000 C 
ENDROOT
BRANCH   4   7
ATOM      7  C   UNL     1       3.194   4.133  19.479  0.00  0.00    +0.000 A 
ATOM      8  C   UNL     1       1.830   4.496  19.444  0.00  0.00    +0.000 A 
ATOM      9  C   UNL     1       0.872   3.911  20.281  0.00  0.00    +0.000 A 
ATOM     10  C   UNL     1       1.248   2.928  21.183  0.00  0.00    +0.000 A 
ATOM     11  C   UNL     1       2.574   2.514  21.218  0.00  0.00    +0.000 A 
ATOM     12  C   UNL     1       3.543   3.101  20.383  0.00  0.00    +0.000 A 
BRANCH  12  13
ATOM     13  O   UNL     1       4.777   2.524  20.554  0.00  0.00    +0.000 OA
ATOM     14  C   UNL     1       4.881   1.132  20.297  0.00  0.00    +0.000 C 
ENDBRANCH  12  13
ENDBRANCH   4   7
BRANCH   1  15
ATOM     15  C   UNL     1       5.966   6.082  15.509  0.00  0.00    +0.000 C 
BRANCH  15  16
ATOM     16  C   UNL     1       6.723   4.899  14.844  0.00  0.00    +0.000 C 
BRANCH  16  17
ATOM     17  O   UNL     1       7.645   5.445  13.882  0.00  0.00    +0.000 OA
ATOM     18  H   UNL     1       8.501   5.002  14.020  0.00  0.00    +0.000 HD
ENDBRANCH  16  17
BRANCH  16  19
ATOM     19  C   UNL     1       5.812   3.865  14.145  0.00  0.00    +0.000 C 
BRANCH  19  21
ATOM     20  C   UNL     1       5.670   2.936  11.895  0.00  0.00    +0.000 C 
ATOM     21  N   UNL     1       6.542   3.303  12.996  0.00  0.00    +0.000 NA
ATOM     22  H   UNL     1       7.246   3.980  12.693  0.00  0.00    +0.000 HD
ENDBRANCH  19  21
ENDBRANCH  16  19
ENDBRANCH  15  16
ENDBRANCH   1  15
TORSDOF 7
ENDMDL
MODEL 6
REMARK VINA RESULT:      -6.2      2.198      6.176
REMARK  Name = 
REMARK  9 active torsions:
REMARK  status: ('A' for Active; 'I' for Inactive)
REMARK    1  A    between atoms: C_1  and  N_2
REMARK    2  A    between atoms: N_2  and  C_3
REMARK    3  A    between atoms: C_3  and  C_4
REMARK    4  A    between atoms: C_4  and  O_5
REMARK    5  A    between atoms: C_4  and  C_6
REMARK    6  A    between atoms: C_6  and  N_7
REMARK    7  A    between atoms: N_10  and  C_11
REMARK    8  A    between atoms: C_16  and  O_17
REMARK    9  A    between atoms: O_17  and  C_18
REMARK                            x       y       z     vdW  Elec       q    Type
REMARK                         _______ _______ _______ _____ _____    ______ ____
ROOT
ATOM      1  N   UNL     1       6.394   6.761  17.818  0.00  0.00    +0.000 NA
ATOM      2  C   UNL     1       5.002   7.047  17.396  0.00  0.00    +0.000 C 
ATOM      3  C   UNL     1       4.020   5.851  17.396  0.00  0.00    +0.000 C 
ATOM      4  N   UNL     1       4.038   5.220  18.728  0.00  0.00    +0.000 N 
ATOM      5  C   UNL     1       5.380   4.711  19.060  0.00  0.00    +0.000 C 
ATOM      6  C   UNL     1       6.391   5.899  19.031  0.00  0.00    +0.000 C 
ENDROOT
BRANCH   4   7
ATOM      7  C   UNL     1       2.932   4.470  19.143  0.00  0.00    +0.000 A 
ATOM      8  C   UNL     1       2.007   5.009  20.063  0.00  0.00    +0.000 A 
ATOM      9  C   UNL     1       0.933   4.268  20.575  0.00  0.00    +0.000 A 
ATOM     10  C   UNL     1       0.744   2.955  20.173  0.00  0.00    +0.000 A 
ATOM     11  C   UNL     1       1.611   2.403  19.237  0.00  0.00    +0.000 A 
ATOM     12  C   UNL     1       2.693   3.140  18.722  0.00  0.00    +0.000 A 
BRANCH  12  13
ATOM     13  O   UNL     1       3.400   2.421  17.791  0.00  0.00    +0.000 OA
ATOM     14  C   UNL     1       3.908   1.160  18.198  0.00  0.00    +0.000 C 
ENDBRANCH  12  13
ENDBRANCH   4   7
BRANCH   1  15
ATOM     15  C   UNL     1       7.243   6.202  16.764  0.00  0.00    +0.000 C 
BRANCH  15  16
ATOM     16  C   UNL     1       7.010   4.710  16.397  0.00  0.00    +0.000 C 
BRANCH  16  17
ATOM     17  O   UNL     1       8.128   3.950  16.895  0.00  0.00    +0.000 OA
ATOM     18  H   UNL     1       8.935   4.446  16.673  0.00  0.00    +0.000 HD
ENDBRANCH  16  17
BRANCH  16  19
ATOM     19  C   UNL     1       6.844   4.438  14.885  0.00  0.00    +0.000 C 
BRANCH  19  21
ATOM     20  C   UNL     1       7.792   5.112  12.742  0.00  0.00    +0.000 C 
ATOM     21  N   UNL     1       7.619   5.447  14.143  0.00  0.00    +0.000 NA
ATOM     22  H   UNL     1       7.158   6.355  14.247  0.00  0.00    +0.000 HD
ENDBRANCH  19  21
ENDBRANCH  16  19
ENDBRANCH  15  16
ENDBRANCH   1  15
TORSDOF 7
ENDMDL
MODEL 7
REMARK VINA RESULT:      -6.2      2.118      6.506
REMARK  Name = 
REMARK  9 active torsions:
REMARK  status: ('A' for Active; 'I' for Inactive)
REMARK    1  A    between atoms: C_1  and  N_2
REMARK    2  A    between atoms: N_2  and  C_3
REMARK    3  A    between atoms: C_3  and  C_4
REMARK    4  A    between atoms: C_4  and  O_5
REMARK    5  A    between atoms: C_4  and  C_6
REMARK    6  A    between atoms: C_6  and  N_7
REMARK    7  A    between atoms: N_10  and  C_11
REMARK    8  A    between atoms: C_16  and  O_17
REMARK    9  A    between atoms: O_17  and  C_18
REMARK                            x       y       z     vdW  Elec       q    Type
REMARK                         _______ _______ _______ _____ _____    ______ ____
ROOT
ATOM      1  N   UNL     1       6.335   6.669  18.042  0.00  0.00    +0.000 NA
ATOM      2  C   UNL     1       4.946   6.980  17.624  0.00  0.00    +0.000 C 
ATOM      3  C   UNL     1       3.987   5.776  17.462  0.00  0.00    +0.000 C 
ATOM      4  N   UNL     1       3.989   4.995  18.712  0.00  0.00    +0.000 N 
ATOM      5  C   UNL     1       5.332   4.472  19.013  0.00  0.00    +0.000 C 
ATOM      6  C   UNL     1       6.322   5.672  19.146  0.00  0.00    +0.000 C 
ENDROOT
BRANCH   4   7
ATOM      7  C   UNL     1       2.888   4.184  19.011  0.00  0.00    +0.000 A 
ATOM      8  C   UNL     1       2.609   3.040  18.234  0.00  0.00    +0.000 A 
ATOM      9  C   UNL     1       1.473   2.247  18.439  0.00  0.00    +0.000 A 
ATOM     10  C   UNL     1       0.575   2.571  19.445  0.00  0.00    +0.000 A 
ATOM     11  C   UNL     1       0.838   3.667  20.258  0.00  0.00    +0.000 A 
ATOM     12  C   UNL     1       1.975   4.470  20.054  0.00  0.00    +0.000 A 
BRANCH  12  13
ATOM     13  O   UNL     1       2.060   5.475  20.985  0.00  0.00    +0.000 OA
ATOM     14  C   UNL     1       1.714   6.783  20.558  0.00  0.00    +0.000 C 
ENDBRANCH  12  13
ENDBRANCH   4   7
BRANCH   1  15
ATOM     15  C   UNL     1       7.216   6.250  16.951  0.00  0.00    +0.000 C 
BRANCH  15  16
ATOM     16  C   UNL     1       6.935   4.858  16.320  0.00  0.00    +0.000 C 
BRANCH  16  17
ATOM     17  O   UNL     1       8.059   4.005  16.607  0.00  0.00    +0.000 OA
ATOM     18  H   UNL     1       8.787   4.578  16.906  0.00  0.00    +0.000 HD
ENDBRANCH  16  17
BRANCH  16  19
ATOM     19  C   UNL     1       6.690   4.881  14.794  0.00  0.00    +0.000 C 
BRANCH  19  21
ATOM     20  C   UNL     1       7.926   5.232  12.722  0.00  0.00    +0.000 C 
ATOM     21  N   UNL     1       7.856   5.505  14.146  0.00  0.00    +0.000 NA
ATOM     22  H   UNL     1       7.829   6.512  14.323  0.00  0.00    +0.000 HD
ENDBRANCH  19  21
ENDBRANCH  16  19
ENDBRANCH  15  16
ENDBRANCH   1  15
TORSDOF 7
ENDMDL
MODEL 8
REMARK VINA RESULT:      -6.1      2.383      6.775
REMARK  Name = 
REMARK  9 active torsions:
REMARK  status: ('A' for Active; 'I' for Inactive)
REMARK    1  A    between atoms: C_1  and  N_2
REMARK    2  A    between atoms: N_2  and  C_3
REMARK    3  A    between atoms: C_3  and  C_4
REMARK    4  A    between atoms: C_4  and  O_5
REMARK    5  A    between atoms: C_4  and  C_6
REMARK    6  A    between atoms: C_6  and  N_7
REMARK    7  A    between atoms: N_10  and  C_11
REMARK    8  A    between atoms: C_16  and  O_17
REMARK    9  A    between atoms: O_17  and  C_18
REMARK                            x       y       z     vdW  Elec       q    Type
REMARK                         _______ _______ _______ _____ _____    ______ ____
ROOT
ATOM      1  N   UNL     1       6.783   4.526  15.736  0.00  0.00    +0.000 NA
ATOM      2  C   UNL     1       6.851   5.505  16.848  0.00  0.00    +0.000 C 
ATOM      3  C   UNL     1       5.500   6.028  17.392  0.00  0.00    +0.000 C 
ATOM      4  N   UNL     1       4.661   4.876  17.767  0.00  0.00    +0.000 N 
ATOM      5  C   UNL     1       4.383   4.016  16.604  0.00  0.00    +0.000 C 
ATOM      6  C   UNL     1       5.737   3.507  16.020  0.00  0.00    +0.000 C 
ENDROOT
BRANCH   4   7
ATOM      7  C   UNL     1       3.641   5.053  18.709  0.00  0.00    +0.000 A 
ATOM      8  C   UNL     1       3.116   6.338  18.964  0.00  0.00    +0.000 A 
ATOM      9  C   UNL     1       2.158   6.579  19.957  0.00  0.00    +0.000 A 
ATOM     10  C   UNL     1       1.682   5.530  20.729  0.00  0.00    +0.000 A 
ATOM     11  C   UNL     1       2.145   4.243  20.480  0.00  0.00    +0.000 A 
ATOM     12  C   UNL     1       3.111   3.995  19.487  0.00  0.00    +0.000 A 
BRANCH  12  13
ATOM     13  O   UNL     1       3.401   2.658  19.384  0.00  0.00    +0.000 OA
ATOM     14  C   UNL     1       4.517   2.180  20.120  0.00  0.00    +0.000 C 
ENDBRANCH  12  13
ENDBRANCH   4   7
BRANCH   1  15
ATOM     15  C   UNL     1       6.603   5.126  14.412  0.00  0.00    +0.000 C 
BRANCH  15  16
ATOM     16  C   UNL     1       7.601   4.688  13.305  0.00  0.00    +0.000 C 
BRANCH  16  17
ATOM     17  O   UNL     1       8.341   5.851  12.887  0.00  0.00    +0.000 OA
ATOM     18  H   UNL     1       7.756   6.621  13.004  0.00  0.00    +0.000 HD
ENDBRANCH  16  17
BRANCH  16  19
ATOM     19  C   UNL     1       6.943   4.033  12.069  0.00  0.00    +0.000 C 
BRANCH  19  21
ATOM     20  C   UNL     1       5.878   1.919  11.487  0.00  0.00    +0.000 C 
ATOM     21  N   UNL     1       6.116   2.904  12.526  0.00  0.00    +0.000 NA
ATOM     22  H   UNL     1       6.566   2.475  13.339  0.00  0.00    +0.000 HD
ENDBRANCH  19  21
ENDBRANCH  16  19
ENDBRANCH  15  16
ENDBRANCH   1  15
TORSDOF 7
ENDMDL
MODEL 9
REMARK VINA RESULT:      -6.1      2.044      6.692
REMARK  Name = 
REMARK  9 active torsions:
REMARK  status: ('A' for Active; 'I' for Inactive)
REMARK    1  A    between atoms: C_1  and  N_2
REMARK    2  A    between atoms: N_2  and  C_3
REMARK    3  A    between atoms: C_3  and  C_4
REMARK    4  A    between atoms: C_4  and  O_5
REMARK    5  A    between atoms: C_4  and  C_6
REMARK    6  A    between atoms: C_6  and  N_7
REMARK    7  A    between atoms: N_10  and  C_11
REMARK    8  A    between atoms: C_16  and  O_17
REMARK    9  A    between atoms: O_17  and  C_18
REMARK                            x       y       z     vdW  Elec       q    Type
REMARK                         _______ _______ _______ _____ _____    ______ ____
ROOT
ATOM      1  N   UNL     1       5.974   6.371  17.171  0.00  0.00    +0.000 NA
ATOM      2  C   UNL     1       4.690   6.960  17.619  0.00  0.00    +0.000 C 
ATOM      3  C   UNL     1       3.454   6.029  17.589  0.00  0.00    +0.000 C 
ATOM      4  N   UNL     1       3.760   4.808  18.357  0.00  0.00    +0.000 N 
ATOM      5  C   UNL     1       4.897   4.079  17.772  0.00  0.00    +0.000 C 
ATOM      6  C   UNL     1       6.145   5.015  17.761  0.00  0.00    +0.000 C 
ENDROOT
BRANCH   4   7
ATOM      7  C   UNL     1       2.707   4.058  18.894  0.00  0.00    +0.000 A 
ATOM      8  C   UNL     1       2.235   2.907  18.228  0.00  0.00    +0.000 A 
ATOM      9  C   UNL     1       1.130   2.174  18.679  0.00  0.00    +0.000 A 
ATOM     10  C   UNL     1       0.460   2.568  19.827  0.00  0.00    +0.000 A 
ATOM     11  C   UNL     1       0.920   3.673  20.533  0.00  0.00    +0.000 A 
ATOM     12  C   UNL     1       2.027   4.416  20.083  0.00  0.00    +0.000 A 
BRANCH  12  13
ATOM     13  O   UNL     1       2.332   5.442  20.943  0.00  0.00    +0.000 OA
ATOM     14  C   UNL     1       1.726   6.700  20.689  0.00  0.00    +0.000 C 
ENDBRANCH  12  13
ENDBRANCH   4   7
BRANCH   1  15
ATOM     15  C   UNL     1       6.157   6.351  15.719  0.00  0.00    +0.000 C 
BRANCH  15  16
ATOM     16  C   UNL     1       6.715   5.038  15.102  0.00  0.00    +0.000 C 
BRANCH  16  17
ATOM     17  O   UNL     1       7.848   5.379  14.281  0.00  0.00    +0.000 OA
ATOM     18  H   UNL     1       7.706   6.285  13.956  0.00  0.00    +0.000 HD
ENDBRANCH  16  17
BRANCH  16  19
ATOM     19  C   UNL     1       5.696   4.241  14.256  0.00  0.00    +0.000 C 
BRANCH  19  21
ATOM     20  C   UNL     1       5.787   3.143  12.082  0.00  0.00    +0.000 C 
ATOM     21  N   UNL     1       6.439   3.335  13.364  0.00  0.00    +0.000 NA
ATOM     22  H   UNL     1       7.386   3.701  13.241  0.00  0.00    +0.000 HD
ENDBRANCH  19  21
ENDBRANCH  16  19
ENDBRANCH  15  16
ENDBRANCH   1  15
TORSDOF 7
ENDMDL
