MODEL 1
REMARK VINA RESULT:      -8.3      0.000      0.000
REMARK  Name = 
REMARK  8 active torsions:
REMARK  status: ('A' for Active; 'I' for Inactive)
REMARK    1  A    between atoms: C_1  and  C_2
REMARK    2  A    between atoms: C_2  and  C_3
REMARK    3  A    between atoms: C_2  and  C_4
REMARK    4  A    between atoms: C_2  and  C_5
REMARK    5  A    between atoms: C_8  and  C_9
REMARK    6  A    between atoms: C_9  and  N_10
REMARK    7  A    between atoms: C_14  and  C_16
REMARK    8  A    between atoms: C_16  and  C_17
REMARK                            x       y       z     vdW  Elec       q    Type
REMARK                         _______ _______ _______ _____ _____    ______ ____
ROOT
ATOM      1  N   UNL     1       7.063   6.245  16.582  0.00  0.00    +0.000 NA
ATOM      2  C   UNL     1       7.492   5.409  17.729  0.00  0.00    +0.000 C 
ATOM      3  C   UNL     1       6.354   4.845  18.607  0.00  0.00    +0.000 C 
ATOM      4  N   UNL     1       5.277   4.211  17.844  0.00  0.00    +0.000 N 
ATOM      5  C   UNL     1       4.369   3.434  18.578  0.00  0.00    +0.000 C 
ATOM      6  O   UNL     1       4.482   3.288  19.795  0.00  0.00    +0.000 OA
ATOM      7  C   UNL     1       4.876   4.909  16.616  0.00  0.00    +0.000 C 
ATOM      8  C   UNL     1       6.062   5.479  15.811  0.00  0.00    +0.000 C 
ENDROOT
BRANCH   1   9
ATOM      9  C   UNL     1       6.592   7.570  17.047  0.00  0.00    +0.000 C 
BRANCH   9  13
ATOM     10  C   UNL     1       8.751  10.094  18.359  0.00  0.00    +0.000 A 
ATOM     11  N   UNL     1       9.220   9.077  19.055  0.00  0.00    +0.000 NA
ATOM     12  N   UNL     1       8.464   7.976  18.714  0.00  0.00    +0.000 NA
ATOM     13  C   UNL     1       7.579   8.387  17.829  0.00  0.00    +0.000 A 
ATOM     14  O   UNL     1       7.702   9.727  17.543  0.00  0.00    +0.000 OA
BRANCH  10  16
ATOM     15  C   UNL     1       9.357  12.089  19.714  0.00  0.00    +0.000 C 
ATOM     16  C   UNL     1       9.255  11.509  18.293  0.00  0.00    +0.000 C 
ATOM     17  C   UNL     1       8.278  12.382  17.480  0.00  0.00    +0.000 C 
ATOM     18  C   UNL     1      10.633  11.573  17.615  0.00  0.00    +0.000 C 
ENDBRANCH  10  16
ENDBRANCH   9  13
ENDBRANCH   1   9
BRANCH   5  19
ATOM     19  C   UNL     1       3.268   2.743  17.778  0.00  0.00    +0.000 C 
BRANCH  19  20
ATOM     20  C   UNL     1       1.886   3.441  17.757  0.00  0.00    +0.000 C 
ATOM     21  C   UNL     1       0.878   2.645  18.612  0.00  0.00    +0.000 C 
ATOM     22  C   UNL     1       1.145   2.769  20.114  0.00  0.00    +0.000 C 
ATOM     23  C   UNL     1       1.188   4.225  20.563  0.00  0.00    +0.000 C 
ATOM     24  C   UNL     1       2.151   5.060  19.724  0.00  0.00    +0.000 C 
ATOM     25  C   UNL     1       1.883   4.906  18.230  0.00  0.00    +0.000 C 
ENDBRANCH  19  20
ENDBRANCH   5  19
TORSDOF 5
ENDMDL
MODEL 2
REMARK VINA RESULT:      -8.1      6.571      7.875
REMARK  Name = 
REMARK  8 active torsions:
REMARK  status: ('A' for Active; 'I' for Inactive)
REMARK    1  A    between atoms: C_1  and  C_2
REMARK    2  A    between atoms: C_2  and  C_3
REMARK    3  A    between atoms: C_2  and  C_4
REMARK    4  A    between atoms: C_2  and  C_5
REMARK    5  A    between atoms: C_8  and  C_9
REMARK    6  A    between atoms: C_9  and  N_10
REMARK    7  A    between atoms: C_14  and  C_16
REMARK    8  A    between atoms: C_16  and  C_17
REMARK                            x       y       z     vdW  Elec       q    Type
REMARK                         _______ _______ _______ _____ _____    ______ ____
ROOT
ATOM      1  N   UNL     1       0.447  10.275  19.615  0.00  0.00    +0.000 NA
ATOM      2  C   UNL     1       0.664   9.885  18.200  0.00  0.00    +0.000 C 
ATOM      3  C   UNL     1       1.916   9.022  17.931  0.00  0.00    +0.000 C 
ATOM      4  N   UNL     1       2.053   7.880  18.838  0.00  0.00    +0.000 N 
ATOM      5  C   UNL     1       2.993   6.905  18.473  0.00  0.00    +0.000 C 
ATOM      6  O   UNL     1       3.655   7.003  17.440  0.00  0.00    +0.000 OA
ATOM      7  C   UNL     1       1.730   8.148  20.246  0.00  0.00    +0.000 C 
ATOM      8  C   UNL     1       0.491   9.048  20.436  0.00  0.00    +0.000 C 
ENDROOT
BRANCH   1   9
ATOM      9  C   UNL     1       1.413  11.320  20.024  0.00  0.00    +0.000 C 
BRANCH   9  13
ATOM     10  C   UNL     1      -0.493  13.364  22.247  0.00  0.00    +0.000 A 
ATOM     11  N   UNL     1       0.607  14.090  22.232  0.00  0.00    +0.000 NA
ATOM     12  N   UNL     1       1.515  13.427  21.437  0.00  0.00    +0.000 NA
ATOM     13  C   UNL     1       0.915  12.334  21.011  0.00  0.00    +0.000 A 
ATOM     14  O   UNL     1      -0.375  12.225  21.479  0.00  0.00    +0.000 OA
BRANCH  10  16
ATOM     15  C   UNL     1      -2.536  12.341  23.228  0.00  0.00    +0.000 C 
ATOM     16  C   UNL     1      -1.817  13.660  22.898  0.00  0.00    +0.000 C 
ATOM     17  C   UNL     1      -2.708  14.474  21.939  0.00  0.00    +0.000 C 
ATOM     18  C   UNL     1      -1.628  14.475  24.187  0.00  0.00    +0.000 C 
ENDBRANCH  10  16
ENDBRANCH   9  13
ENDBRANCH   1   9
BRANCH   5  19
ATOM     19  C   UNL     1       3.110   5.697  19.398  0.00  0.00    +0.000 C 
BRANCH  19  20
ATOM     20  C   UNL     1       1.932   4.693  19.379  0.00  0.00    +0.000 C 
ATOM     21  C   UNL     1       1.596   4.300  17.925  0.00  0.00    +0.000 C 
ATOM     22  C   UNL     1       2.651   3.387  17.297  0.00  0.00    +0.000 C 
ATOM     23  C   UNL     1       2.895   2.140  18.141  0.00  0.00    +0.000 C 
ATOM     24  C   UNL     1       3.202   2.479  19.597  0.00  0.00    +0.000 C 
ATOM     25  C   UNL     1       2.151   3.408  20.197  0.00  0.00    +0.000 C 
ENDBRANCH  19  20
ENDBRANCH   5  19
TORSDOF 5
ENDMDL
MODEL 3
REMARK VINA RESULT:      -8.1      3.531      5.755
REMARK  Name = 
REMARK  8 active torsions:
REMARK  status: ('A' for Active; 'I' for Inactive)
REMARK    1  A    between atoms: C_1  and  C_2
REMARK    2  A    between atoms: C_2  and  C_3
REMARK    3  A    between atoms: C_2  and  C_4
REMARK    4  A    between atoms: C_2  and  C_5
REMARK    5  A    between atoms: C_8  and  C_9
REMARK    6  A    between atoms: C_9  and  N_10
REMARK    7  A    between atoms: C_14  and  C_16
REMARK    8  A    between atoms: C_16  and  C_17
REMARK                            x       y       z     vdW  Elec       q    Type
REMARK                         _______ _______ _______ _____ _____    ______ ____
ROOT
ATOM      1  N   UNL     1       6.845   5.615  17.775  0.00  0.00    +0.000 NA
ATOM      2  C   UNL     1       5.983   6.688  17.223  0.00  0.00    +0.000 C 
ATOM      3  C   UNL     1       4.463   6.433  17.309  0.00  0.00    +0.000 C 
ATOM      4  N   UNL     1       4.010   5.997  18.632  0.00  0.00    +0.000 N 
ATOM      5  C   UNL     1       2.626   6.027  18.858  0.00  0.00    +0.000 C 
ATOM      6  O   UNL     1       1.840   6.410  17.991  0.00  0.00    +0.000 OA
ATOM      7  C   UNL     1       4.879   5.026  19.310  0.00  0.00    +0.000 C 
ATOM      8  C   UNL     1       6.384   5.323  19.148  0.00  0.00    +0.000 C 
ENDROOT
BRANCH   1   9
ATOM      9  C   UNL     1       6.862   4.441  16.873  0.00  0.00    +0.000 C 
BRANCH   9  13
ATOM     10  C   UNL     1       6.925   4.418  13.303  0.00  0.00    +0.000 A 
ATOM     11  N   UNL     1       7.784   5.400  13.492  0.00  0.00    +0.000 NA
ATOM     12  N   UNL     1       7.870   5.601  14.852  0.00  0.00    +0.000 NA
ATOM     13  C   UNL     1       7.058   4.729  15.414  0.00  0.00    +0.000 A 
ATOM     14  O   UNL     1       6.423   3.930  14.490  0.00  0.00    +0.000 OA
BRANCH  10  16
ATOM     15  C   UNL     1       4.999   3.504  12.023  0.00  0.00    +0.000 C 
ATOM     16  C   UNL     1       6.518   3.749  12.019  0.00  0.00    +0.000 C 
ATOM     17  C   UNL     1       7.230   2.389  11.881  0.00  0.00    +0.000 C 
ATOM     18  C   UNL     1       6.893   4.613  10.803  0.00  0.00    +0.000 C 
ENDBRANCH  10  16
ENDBRANCH   9  13
ENDBRANCH   1   9
BRANCH   5  19
ATOM     19  C   UNL     1       2.157   5.608  20.247  0.00  0.00    +0.000 C 
BRANCH  19  20
ATOM     20  C   UNL     1       1.164   4.422  20.314  0.00  0.00    +0.000 C 
ATOM     21  C   UNL     1       1.091   3.715  18.944  0.00  0.00    +0.000 C 
ATOM     22  C   UNL     1       2.350   2.908  18.624  0.00  0.00    +0.000 C 
ATOM     23  C   UNL     1       2.673   1.901  19.723  0.00  0.00    +0.000 C 
ATOM     24  C   UNL     1       2.726   2.550  21.103  0.00  0.00    +0.000 C 
ATOM     25  C   UNL     1       1.472   3.368  21.394  0.00  0.00    +0.000 C 
ENDBRANCH  19  20
ENDBRANCH   5  19
TORSDOF 5
ENDMDL
MODEL 4
REMARK VINA RESULT:      -8.1      1.445      9.130
REMARK  Name = 
REMARK  8 active torsions:
REMARK  status: ('A' for Active; 'I' for Inactive)
REMARK    1  A    between atoms: C_1  and  C_2
REMARK    2  A    between atoms: C_2  and  C_3
REMARK    3  A    between atoms: C_2  and  C_4
REMARK    4  A    between atoms: C_2  and  C_5
REMARK    5  A    between atoms: C_8  and  C_9
REMARK    6  A    between atoms: C_9  and  N_10
REMARK    7  A    between atoms: C_14  and  C_16
REMARK    8  A    between atoms: C_16  and  C_17
REMARK                            x       y       z     vdW  Elec       q    Type
REMARK                         _______ _______ _______ _____ _____    ______ ____
ROOT
ATOM      1  N   UNL     1       6.901   5.368  18.386  0.00  0.00    +0.000 NA
ATOM      2  C   UNL     1       6.570   6.143  17.165  0.00  0.00    +0.000 C 
ATOM      3  C   UNL     1       6.659   7.678  17.306  0.00  0.00    +0.000 C 
ATOM      4  N   UNL     1       7.901   8.145  17.928  0.00  0.00    +0.000 N 
ATOM      5  C   UNL     1       8.171   9.517  17.824  0.00  0.00    +0.000 C 
ATOM      6  O   UNL     1       7.409  10.281  17.231  0.00  0.00    +0.000 OA
ATOM      7  C   UNL     1       8.372   7.351  19.071  0.00  0.00    +0.000 C 
ATOM      8  C   UNL     1       8.216   5.829  18.875  0.00  0.00    +0.000 C 
ENDROOT
BRANCH   1   9
ATOM      9  C   UNL     1       5.809   5.468  19.381  0.00  0.00    +0.000 C 
BRANCH   9  13
ATOM     10  C   UNL     1       2.964   3.346  19.770  0.00  0.00    +0.000 A 
ATOM     11  N   UNL     1       3.837   2.417  19.434  0.00  0.00    +0.000 NA
ATOM     12  N   UNL     1       5.031   3.059  19.191  0.00  0.00    +0.000 NA
ATOM     13  C   UNL     1       4.816   4.343  19.393  0.00  0.00    +0.000 A 
ATOM     14  O   UNL     1       3.521   4.607  19.774  0.00  0.00    +0.000 OA
BRANCH  10  16
ATOM     15  C   UNL     1       1.485   2.464  21.564  0.00  0.00    +0.000 C 
ATOM     16  C   UNL     1       1.533   3.188  20.207  0.00  0.00    +0.000 C 
ATOM     17  C   UNL     1       0.754   2.346  19.178  0.00  0.00    +0.000 C 
ATOM     18  C   UNL     1       0.840   4.555  20.332  0.00  0.00    +0.000 C 
ENDBRANCH  10  16
ENDBRANCH   9  13
ENDBRANCH   1   9
BRANCH   5  19
ATOM     19  C   UNL     1       9.482   9.997  18.440  0.00  0.00    +0.000 C 
BRANCH  19  20
ATOM     20  C   UNL     1       9.983  11.394  17.998  0.00  0.00    +0.000 C 
ATOM     21  C   UNL     1       9.292  12.493  18.832  0.00  0.00    +0.000 C 
ATOM     22  C   UNL     1       9.793  12.545  20.277  0.00  0.00    +0.000 C 
ATOM     23  C   UNL     1      11.308  12.702  20.346  0.00  0.00    +0.000 C 
ATOM     24  C   UNL     1      12.035  11.653  19.509  0.00  0.00    +0.000 C 
ATOM     25  C   UNL     1      11.507  11.600  18.079  0.00  0.00    +0.000 C 
ENDBRANCH  19  20
ENDBRANCH   5  19
TORSDOF 5
ENDMDL
MODEL 5
REMARK VINA RESULT:      -7.9      6.711      9.118
REMARK  Name = 
REMARK  8 active torsions:
REMARK  status: ('A' for Active; 'I' for Inactive)
REMARK    1  A    between atoms: C_1  and  C_2
REMARK    2  A    between atoms: C_2  and  C_3
REMARK    3  A    between atoms: C_2  and  C_4
REMARK    4  A    between atoms: C_2  and  C_5
REMARK    5  A    between atoms: C_8  and  C_9
REMARK    6  A    between atoms: C_9  and  N_10
REMARK    7  A    between atoms: C_14  and  C_16
REMARK    8  A    between atoms: C_16  and  C_17
REMARK                            x       y       z     vdW  Elec       q    Type
REMARK                         _______ _______ _______ _____ _____    ______ ____
ROOT
ATOM      1  N   UNL     1       0.746  10.410  18.863  0.00  0.00    +0.000 NA
ATOM      2  C   UNL     1       0.983   9.683  20.133  0.00  0.00    +0.000 C 
ATOM      3  C   UNL     1       1.295   8.177  19.992  0.00  0.00    +0.000 C 
ATOM      4  N   UNL     1       2.322   7.877  18.992  0.00  0.00    +0.000 N 
ATOM      5  C   UNL     1       2.854   6.579  19.017  0.00  0.00    +0.000 C 
ATOM      6  O   UNL     1       2.482   5.746  19.843  0.00  0.00    +0.000 OA
ATOM      7  C   UNL     1       2.237   8.650  17.747  0.00  0.00    +0.000 C 
ATOM      8  C   UNL     1       1.885  10.136  17.963  0.00  0.00    +0.000 C 
ENDROOT
BRANCH   1   9
ATOM      9  C   UNL     1      -0.578  10.058  18.299  0.00  0.00    +0.000 C 
BRANCH   9  13
ATOM     10  C   UNL     1      -3.728  11.667  18.783  0.00  0.00    +0.000 A 
ATOM     11  N   UNL     1      -3.018  12.410  19.609  0.00  0.00    +0.000 NA
ATOM     12  N   UNL     1      -1.735  11.906  19.598  0.00  0.00    +0.000 NA
ATOM     13  C   UNL     1      -1.739  10.885  18.766  0.00  0.00    +0.000 A 
ATOM     14  O   UNL     1      -2.974  10.672  18.198  0.00  0.00    +0.000 OA
BRANCH  10  16
ATOM     15  C   UNL     1      -5.235  12.100  16.853  0.00  0.00    +0.000 C 
ATOM     16  C   UNL     1      -5.165  11.823  18.365  0.00  0.00    +0.000 C 
ATOM     17  C   UNL     1      -5.806  13.012  19.108  0.00  0.00    +0.000 C 
ATOM     18  C   UNL     1      -5.975  10.559  18.692  0.00  0.00    +0.000 C 
ENDBRANCH  10  16
ENDBRANCH   9  13
ENDBRANCH   1   9
BRANCH   5  19
ATOM     19  C   UNL     1       3.950   6.277  17.999  0.00  0.00    +0.000 C 
BRANCH  19  20
ATOM     20  C   UNL     1       4.576   4.862  18.057  0.00  0.00    +0.000 C 
ATOM     21  C   UNL     1       4.487   4.187  16.672  0.00  0.00    +0.000 C 
ATOM     22  C   UNL     1       5.452   4.795  15.652  0.00  0.00    +0.000 C 
ATOM     23  C   UNL     1       6.891   4.782  16.156  0.00  0.00    +0.000 C 
ATOM     24  C   UNL     1       7.024   5.413  17.539  0.00  0.00    +0.000 C 
ATOM     25  C   UNL     1       6.039   4.810  18.535  0.00  0.00    +0.000 C 
ENDBRANCH  19  20
ENDBRANCH   5  19
TORSDOF 5
ENDMDL
MODEL 6
REMARK VINA RESULT:      -7.9      5.457      6.500
REMARK  Name = 
REMARK  8 active torsions:
REMARK  status: ('A' for Active; 'I' for Inactive)
REMARK    1  A    between atoms: C_1  and  C_2
REMARK    2  A    between atoms: C_2  and  C_3
REMARK    3  A    between atoms: C_2  and  C_4
REMARK    4  A    between atoms: C_2  and  C_5
REMARK    5  A    between atoms: C_8  and  C_9
REMARK    6  A    between atoms: C_9  and  N_10
REMARK    7  A    between atoms: C_14  and  C_16
REMARK    8  A    between atoms: C_16  and  C_17
REMARK                            x       y       z     vdW  Elec       q    Type
REMARK                         _______ _______ _______ _____ _____    ______ ____
ROOT
ATOM      1  N   UNL     1       0.262  10.692  19.999  0.00  0.00    +0.000 NA
ATOM      2  C   UNL     1       0.522  10.345  18.581  0.00  0.00    +0.000 C 
ATOM      3  C   UNL     1       1.721   9.403  18.334  0.00  0.00    +0.000 C 
ATOM      4  N   UNL     1       1.731   8.219  19.196  0.00  0.00    +0.000 N 
ATOM      5  C   UNL     1       2.616   7.193  18.833  0.00  0.00    +0.000 C 
ATOM      6  O   UNL     1       3.334   7.283  17.837  0.00  0.00    +0.000 OA
ATOM      7  C   UNL     1       1.357   8.453  20.597  0.00  0.00    +0.000 C 
ATOM      8  C   UNL     1       0.178   9.433  20.768  0.00  0.00    +0.000 C 
ENDROOT
BRANCH   1   9
ATOM      9  C   UNL     1       1.279  11.646  20.499  0.00  0.00    +0.000 C 
BRANCH   9  13
ATOM     10  C   UNL     1       2.351  14.656  18.904  0.00  0.00    +0.000 A 
ATOM     11  N   UNL     1       1.053  14.880  18.856  0.00  0.00    +0.000 NA
ATOM     12  N   UNL     1       0.436  13.776  19.403  0.00  0.00    +0.000 NA
ATOM     13  C   UNL     1       1.395  12.943  19.753  0.00  0.00    +0.000 A 
ATOM     14  O   UNL     1       2.649  13.437  19.474  0.00  0.00    +0.000 OA
BRANCH  10  16
ATOM     15  C   UNL     1       4.666  14.721  17.998  0.00  0.00    +0.000 C 
ATOM     16  C   UNL     1       3.484  15.563  18.510  0.00  0.00    +0.000 C 
ATOM     17  C   UNL     1       3.960  16.378  19.729  0.00  0.00    +0.000 C 
ATOM     18  C   UNL     1       3.047  16.549  17.415  0.00  0.00    +0.000 C 
ENDBRANCH  10  16
ENDBRANCH   9  13
ENDBRANCH   1   9
BRANCH   5  19
ATOM     19  C   UNL     1       2.600   5.944  19.709  0.00  0.00    +0.000 C 
BRANCH  19  20
ATOM     20  C   UNL     1       1.451   4.937  19.458  0.00  0.00    +0.000 C 
ATOM     21  C   UNL     1       1.644   4.242  18.094  0.00  0.00    +0.000 C 
ATOM     22  C   UNL     1       2.797   3.236  18.098  0.00  0.00    +0.000 C 
ATOM     23  C   UNL     1       2.640   2.198  19.204  0.00  0.00    +0.000 C 
ATOM     24  C   UNL     1       2.415   2.841  20.570  0.00  0.00    +0.000 C 
ATOM     25  C   UNL     1       1.277   3.856  20.540  0.00  0.00    +0.000 C 
ENDBRANCH  19  20
ENDBRANCH   5  19
TORSDOF 5
ENDMDL
MODEL 7
REMARK VINA RESULT:      -7.9      6.901      8.370
REMARK  Name = 
REMARK  8 active torsions:
REMARK  status: ('A' for Active; 'I' for Inactive)
REMARK    1  A    between atoms: C_1  and  C_2
REMARK    2  A    between atoms: C_2  and  C_3
REMARK    3  A    between atoms: C_2  and  C_4
REMARK    4  A    between atoms: C_2  and  C_5
REMARK    5  A    between atoms: C_8  and  C_9
REMARK    6  A    between atoms: C_9  and  N_10
REMARK    7  A    between atoms: C_14  and  C_16
REMARK    8  A    between atoms: C_16  and  C_17
REMARK                            x       y       z     vdW  Elec       q    Type
REMARK                         _______ _______ _______ _____ _____    ______ ____
ROOT
ATOM      1  N   UNL     1       0.093  10.229  20.247  0.00  0.00    +0.000 NA
ATOM      2  C   UNL     1       0.303  10.041  18.791  0.00  0.00    +0.000 C 
ATOM      3  C   UNL     1       1.592   9.289  18.394  0.00  0.00    +0.000 C 
ATOM      4  N   UNL     1       1.806   8.047  19.141  0.00  0.00    +0.000 N 
ATOM      5  C   UNL     1       2.788   7.180  18.638  0.00  0.00    +0.000 C 
ATOM      6  O   UNL     1       3.423   7.449  17.619  0.00  0.00    +0.000 OA
ATOM      7  C   UNL     1       1.497   8.110  20.575  0.00  0.00    +0.000 C 
ATOM      8  C   UNL     1       0.217   8.909  20.899  0.00  0.00    +0.000 C 
ENDROOT
BRANCH   1   9
ATOM      9  C   UNL     1       1.012  11.262  20.779  0.00  0.00    +0.000 C 
BRANCH   9  13
ATOM     10  C   UNL     1      -1.166  13.465  22.555  0.00  0.00    +0.000 A 
ATOM     11  N   UNL     1      -0.178  14.314  22.352  0.00  0.00    +0.000 NA
ATOM     12  N   UNL     1       0.816  13.622  21.695  0.00  0.00    +0.000 NA
ATOM     13  C   UNL     1       0.375  12.390  21.535  0.00  0.00    +0.000 A 
ATOM     14  O   UNL     1      -0.888  12.212  22.051  0.00  0.00    +0.000 OA
BRANCH  10  16
ATOM     15  C   UNL     1      -2.366  14.560  24.438  0.00  0.00    +0.000 C 
ATOM     16  C   UNL     1      -2.520  13.714  23.162  0.00  0.00    +0.000 C 
ATOM     17  C   UNL     1      -3.183  12.375  23.543  0.00  0.00    +0.000 C 
ATOM     18  C   UNL     1      -3.443  14.443  22.173  0.00  0.00    +0.000 C 
ENDBRANCH  10  16
ENDBRANCH   9  13
ENDBRANCH   1   9
BRANCH   5  19
ATOM     19  C   UNL     1       2.985   5.870  19.394  0.00  0.00    +0.000 C 
BRANCH  19  20
ATOM     20  C   UNL     1       1.854   4.820  19.267  0.00  0.00    +0.000 C 
ATOM     21  C   UNL     1       1.694   4.389  17.794  0.00  0.00    +0.000 C 
ATOM     22  C   UNL     1       2.845   3.507  17.305  0.00  0.00    +0.000 C 
ATOM     23  C   UNL     1       3.041   2.285  18.197  0.00  0.00    +0.000 C 
ATOM     24  C   UNL     1       3.172   2.661  19.670  0.00  0.00    +0.000 C 
ATOM     25  C   UNL     1       2.029   3.559  20.132  0.00  0.00    +0.000 C 
ENDBRANCH  19  20
ENDBRANCH   5  19
TORSDOF 5
ENDMDL
MODEL 8
REMARK VINA RESULT:      -7.8      5.505      6.457
REMARK  Name = 
REMARK  8 active torsions:
REMARK  status: ('A' for Active; 'I' for Inactive)
REMARK    1  A    between atoms: C_1  and  C_2
REMARK    2  A    between atoms: C_2  and  C_3
REMARK    3  A    between atoms: C_2  and  C_4
REMARK    4  A    between atoms: C_2  and  C_5
REMARK    5  A    between atoms: C_8  and  C_9
REMARK    6  A    between atoms: C_9  and  N_10
REMARK    7  A    between atoms: C_14  and  C_16
REMARK    8  A    between atoms: C_16  and  C_17
REMARK                            x       y       z     vdW  Elec       q    Type
REMARK                         _______ _______ _______ _____ _____    ______ ____
ROOT
ATOM      1  N   UNL     1       0.208  10.726  19.986  0.00  0.00    +0.000 NA
ATOM      2  C   UNL     1       0.457  10.455  18.549  0.00  0.00    +0.000 C 
ATOM      3  C   UNL     1       1.679   9.563  18.240  0.00  0.00    +0.000 C 
ATOM      4  N   UNL     1       1.736   8.340  19.042  0.00  0.00    +0.000 N 
ATOM      5  C   UNL     1       2.645   7.359  18.618  0.00  0.00    +0.000 C 
ATOM      6  O   UNL     1       3.345   7.519  17.618  0.00  0.00    +0.000 OA
ATOM      7  C   UNL     1       1.377   8.495  20.458  0.00  0.00    +0.000 C 
ATOM      8  C   UNL     1       0.172   9.429  20.693  0.00  0.00    +0.000 C 
ENDROOT
BRANCH   1   9
ATOM      9  C   UNL     1       1.203  11.685  20.517  0.00  0.00    +0.000 C 
BRANCH   9  13
ATOM     10  C   UNL     1       2.340  14.666  18.913  0.00  0.00    +0.000 A 
ATOM     11  N   UNL     1       1.047  14.915  18.861  0.00  0.00    +0.000 NA
ATOM     12  N   UNL     1       0.406  13.826  19.411  0.00  0.00    +0.000 NA
ATOM     13  C   UNL     1       1.348  12.976  19.766  0.00  0.00    +0.000 A 
ATOM     14  O   UNL     1       2.612  13.443  19.489  0.00  0.00    +0.000 OA
BRANCH  10  16
ATOM     15  C   UNL     1       3.961  16.362  19.736  0.00  0.00    +0.000 C 
ATOM     16  C   UNL     1       3.492  15.548  18.518  0.00  0.00    +0.000 C 
ATOM     17  C   UNL     1       3.052  16.532  17.415  0.00  0.00    +0.000 C 
ATOM     18  C   UNL     1       4.666  14.715  17.978  0.00  0.00    +0.000 C 
ENDBRANCH  10  16
ENDBRANCH   9  13
ENDBRANCH   1   9
BRANCH   5  19
ATOM     19  C   UNL     1       2.679   6.069  19.433  0.00  0.00    +0.000 C 
BRANCH  19  20
ATOM     20  C   UNL     1       3.054   4.777  18.667  0.00  0.00    +0.000 C 
ATOM     21  C   UNL     1       3.761   3.786  19.615  0.00  0.00    +0.000 C 
ATOM     22  C   UNL     1       2.807   3.151  20.629  0.00  0.00    +0.000 C 
ATOM     23  C   UNL     1       1.621   2.478  19.947  0.00  0.00    +0.000 C 
ATOM     24  C   UNL     1       0.908   3.413  18.974  0.00  0.00    +0.000 C 
ATOM     25  C   UNL     1       1.879   4.053  17.986  0.00  0.00    +0.000 C 
ENDBRANCH  19  20
ENDBRANCH   5  19
TORSDOF 5
ENDMDL
MODEL 9
REMARK VINA RESULT:      -7.8      7.076      8.874
REMARK  Name = 
REMARK  8 active torsions:
REMARK  status: ('A' for Active; 'I' for Inactive)
REMARK    1  A    between atoms: C_1  and  C_2
REMARK    2  A    between atoms: C_2  and  C_3
REMARK    3  A    between atoms: C_2  and  C_4
REMARK    4  A    between atoms: C_2  and  C_5
REMARK    5  A    between atoms: C_8  and  C_9
REMARK    6  A    between atoms: C_9  and  N_10
REMARK    7  A    between atoms: C_14  and  C_16
REMARK    8  A    between atoms: C_16  and  C_17
REMARK                            x       y       z     vdW  Elec       q    Type
REMARK                         _______ _______ _______ _____ _____    ______ ____
ROOT
ATOM      1  N   UNL     1       0.639  10.831  19.693  0.00  0.00    +0.000 NA
ATOM      2  C   UNL     1       1.155  10.057  20.848  0.00  0.00    +0.000 C 
ATOM      3  C   UNL     1       1.285   8.534  20.626  0.00  0.00    +0.000 C 
ATOM      4  N   UNL     1       1.966   8.174  19.381  0.00  0.00    +0.000 N 
ATOM      5  C   UNL     1       2.371   6.836  19.257  0.00  0.00    +0.000 C 
ATOM      6  O   UNL     1       2.171   6.017  20.154  0.00  0.00    +0.000 OA
ATOM      7  C   UNL     1       1.607   8.981  18.207  0.00  0.00    +0.000 C 
ATOM      8  C   UNL     1       1.457  10.485  18.512  0.00  0.00    +0.000 C 
ENDROOT
BRANCH   1   9
ATOM      9  C   UNL     1      -0.814  10.603  19.518  0.00  0.00    +0.000 C 
BRANCH   9  13
ATOM     10  C   UNL     1      -2.647  12.886  21.563  0.00  0.00    +0.000 A 
ATOM     11  N   UNL     1      -3.336  13.047  20.450  0.00  0.00    +0.000 NA
ATOM     12  N   UNL     1      -2.740  12.256  19.492  0.00  0.00    +0.000 NA
ATOM     13  C   UNL     1      -1.722  11.658  20.077  0.00  0.00    +0.000 A 
ATOM     14  O   UNL     1      -1.601  12.003  21.404  0.00  0.00    +0.000 OA
BRANCH  10  16
ATOM     15  C   UNL     1      -1.581  13.916  23.559  0.00  0.00    +0.000 C 
ATOM     16  C   UNL     1      -2.908  13.456  22.930  0.00  0.00    +0.000 C 
ATOM     17  C   UNL     1      -3.532  12.381  23.842  0.00  0.00    +0.000 C 
ATOM     18  C   UNL     1      -3.878  14.646  22.856  0.00  0.00    +0.000 C 
ENDBRANCH  10  16
ENDBRANCH   9  13
ENDBRANCH   1   9
BRANCH   5  19
ATOM     19  C   UNL     1       3.112   6.469  17.975  0.00  0.00    +0.000 C 
BRANCH  19  20
ATOM     20  C   UNL     1       4.580   6.003  18.135  0.00  0.00    +0.000 C 
ATOM     21  C   UNL     1       4.652   4.462  18.110  0.00  0.00    +0.000 C 
ATOM     22  C   UNL     1       4.404   3.877  16.718  0.00  0.00    +0.000 C 
ATOM     23  C   UNL     1       5.351   4.469  15.678  0.00  0.00    +0.000 C 
ATOM     24  C   UNL     1       5.336   5.995  15.687  0.00  0.00    +0.000 C 
ATOM     25  C   UNL     1       5.562   6.558  17.087  0.00  0.00    +0.000 C 
ENDBRANCH  19  20
ENDBRANCH   5  19
TORSDOF 5
ENDMDL
