MODEL 1
REMARK VINA RESULT:      -7.2      0.000      0.000
REMARK  Name = 
REMARK  3 active torsions:
REMARK  status: ('A' for Active; 'I' for Inactive)
REMARK    1  A    between atoms: C_2  and  C_14
REMARK    2  A    between atoms: N_3  and  N_4
REMARK    3  A    between atoms: C_5  and  C_7
REMARK                            x       y       z     vdW  Elec       q    Type
REMARK                         _______ _______ _______ _____ _____    ______ ____
ROOT
ATOM      1  N   UNL     1       4.655   3.639  17.503  0.00  0.00    +0.000 N 
ATOM      2  C   UNL     1       3.296   3.475  17.636  0.00  0.00    +0.000 C 
ATOM      3  O   UNL     1       2.562   3.197  16.692  0.00  0.00    +0.000 OA
ATOM      4  H   UNL     1       5.260   3.922  18.274  0.00  0.00    +0.000 HD
ENDROOT
BRANCH   2   5
ATOM      5  C   UNL     1       2.750   3.571  19.025  0.00  0.00    +0.000 A 
ATOM      6  C   UNL     1       2.443   2.346  19.646  0.00  0.00    +0.000 A 
ATOM      7  C   UNL     1       1.973   2.303  20.961  0.00  0.00    +0.000 A 
ATOM      8  C   UNL     1       1.798   3.484  21.674  0.00  0.00    +0.000 A 
ATOM      9  C   UNL     1       2.077   4.708  21.067  0.00  0.00    +0.000 A 
ATOM     10  C   UNL     1       2.541   4.759  19.743  0.00  0.00    +0.000 A 
ATOM     11 BR   UNL     1       2.779   6.507  19.031  0.00  0.00    +0.000 Br
ENDBRANCH   2   5
BRANCH   1  14
ATOM     12  O   UNL     1       5.666   5.832  16.311  0.00  0.00    +0.000 OA
ATOM     13  C   UNL     1       5.755   4.755  15.724  0.00  0.00    +0.000 C 
ATOM     14  N   UNL     1       5.261   3.576  16.250  0.00  0.00    +0.000 N 
ATOM     15  H   UNL     1       5.339   2.675  15.777  0.00  0.00    +0.000 HD
BRANCH  13  16
ATOM     16  C   UNL     1       6.408   4.656  14.397  0.00  0.00    +0.000 A 
ATOM     17  C   UNL     1       5.921   3.744  13.472  0.00  0.00    +0.000 A 
ATOM     18  N   UNL     1       6.475   3.589  12.242  0.00  0.00    +0.000 NA
ATOM     19  C   UNL     1       7.537   4.386  11.986  0.00  0.00    +0.000 A 
ATOM     20  C   UNL     1       8.022   5.301  12.911  0.00  0.00    +0.000 A 
ATOM     21  N   UNL     1       7.473   5.466  14.139  0.00  0.00    +0.000 NA
ENDBRANCH  13  16
ENDBRANCH   1  14
TORSDOF 3
ENDMDL
MODEL 2
REMARK VINA RESULT:      -6.9      0.639      1.120
REMARK  Name = 
REMARK  3 active torsions:
REMARK  status: ('A' for Active; 'I' for Inactive)
REMARK    1  A    between atoms: C_2  and  C_14
REMARK    2  A    between atoms: N_3  and  N_4
REMARK    3  A    between atoms: C_5  and  C_7
REMARK                            x       y       z     vdW  Elec       q    Type
REMARK                         _______ _______ _______ _____ _____    ______ ____
ROOT
ATOM      1  N   UNL     1       4.633   3.509  17.581  0.00  0.00    +0.000 N 
ATOM      2  C   UNL     1       3.265   3.418  17.689  0.00  0.00    +0.000 C 
ATOM      3  O   UNL     1       2.534   3.194  16.728  0.00  0.00    +0.000 OA
ATOM      4  H   UNL     1       5.238   3.747  18.367  0.00  0.00    +0.000 HD
ENDROOT
BRANCH   2   5
ATOM      5  C   UNL     1       2.699   3.524  19.069  0.00  0.00    +0.000 A 
ATOM      6  C   UNL     1       2.331   2.307  19.673  0.00  0.00    +0.000 A 
ATOM      7  C   UNL     1       1.838   2.272  20.980  0.00  0.00    +0.000 A 
ATOM      8  C   UNL     1       1.700   3.452  21.701  0.00  0.00    +0.000 A 
ATOM      9  C   UNL     1       2.040   4.668  21.111  0.00  0.00    +0.000 A 
ATOM     10  C   UNL     1       2.528   4.713  19.796  0.00  0.00    +0.000 A 
ATOM     11 BR   UNL     1       2.852   6.456  19.105  0.00  0.00    +0.000 Br
ENDBRANCH   2   5
BRANCH   1  14
ATOM     12  O   UNL     1       5.210   5.716  16.150  0.00  0.00    +0.000 OA
ATOM     13  C   UNL     1       5.517   4.620  15.683  0.00  0.00    +0.000 C 
ATOM     14  N   UNL     1       5.256   3.431  16.338  0.00  0.00    +0.000 N 
ATOM     15  H   UNL     1       5.516   2.518  15.966  0.00  0.00    +0.000 HD
BRANCH  13  16
ATOM     16  C   UNL     1       6.195   4.509  14.370  0.00  0.00    +0.000 A 
ATOM     17  C   UNL     1       7.275   5.336  14.096  0.00  0.00    +0.000 A 
ATOM     18  N   UNL     1       7.937   5.299  12.911  0.00  0.00    +0.000 NA
ATOM     19  C   UNL     1       7.467   4.400  12.018  0.00  0.00    +0.000 A 
ATOM     20  C   UNL     1       6.389   3.569  12.294  0.00  0.00    +0.000 A 
ATOM     21  N   UNL     1       5.724   3.596  13.474  0.00  0.00    +0.000 NA
ENDBRANCH  13  16
ENDBRANCH   1  14
TORSDOF 3
ENDMDL
MODEL 3
REMARK VINA RESULT:      -6.8      5.739      8.583
REMARK  Name = 
REMARK  3 active torsions:
REMARK  status: ('A' for Active; 'I' for Inactive)
REMARK    1  A    between atoms: C_2  and  C_14
REMARK    2  A    between atoms: N_3  and  N_4
REMARK    3  A    between atoms: C_5  and  C_7
REMARK                            x       y       z     vdW  Elec       q    Type
REMARK                         _______ _______ _______ _____ _____    ______ ____
ROOT
ATOM      1  N   UNL     1       1.757   7.006  21.094  0.00  0.00    +0.000 N 
ATOM      2  C   UNL     1       2.131   6.486  19.877  0.00  0.00    +0.000 C 
ATOM      3  O   UNL     1       2.375   7.187  18.898  0.00  0.00    +0.000 OA
ATOM      4  H   UNL     1       1.503   6.425  21.892  0.00  0.00    +0.000 HD
ENDROOT
BRANCH   2   5
ATOM      5  C   UNL     1       2.311   5.003  19.816  0.00  0.00    +0.000 A 
ATOM      6  C   UNL     1       1.167   4.237  20.110  0.00  0.00    +0.000 A 
ATOM      7  C   UNL     1       1.196   2.842  20.037  0.00  0.00    +0.000 A 
ATOM      8  C   UNL     1       2.370   2.191  19.675  0.00  0.00    +0.000 A 
ATOM      9  C   UNL     1       3.518   2.933  19.400  0.00  0.00    +0.000 A 
ATOM     10  C   UNL     1       3.499   4.334  19.479  0.00  0.00    +0.000 A 
ATOM     11 BR   UNL     1       5.169   5.190  19.172  0.00  0.00    +0.000 Br
ENDBRANCH   2   5
BRANCH   1  14
ATOM     12  O   UNL     1      -0.659   8.014  21.724  0.00  0.00    +0.000 OA
ATOM     13  C   UNL     1       0.281   8.795  21.582  0.00  0.00    +0.000 C 
ATOM     14  N   UNL     1       1.556   8.375  21.252  0.00  0.00    +0.000 N 
ATOM     15  H   UNL     1       2.345   9.012  21.143  0.00  0.00    +0.000 HD
BRANCH  13  16
ATOM     16  C   UNL     1       0.099  10.255  21.759  0.00  0.00    +0.000 A 
ATOM     17  C   UNL     1      -0.627  10.717  22.848  0.00  0.00    +0.000 A 
ATOM     18  N   UNL     1      -0.846  12.039  23.069  0.00  0.00    +0.000 NA
ATOM     19  C   UNL     1      -0.307  12.871  22.150  0.00  0.00    +0.000 A 
ATOM     20  C   UNL     1       0.422  12.409  21.062  0.00  0.00    +0.000 A 
ATOM     21  N   UNL     1       0.649  11.093  20.835  0.00  0.00    +0.000 NA
ENDBRANCH  13  16
ENDBRANCH   1  14
TORSDOF 3
ENDMDL
MODEL 4
REMARK VINA RESULT:      -6.7      1.364      1.605
REMARK  Name = 
REMARK  3 active torsions:
REMARK  status: ('A' for Active; 'I' for Inactive)
REMARK    1  A    between atoms: C_2  and  C_14
REMARK    2  A    between atoms: N_3  and  N_4
REMARK    3  A    between atoms: C_5  and  C_7
REMARK                            x       y       z     vdW  Elec       q    Type
REMARK                         _______ _______ _______ _____ _____    ______ ____
ROOT
ATOM      1  N   UNL     1       4.669   3.474  17.555  0.00  0.00    +0.000 N 
ATOM      2  C   UNL     1       3.313   3.276  17.674  0.00  0.00    +0.000 C 
ATOM      3  O   UNL     1       2.592   3.008  16.717  0.00  0.00    +0.000 OA
ATOM      4  H   UNL     1       5.261   3.749  18.339  0.00  0.00    +0.000 HD
ENDROOT
BRANCH   2   5
ATOM      5  C   UNL     1       2.755   3.323  19.061  0.00  0.00    +0.000 A 
ATOM      6  C   UNL     1       1.620   4.137  19.234  0.00  0.00    +0.000 A 
ATOM      7  C   UNL     1       0.978   4.223  20.473  0.00  0.00    +0.000 A 
ATOM      8  C   UNL     1       1.463   3.500  21.557  0.00  0.00    +0.000 A 
ATOM      9  C   UNL     1       2.598   2.704  21.407  0.00  0.00    +0.000 A 
ATOM     10  C   UNL     1       3.253   2.620  20.170  0.00  0.00    +0.000 A 
ATOM     11 BR   UNL     1       4.840   1.572  20.158  0.00  0.00    +0.000 Br
ENDBRANCH   2   5
BRANCH   1  14
ATOM     12  O   UNL     1       5.556   5.734  16.390  0.00  0.00    +0.000 OA
ATOM     13  C   UNL     1       5.711   4.669  15.794  0.00  0.00    +0.000 C 
ATOM     14  N   UNL     1       5.284   3.459  16.306  0.00  0.00    +0.000 N 
ATOM     15  H   UNL     1       5.418   2.568  15.826  0.00  0.00    +0.000 HD
BRANCH  13  16
ATOM     16  C   UNL     1       6.377   4.621  14.470  0.00  0.00    +0.000 A 
ATOM     17  C   UNL     1       5.901   3.742  13.508  0.00  0.00    +0.000 A 
ATOM     18  N   UNL     1       6.468   3.634  12.278  0.00  0.00    +0.000 NA
ATOM     19  C   UNL     1       7.529   4.443  12.062  0.00  0.00    +0.000 A 
ATOM     20  C   UNL     1       8.002   5.325  13.024  0.00  0.00    +0.000 A 
ATOM     21  N   UNL     1       7.442   5.443  14.252  0.00  0.00    +0.000 NA
ENDBRANCH  13  16
ENDBRANCH   1  14
TORSDOF 3
ENDMDL
MODEL 5
REMARK VINA RESULT:      -6.7      5.799      8.643
REMARK  Name = 
REMARK  3 active torsions:
REMARK  status: ('A' for Active; 'I' for Inactive)
REMARK    1  A    between atoms: C_2  and  C_14
REMARK    2  A    between atoms: N_3  and  N_4
REMARK    3  A    between atoms: C_5  and  C_7
REMARK                            x       y       z     vdW  Elec       q    Type
REMARK                         _______ _______ _______ _____ _____    ______ ____
ROOT
ATOM      1  N   UNL     1       1.683   7.070  21.186  0.00  0.00    +0.000 N 
ATOM      2  C   UNL     1       2.075   6.538  19.980  0.00  0.00    +0.000 C 
ATOM      3  O   UNL     1       2.337   7.230  18.999  0.00  0.00    +0.000 OA
ATOM      4  H   UNL     1       1.413   6.497  21.985  0.00  0.00    +0.000 HD
ENDROOT
BRANCH   2   5
ATOM      5  C   UNL     1       2.251   5.054  19.935  0.00  0.00    +0.000 A 
ATOM      6  C   UNL     1       1.127   4.295  20.310  0.00  0.00    +0.000 A 
ATOM      7  C   UNL     1       1.152   2.898  20.260  0.00  0.00    +0.000 A 
ATOM      8  C   UNL     1       2.302   2.239  19.842  0.00  0.00    +0.000 A 
ATOM      9  C   UNL     1       3.432   2.976  19.487  0.00  0.00    +0.000 A 
ATOM     10  C   UNL     1       3.418   4.378  19.542  0.00  0.00    +0.000 A 
ATOM     11 BR   UNL     1       5.067   5.228  19.122  0.00  0.00    +0.000 Br
ENDBRANCH   2   5
BRANCH   1  14
ATOM     12  O   UNL     1      -0.734   8.088  21.796  0.00  0.00    +0.000 OA
ATOM     13  C   UNL     1       0.207   8.866  21.649  0.00  0.00    +0.000 C 
ATOM     14  N   UNL     1       1.482   8.441  21.328  0.00  0.00    +0.000 N 
ATOM     15  H   UNL     1       2.273   9.076  21.215  0.00  0.00    +0.000 HD
BRANCH  13  16
ATOM     16  C   UNL     1       0.027  10.329  21.810  0.00  0.00    +0.000 A 
ATOM     17  C   UNL     1       0.877  11.192  21.134  0.00  0.00    +0.000 A 
ATOM     18  N   UNL     1       0.779  12.542  21.243  0.00  0.00    +0.000 NA
ATOM     19  C   UNL     1      -0.204  12.983  22.059  0.00  0.00    +0.000 A 
ATOM     20  C   UNL     1      -1.057  12.119  22.733  0.00  0.00    +0.000 A 
ATOM     21  N   UNL     1      -0.970  10.771  22.628  0.00  0.00    +0.000 NA
ENDBRANCH  13  16
ENDBRANCH   1  14
TORSDOF 3
ENDMDL
MODEL 6
REMARK VINA RESULT:      -6.5      5.477      8.653
REMARK  Name = 
REMARK  3 active torsions:
REMARK  status: ('A' for Active; 'I' for Inactive)
REMARK    1  A    between atoms: C_2  and  C_14
REMARK    2  A    between atoms: N_3  and  N_4
REMARK    3  A    between atoms: C_5  and  C_7
REMARK                            x       y       z     vdW  Elec       q    Type
REMARK                         _______ _______ _______ _____ _____    ______ ____
ROOT
ATOM      1  N   UNL     1       2.230   7.508  19.452  0.00  0.00    +0.000 N 
ATOM      2  C   UNL     1       2.408   6.154  19.614  0.00  0.00    +0.000 C 
ATOM      3  O   UNL     1       1.941   5.528  20.561  0.00  0.00    +0.000 OA
ATOM      4  H   UNL     1       2.661   8.039  18.696  0.00  0.00    +0.000 HD
ENDROOT
BRANCH   2   5
ATOM      5  C   UNL     1       3.143   5.446  18.521  0.00  0.00    +0.000 A 
ATOM      6  C   UNL     1       4.247   6.134  17.984  0.00  0.00    +0.000 A 
ATOM      7  C   UNL     1       5.044   5.555  16.992  0.00  0.00    +0.000 A 
ATOM      8  C   UNL     1       4.746   4.282  16.519  0.00  0.00    +0.000 A 
ATOM      9  C   UNL     1       3.644   3.595  17.025  0.00  0.00    +0.000 A 
ATOM     10  C   UNL     1       2.834   4.173  18.015  0.00  0.00    +0.000 A 
ATOM     11 BR   UNL     1       1.315   3.149  18.527  0.00  0.00    +0.000 Br
ENDBRANCH   2   5
BRANCH   1  14
ATOM     12  O   UNL     1       0.708   9.629  18.792  0.00  0.00    +0.000 OA
ATOM     13  C   UNL     1       0.803   9.325  19.980  0.00  0.00    +0.000 C 
ATOM     14  N   UNL     1       1.565   8.259  20.419  0.00  0.00    +0.000 N 
ATOM     15  H   UNL     1       1.642   7.991  21.400  0.00  0.00    +0.000 HD
BRANCH  13  16
ATOM     16  C   UNL     1       0.094  10.098  21.028  0.00  0.00    +0.000 A 
ATOM     17  C   UNL     1       0.258   9.737  22.358  0.00  0.00    +0.000 A 
ATOM     18  N   UNL     1      -0.369  10.390  23.371  0.00  0.00    +0.000 NA
ATOM     19  C   UNL     1      -1.165  11.413  22.989  0.00  0.00    +0.000 A 
ATOM     20  C   UNL     1      -1.325  11.776  21.658  0.00  0.00    +0.000 A 
ATOM     21  N   UNL     1      -0.701  11.134  20.641  0.00  0.00    +0.000 NA
ENDBRANCH  13  16
ENDBRANCH   1  14
TORSDOF 3
ENDMDL
MODEL 7
REMARK VINA RESULT:      -6.5      4.473      7.794
REMARK  Name = 
REMARK  3 active torsions:
REMARK  status: ('A' for Active; 'I' for Inactive)
REMARK    1  A    between atoms: C_2  and  C_14
REMARK    2  A    between atoms: N_3  and  N_4
REMARK    3  A    between atoms: C_5  and  C_7
REMARK                            x       y       z     vdW  Elec       q    Type
REMARK                         _______ _______ _______ _____ _____    ______ ____
ROOT
ATOM      1  N   UNL     1       3.459   6.861  17.861  0.00  0.00    +0.000 N 
ATOM      2  C   UNL     1       4.407   5.934  18.224  0.00  0.00    +0.000 C 
ATOM      3  O   UNL     1       4.533   5.523  19.374  0.00  0.00    +0.000 OA
ATOM      4  H   UNL     1       3.386   7.243  16.918  0.00  0.00    +0.000 HD
ENDROOT
BRANCH   2   5
ATOM      5  C   UNL     1       5.244   5.374  17.118  0.00  0.00    +0.000 A 
ATOM      6  C   UNL     1       4.691   4.279  16.429  0.00  0.00    +0.000 A 
ATOM      7  C   UNL     1       5.356   3.701  15.343  0.00  0.00    +0.000 A 
ATOM      8  C   UNL     1       6.585   4.205  14.934  0.00  0.00    +0.000 A 
ATOM      9  C   UNL     1       7.157   5.277  15.619  0.00  0.00    +0.000 A 
ATOM     10  C   UNL     1       6.500   5.857  16.715  0.00  0.00    +0.000 A 
ATOM     11 BR   UNL     1       7.458   7.242  17.599  0.00  0.00    +0.000 Br
ENDBRANCH   2   5
BRANCH   1  14
ATOM     12  O   UNL     1       2.166   9.174  17.383  0.00  0.00    +0.000 OA
ATOM     13  C   UNL     1       2.009   8.632  18.476  0.00  0.00    +0.000 C 
ATOM     14  N   UNL     1       2.635   7.448  18.818  0.00  0.00    +0.000 N 
ATOM     15  H   UNL     1       2.503   6.984  19.717  0.00  0.00    +0.000 HD
BRANCH  13  16
ATOM     16  C   UNL     1       1.126   9.227  19.508  0.00  0.00    +0.000 A 
ATOM     17  C   UNL     1       1.139   8.701  20.792  0.00  0.00    +0.000 A 
ATOM     18  N   UNL     1       0.348   9.185  21.784  0.00  0.00    +0.000 NA
ATOM     19  C   UNL     1      -0.453  10.214  21.429  0.00  0.00    +0.000 A 
ATOM     20  C   UNL     1      -0.463  10.743  20.145  0.00  0.00    +0.000 A 
ATOM     21  N   UNL     1       0.324  10.269  19.149  0.00  0.00    +0.000 NA
ENDBRANCH  13  16
ENDBRANCH   1  14
TORSDOF 3
ENDMDL
MODEL 8
REMARK VINA RESULT:      -6.5      5.249      8.348
REMARK  Name = 
REMARK  3 active torsions:
REMARK  status: ('A' for Active; 'I' for Inactive)
REMARK    1  A    between atoms: C_2  and  C_14
REMARK    2  A    between atoms: N_3  and  N_4
REMARK    3  A    between atoms: C_5  and  C_7
REMARK                            x       y       z     vdW  Elec       q    Type
REMARK                         _______ _______ _______ _____ _____    ______ ____
ROOT
ATOM      1  N   UNL     1       2.352   6.639  20.359  0.00  0.00    +0.000 N 
ATOM      2  C   UNL     1       1.804   5.401  20.116  0.00  0.00    +0.000 C 
ATOM      3  O   UNL     1       0.670   5.092  20.473  0.00  0.00    +0.000 OA
ATOM      4  H   UNL     1       3.311   6.881  20.110  0.00  0.00    +0.000 HD
ENDROOT
BRANCH   2   5
ATOM      5  C   UNL     1       2.634   4.455  19.310  0.00  0.00    +0.000 A 
ATOM      6  C   UNL     1       2.948   4.878  18.005  0.00  0.00    +0.000 A 
ATOM      7  C   UNL     1       3.760   4.103  17.172  0.00  0.00    +0.000 A 
ATOM      8  C   UNL     1       4.267   2.891  17.629  0.00  0.00    +0.000 A 
ATOM      9  C   UNL     1       3.949   2.447  18.912  0.00  0.00    +0.000 A 
ATOM     10  C   UNL     1       3.127   3.216  19.751  0.00  0.00    +0.000 A 
ATOM     11 BR   UNL     1       2.709   2.425  21.430  0.00  0.00    +0.000 Br
ENDBRANCH   2   5
BRANCH   1  14
ATOM     12  O   UNL     1       1.409   8.902  19.244  0.00  0.00    +0.000 OA
ATOM     13  C   UNL     1       1.211   8.715  20.444  0.00  0.00    +0.000 C 
ATOM     14  N   UNL     1       1.661   7.590  21.107  0.00  0.00    +0.000 N 
ATOM     15  H   UNL     1       1.492   7.418  22.099  0.00  0.00    +0.000 HD
BRANCH  13  16
ATOM     16  C   UNL     1       0.465   9.702  21.261  0.00  0.00    +0.000 A 
ATOM     17  C   UNL     1       0.358   9.501  22.630  0.00  0.00    +0.000 A 
ATOM     18  N   UNL     1      -0.319  10.355  23.439  0.00  0.00    +0.000 NA
ATOM     19  C   UNL     1      -0.883  11.413  22.815  0.00  0.00    +0.000 A 
ATOM     20  C   UNL     1      -0.773  11.616  21.445  0.00  0.00    +0.000 A 
ATOM     21  N   UNL     1      -0.096  10.772  20.630  0.00  0.00    +0.000 NA
ENDBRANCH  13  16
ENDBRANCH   1  14
TORSDOF 3
ENDMDL
MODEL 9
REMARK VINA RESULT:      -6.5      4.436      7.776
REMARK  Name = 
REMARK  3 active torsions:
REMARK  status: ('A' for Active; 'I' for Inactive)
REMARK    1  A    between atoms: C_2  and  C_14
REMARK    2  A    between atoms: N_3  and  N_4
REMARK    3  A    between atoms: C_5  and  C_7
REMARK                            x       y       z     vdW  Elec       q    Type
REMARK                         _______ _______ _______ _____ _____    ______ ____
ROOT
ATOM      1  N   UNL     1       3.412   6.739  17.844  0.00  0.00    +0.000 N 
ATOM      2  C   UNL     1       4.424   5.882  18.209  0.00  0.00    +0.000 C 
ATOM      3  O   UNL     1       4.614   5.531  19.370  0.00  0.00    +0.000 OA
ATOM      4  H   UNL     1       3.284   7.074  16.889  0.00  0.00    +0.000 HD
ENDROOT
BRANCH   2   5
ATOM      5  C   UNL     1       5.251   5.321  17.097  0.00  0.00    +0.000 A 
ATOM      6  C   UNL     1       4.691   4.224  16.414  0.00  0.00    +0.000 A 
ATOM      7  C   UNL     1       5.347   3.644  15.324  0.00  0.00    +0.000 A 
ATOM      8  C   UNL     1       6.572   4.148  14.903  0.00  0.00    +0.000 A 
ATOM      9  C   UNL     1       7.151   5.220  15.582  0.00  0.00    +0.000 A 
ATOM     10  C   UNL     1       6.504   5.802  16.682  0.00  0.00    +0.000 A 
ATOM     11 BR   UNL     1       7.470   7.188  17.557  0.00  0.00    +0.000 Br
ENDBRANCH   2   5
BRANCH   1  14
ATOM     12  O   UNL     1       2.233   9.125  17.434  0.00  0.00    +0.000 OA
ATOM     13  C   UNL     1       2.026   8.546  18.500  0.00  0.00    +0.000 C 
ATOM     14  N   UNL     1       2.590   7.322  18.806  0.00  0.00    +0.000 N 
ATOM     15  H   UNL     1       2.416   6.827  19.680  0.00  0.00    +0.000 HD
BRANCH  13  16
ATOM     16  C   UNL     1       1.143   9.136  19.535  0.00  0.00    +0.000 A 
ATOM     17  C   UNL     1       0.278  10.160  19.179  0.00  0.00    +0.000 A 
ATOM     18  N   UNL     1      -0.550  10.757  20.075  0.00  0.00    +0.000 NA
ATOM     19  C   UNL     1      -0.468  10.282  21.338  0.00  0.00    +0.000 A 
ATOM     20  C   UNL     1       0.396   9.254  21.693  0.00  0.00    +0.000 A 
ATOM     21  N   UNL     1       1.223   8.650  20.806  0.00  0.00    +0.000 NA
ENDBRANCH  13  16
ENDBRANCH   1  14
TORSDOF 3
ENDMDL
