MODEL 1
REMARK VINA RESULT:      -8.4      0.000      0.000
REMARK  Name = 
REMARK  5 active torsions:
REMARK  status: ('A' for Active; 'I' for Inactive)
REMARK    1  A    between atoms: C_1  and  C_2
REMARK    2  A    between atoms: C_5  and  C_6
REMARK    3  A    between atoms: C_9  and  C_10
REMARK    4  A    between atoms: C_10  and  N_11
REMARK    5  A    between atoms: N_11  and  C_12
REMARK                            x       y       z     vdW  Elec       q    Type
REMARK                         _______ _______ _______ _____ _____    ______ ____
ROOT
ATOM      1  C   UNL     1       2.216   5.987  19.474  0.00  0.00    +0.000 C 
ATOM      2  N   UNL     1       3.115   5.427  18.711  0.00  0.00    +0.000 NA
ATOM      3  N   UNL     1       3.428   4.123  18.972  0.00  0.00    +0.000 N 
ATOM      4  C   UNL     1       4.138   3.274  18.155  0.00  0.00    +0.000 A 
ATOM      5  N   UNL     1       4.310   2.111  18.758  0.00  0.00    +0.000 NA
ATOM      6  N   UNL     1       3.708   2.181  19.994  0.00  0.00    +0.000 NA
ATOM      7  C   UNL     1       3.186   3.377  20.099  0.00  0.00    +0.000 A 
ATOM      8  S   UNL     1       2.317   4.040  21.427  0.00  0.00    +0.000 S 
ATOM      9  C   UNL     1       1.352   5.244  20.488  0.00  0.00    +0.000 C 
ENDROOT
BRANCH   1  14
ATOM     10  C   UNL     1       1.087  11.651  18.830  0.00  0.00    +0.000 C 
ATOM     11  C   UNL     1       1.401  10.192  18.984  0.00  0.00    +0.000 A 
ATOM     12  C   UNL     1       1.954   9.460  17.928  0.00  0.00    +0.000 A 
ATOM     13  C   UNL     1       2.238   8.099  18.077  0.00  0.00    +0.000 A 
ATOM     14  C   UNL     1       1.959   7.451  19.284  0.00  0.00    +0.000 A 
ATOM     15  C   UNL     1       1.423   8.186  20.350  0.00  0.00    +0.000 A 
ATOM     16  C   UNL     1       1.144   9.546  20.198  0.00  0.00    +0.000 A 
ENDBRANCH   1  14
BRANCH   4  17
ATOM     17  C   UNL     1       4.554   3.640  16.777  0.00  0.00    +0.000 C 
BRANCH  17  18
ATOM     18  N   UNL     1       5.989   3.847  16.598  0.00  0.00    +0.000 N 
ATOM     19  H   UNL     1       6.282   3.746  15.629  0.00  0.00    +0.000 HD
BRANCH  18  20
ATOM     20  C   UNL     1       6.618   4.920  17.234  0.00  0.00    +0.000 A 
ATOM     21  C   UNL     1       7.447   4.780  18.358  0.00  0.00    +0.000 A 
ATOM     22  C   UNL     1       8.105   5.881  18.914  0.00  0.00    +0.000 A 
ATOM     23  C   UNL     1       7.969   7.129  18.323  0.00  0.00    +0.000 A 
ATOM     24  F   UNL     1       8.607   8.182  18.849  0.00  0.00    +0.000 F 
ATOM     25  C   UNL     1       7.189   7.292  17.189  0.00  0.00    +0.000 A 
ATOM     26  C   UNL     1       6.524   6.191  16.645  0.00  0.00    +0.000 A 
ENDBRANCH  18  20
ENDBRANCH  17  18
ENDBRANCH   4  17
TORSDOF 4
ENDMDL
MODEL 2
REMARK VINA RESULT:      -8.3      0.094      1.366
REMARK  Name = 
REMARK  5 active torsions:
REMARK  status: ('A' for Active; 'I' for Inactive)
REMARK    1  A    between atoms: C_1  and  C_2
REMARK    2  A    between atoms: C_5  and  C_6
REMARK    3  A    between atoms: C_9  and  C_10
REMARK    4  A    between atoms: C_10  and  N_11
REMARK    5  A    between atoms: N_11  and  C_12
REMARK                            x       y       z     vdW  Elec       q    Type
REMARK                         _______ _______ _______ _____ _____    ______ ____
ROOT
ATOM      1  C   UNL     1       2.189   5.955  19.502  0.00  0.00    +0.000 C 
ATOM      2  N   UNL     1       3.084   5.414  18.722  0.00  0.00    +0.000 NA
ATOM      3  N   UNL     1       3.415   4.111  18.966  0.00  0.00    +0.000 N 
ATOM      4  C   UNL     1       4.124   3.278  18.130  0.00  0.00    +0.000 A 
ATOM      5  N   UNL     1       4.317   2.112  18.719  0.00  0.00    +0.000 NA
ATOM      6  N   UNL     1       3.731   2.162  19.963  0.00  0.00    +0.000 NA
ATOM      7  C   UNL     1       3.196   3.350  20.087  0.00  0.00    +0.000 A 
ATOM      8  S   UNL     1       2.339   3.990  21.434  0.00  0.00    +0.000 S 
ATOM      9  C   UNL     1       1.347   5.192  20.520  0.00  0.00    +0.000 C 
ENDROOT
BRANCH   1  14
ATOM     10  C   UNL     1       1.251  11.641  18.750  0.00  0.00    +0.000 C 
ATOM     11  C   UNL     1       1.470  10.171  18.955  0.00  0.00    +0.000 A 
ATOM     12  C   UNL     1       1.152   9.560  20.173  0.00  0.00    +0.000 A 
ATOM     13  C   UNL     1       1.366   8.191  20.360  0.00  0.00    +0.000 A 
ATOM     14  C   UNL     1       1.913   7.418  19.332  0.00  0.00    +0.000 A 
ATOM     15  C   UNL     1       2.215   8.023  18.105  0.00  0.00    +0.000 A 
ATOM     16  C   UNL     1       1.997   9.391  17.920  0.00  0.00    +0.000 A 
ENDBRANCH   1  14
BRANCH   4  17
ATOM     17  C   UNL     1       4.516   3.663  16.750  0.00  0.00    +0.000 C 
BRANCH  17  18
ATOM     18  N   UNL     1       5.956   3.790  16.530  0.00  0.00    +0.000 N 
ATOM     19  H   UNL     1       6.224   3.591  15.569  0.00  0.00    +0.000 HD
BRANCH  18  20
ATOM     20  C   UNL     1       6.641   4.888  17.057  0.00  0.00    +0.000 A 
ATOM     21  C   UNL     1       6.474   6.203  16.597  0.00  0.00    +0.000 A 
ATOM     22  C   UNL     1       7.134   7.273  17.206  0.00  0.00    +0.000 A 
ATOM     23  C   UNL     1       7.942   7.039  18.310  0.00  0.00    +0.000 A 
ATOM     24  F   UNL     1       8.567   8.065  18.900  0.00  0.00    +0.000 F 
ATOM     25  C   UNL     1       8.096   5.756  18.813  0.00  0.00    +0.000 A 
ATOM     26  C   UNL     1       7.442   4.690  18.193  0.00  0.00    +0.000 A 
ENDBRANCH  18  20
ENDBRANCH  17  18
ENDBRANCH   4  17
TORSDOF 4
ENDMDL
MODEL 3
REMARK VINA RESULT:      -7.8      0.855      1.318
REMARK  Name = 
REMARK  5 active torsions:
REMARK  status: ('A' for Active; 'I' for Inactive)
REMARK    1  A    between atoms: C_1  and  C_2
REMARK    2  A    between atoms: C_5  and  C_6
REMARK    3  A    between atoms: C_9  and  C_10
REMARK    4  A    between atoms: C_10  and  N_11
REMARK    5  A    between atoms: N_11  and  C_12
REMARK                            x       y       z     vdW  Elec       q    Type
REMARK                         _______ _______ _______ _____ _____    ______ ____
ROOT
ATOM      1  C   UNL     1       2.309   5.798  19.704  0.00  0.00    +0.000 C 
ATOM      2  N   UNL     1       3.450   5.350  19.255  0.00  0.00    +0.000 NA
ATOM      3  N   UNL     1       3.785   4.067  19.582  0.00  0.00    +0.000 N 
ATOM      4  C   UNL     1       4.791   3.317  19.017  0.00  0.00    +0.000 A 
ATOM      5  N   UNL     1       4.874   2.147  19.625  0.00  0.00    +0.000 NA
ATOM      6  N   UNL     1       3.911   2.111  20.608  0.00  0.00    +0.000 NA
ATOM      7  C   UNL     1       3.273   3.253  20.561  0.00  0.00    +0.000 A 
ATOM      8  S   UNL     1       1.975   3.781  21.558  0.00  0.00    +0.000 S 
ATOM      9  C   UNL     1       1.244   4.941  20.382  0.00  0.00    +0.000 C 
ENDROOT
BRANCH   1  14
ATOM     10  C   UNL     1       0.934  11.383  18.874  0.00  0.00    +0.000 C 
ATOM     11  C   UNL     1       1.311   9.945  19.076  0.00  0.00    +0.000 A 
ATOM     12  C   UNL     1       1.901   9.205  18.046  0.00  0.00    +0.000 A 
ATOM     13  C   UNL     1       2.244   7.863  18.240  0.00  0.00    +0.000 A 
ATOM     14  C   UNL     1       1.988   7.242  19.467  0.00  0.00    +0.000 A 
ATOM     15  C   UNL     1       1.414   7.987  20.506  0.00  0.00    +0.000 A 
ATOM     16  C   UNL     1       1.076   9.328  20.310  0.00  0.00    +0.000 A 
ENDBRANCH   1  14
BRANCH   4  17
ATOM     17  C   UNL     1       5.581   3.778  17.846  0.00  0.00    +0.000 C 
BRANCH  17  18
ATOM     18  N   UNL     1       6.922   4.268  18.159  0.00  0.00    +0.000 N 
ATOM     19  H   UNL     1       7.655   3.659  17.800  0.00  0.00    +0.000 HD
BRANCH  18  20
ATOM     20  C   UNL     1       7.222   5.621  17.985  0.00  0.00    +0.000 A 
ATOM     21  C   UNL     1       6.572   6.448  17.057  0.00  0.00    +0.000 A 
ATOM     22  C   UNL     1       6.864   7.812  16.973  0.00  0.00    +0.000 A 
ATOM     23  C   UNL     1       7.787   8.369  17.847  0.00  0.00    +0.000 A 
ATOM     24  F   UNL     1       8.060   9.678  17.773  0.00  0.00    +0.000 F 
ATOM     25  C   UNL     1       8.417   7.586  18.802  0.00  0.00    +0.000 A 
ATOM     26  C   UNL     1       8.128   6.221  18.874  0.00  0.00    +0.000 A 
ENDBRANCH  18  20
ENDBRANCH  17  18
ENDBRANCH   4  17
TORSDOF 4
ENDMDL
MODEL 4
REMARK VINA RESULT:      -7.7      2.133      2.619
REMARK  Name = 
REMARK  5 active torsions:
REMARK  status: ('A' for Active; 'I' for Inactive)
REMARK    1  A    between atoms: C_1  and  C_2
REMARK    2  A    between atoms: C_5  and  C_6
REMARK    3  A    between atoms: C_9  and  C_10
REMARK    4  A    between atoms: C_10  and  N_11
REMARK    5  A    between atoms: N_11  and  C_12
REMARK                            x       y       z     vdW  Elec       q    Type
REMARK                         _______ _______ _______ _____ _____    ______ ____
ROOT
ATOM      1  C   UNL     1       2.523   6.547  18.751  0.00  0.00    +0.000 C 
ATOM      2  N   UNL     1       3.725   6.287  19.189  0.00  0.00    +0.000 NA
ATOM      3  N   UNL     1       4.116   4.978  19.195  0.00  0.00    +0.000 N 
ATOM      4  C   UNL     1       5.398   4.509  19.364  0.00  0.00    +0.000 A 
ATOM      5  N   UNL     1       5.394   3.189  19.382  0.00  0.00    +0.000 NA
ATOM      6  N   UNL     1       4.093   2.766  19.222  0.00  0.00    +0.000 NA
ATOM      7  C   UNL     1       3.354   3.840  19.105  0.00  0.00    +0.000 A 
ATOM      8  S   UNL     1       1.649   3.933  18.894  0.00  0.00    +0.000 S 
ATOM      9  C   UNL     1       1.612   5.536  18.062  0.00  0.00    +0.000 C 
ENDROOT
BRANCH   1  14
ATOM     10  C   UNL     1       0.499  11.970  19.268  0.00  0.00    +0.000 C 
ATOM     11  C   UNL     1       1.043  10.579  19.124  0.00  0.00    +0.000 A 
ATOM     12  C   UNL     1       1.673  10.172  17.943  0.00  0.00    +0.000 A 
ATOM     13  C   UNL     1       2.171   8.872  17.813  0.00  0.00    +0.000 A 
ATOM     14  C   UNL     1       2.034   7.958  18.862  0.00  0.00    +0.000 A 
ATOM     15  C   UNL     1       1.420   8.369  20.053  0.00  0.00    +0.000 A 
ATOM     16  C   UNL     1       0.926   9.669  20.181  0.00  0.00    +0.000 A 
ENDBRANCH   1  14
BRANCH   4  17
ATOM     17  C   UNL     1       6.582   5.404  19.430  0.00  0.00    +0.000 C 
BRANCH  17  18
ATOM     18  N   UNL     1       6.823   6.202  18.230  0.00  0.00    +0.000 N 
ATOM     19  H   UNL     1       7.712   6.696  18.259  0.00  0.00    +0.000 HD
BRANCH  18  20
ATOM     20  C   UNL     1       6.560   5.654  16.971  0.00  0.00    +0.000 A 
ATOM     21  C   UNL     1       7.166   4.483  16.492  0.00  0.00    +0.000 A 
ATOM     22  C   UNL     1       6.815   3.942  15.252  0.00  0.00    +0.000 A 
ATOM     23  C   UNL     1       5.823   4.550  14.496  0.00  0.00    +0.000 A 
ATOM     24  F   UNL     1       5.479   4.026  13.313  0.00  0.00    +0.000 F 
ATOM     25  C   UNL     1       5.177   5.686  14.961  0.00  0.00    +0.000 A 
ATOM     26  C   UNL     1       5.540   6.228  16.196  0.00  0.00    +0.000 A 
ENDBRANCH  18  20
ENDBRANCH  17  18
ENDBRANCH   4  17
TORSDOF 4
ENDMDL
MODEL 5
REMARK VINA RESULT:      -7.6      2.219      2.796
REMARK  Name = 
REMARK  5 active torsions:
REMARK  status: ('A' for Active; 'I' for Inactive)
REMARK    1  A    between atoms: C_1  and  C_2
REMARK    2  A    between atoms: C_5  and  C_6
REMARK    3  A    between atoms: C_9  and  C_10
REMARK    4  A    between atoms: C_10  and  N_11
REMARK    5  A    between atoms: N_11  and  C_12
REMARK                            x       y       z     vdW  Elec       q    Type
REMARK                         _______ _______ _______ _____ _____    ______ ____
ROOT
ATOM      1  C   UNL     1       2.198   5.886  19.971  0.00  0.00    +0.000 C 
ATOM      2  N   UNL     1       3.432   5.611  19.648  0.00  0.00    +0.000 NA
ATOM      3  N   UNL     1       3.835   4.312  19.780  0.00  0.00    +0.000 N 
ATOM      4  C   UNL     1       4.984   3.758  19.265  0.00  0.00    +0.000 A 
ATOM      5  N   UNL     1       5.083   2.497  19.647  0.00  0.00    +0.000 NA
ATOM      6  N   UNL     1       3.988   2.202  20.427  0.00  0.00    +0.000 NA
ATOM      7  C   UNL     1       3.258   3.287  20.487  0.00  0.00    +0.000 A 
ATOM      8  S   UNL     1       1.776   3.520  21.328  0.00  0.00    +0.000 S 
ATOM      9  C   UNL     1       1.129   4.844  20.284  0.00  0.00    +0.000 C 
ENDROOT
BRANCH   1  14
ATOM     10  C   UNL     1       0.452  11.429  20.010  0.00  0.00    +0.000 C 
ATOM     11  C   UNL     1       0.925  10.005  19.989  0.00  0.00    +0.000 A 
ATOM     12  C   UNL     1       1.531   9.466  18.849  0.00  0.00    +0.000 A 
ATOM     13  C   UNL     1       1.963   8.136  18.834  0.00  0.00    +0.000 A 
ATOM     14  C   UNL     1       1.781   7.325  19.958  0.00  0.00    +0.000 A 
ATOM     15  C   UNL     1       1.191   7.867  21.107  0.00  0.00    +0.000 A 
ATOM     16  C   UNL     1       0.764   9.198  21.120  0.00  0.00    +0.000 A 
ENDBRANCH   1  14
BRANCH   4  17
ATOM     17  C   UNL     1       5.898   4.494  18.354  0.00  0.00    +0.000 C 
BRANCH  17  18
ATOM     18  N   UNL     1       5.259   5.080  17.178  0.00  0.00    +0.000 N 
ATOM     19  H   UNL     1       5.070   6.074  17.289  0.00  0.00    +0.000 HD
BRANCH  18  20
ATOM     20  C   UNL     1       5.738   4.769  15.903  0.00  0.00    +0.000 A 
ATOM     21  C   UNL     1       4.983   4.094  14.932  0.00  0.00    +0.000 A 
ATOM     22  C   UNL     1       5.488   3.869  13.648  0.00  0.00    +0.000 A 
ATOM     23  C   UNL     1       6.745   4.354  13.314  0.00  0.00    +0.000 A 
ATOM     24  F   UNL     1       7.225   4.148  12.081  0.00  0.00    +0.000 F 
ATOM     25  C   UNL     1       7.499   5.060  14.239  0.00  0.00    +0.000 A 
ATOM     26  C   UNL     1       6.993   5.272  15.523  0.00  0.00    +0.000 A 
ENDBRANCH  18  20
ENDBRANCH  17  18
ENDBRANCH   4  17
TORSDOF 4
ENDMDL
MODEL 6
REMARK VINA RESULT:      -7.6      2.807      3.519
REMARK  Name = 
REMARK  5 active torsions:
REMARK  status: ('A' for Active; 'I' for Inactive)
REMARK    1  A    between atoms: C_1  and  C_2
REMARK    2  A    between atoms: C_5  and  C_6
REMARK    3  A    between atoms: C_9  and  C_10
REMARK    4  A    between atoms: C_10  and  N_11
REMARK    5  A    between atoms: N_11  and  C_12
REMARK                            x       y       z     vdW  Elec       q    Type
REMARK                         _______ _______ _______ _____ _____    ______ ____
ROOT
ATOM      1  C   UNL     1       2.817   6.645  18.962  0.00  0.00    +0.000 C 
ATOM      2  N   UNL     1       4.024   6.731  18.470  0.00  0.00    +0.000 NA
ATOM      3  N   UNL     1       4.800   5.609  18.527  0.00  0.00    +0.000 N 
ATOM      4  C   UNL     1       5.981   5.398  17.853  0.00  0.00    +0.000 A 
ATOM      5  N   UNL     1       6.492   4.230  18.199  0.00  0.00    +0.000 NA
ATOM      6  N   UNL     1       5.644   3.651  19.116  0.00  0.00    +0.000 NA
ATOM      7  C   UNL     1       4.646   4.479  19.291  0.00  0.00    +0.000 A 
ATOM      8  S   UNL     1       3.287   4.294  20.328  0.00  0.00    +0.000 S 
ATOM      9  C   UNL     1       2.149   5.346  19.401  0.00  0.00    +0.000 C 
ENDROOT
BRANCH   1  14
ATOM     10  C   UNL     1      -0.442  11.443  19.317  0.00  0.00    +0.000 C 
ATOM     11  C   UNL     1       0.417  10.217  19.211  0.00  0.00    +0.000 A 
ATOM     12  C   UNL     1       0.998   9.850  17.993  0.00  0.00    +0.000 A 
ATOM     13  C   UNL     1       1.791   8.702  17.900  0.00  0.00    +0.000 A 
ATOM     14  C   UNL     1       2.003   7.900  19.026  0.00  0.00    +0.000 A 
ATOM     15  C   UNL     1       1.437   8.276  20.252  0.00  0.00    +0.000 A 
ATOM     16  C   UNL     1       0.648   9.426  20.342  0.00  0.00    +0.000 A 
ENDBRANCH   1  14
BRANCH   4  17
ATOM     17  C   UNL     1       6.511   6.344  16.838  0.00  0.00    +0.000 C 
BRANCH  17  18
ATOM     18  N   UNL     1       7.426   5.754  15.862  0.00  0.00    +0.000 N 
ATOM     19  H   UNL     1       8.236   5.318  16.298  0.00  0.00    +0.000 HD
BRANCH  18  20
ATOM     20  C   UNL     1       6.916   4.994  14.807  0.00  0.00    +0.000 A 
ATOM     21  C   UNL     1       5.660   4.369  14.836  0.00  0.00    +0.000 A 
ATOM     22  C   UNL     1       5.169   3.676  13.725  0.00  0.00    +0.000 A 
ATOM     23  C   UNL     1       5.919   3.637  12.559  0.00  0.00    +0.000 A 
ATOM     24  F   UNL     1       5.445   2.983  11.491  0.00  0.00    +0.000 F 
ATOM     25  C   UNL     1       7.146   4.279  12.485  0.00  0.00    +0.000 A 
ATOM     26  C   UNL     1       7.635   4.960  13.602  0.00  0.00    +0.000 A 
ENDBRANCH  18  20
ENDBRANCH  17  18
ENDBRANCH   4  17
TORSDOF 4
ENDMDL
MODEL 7
REMARK VINA RESULT:      -7.6      2.337      3.076
REMARK  Name = 
REMARK  5 active torsions:
REMARK  status: ('A' for Active; 'I' for Inactive)
REMARK    1  A    between atoms: C_1  and  C_2
REMARK    2  A    between atoms: C_5  and  C_6
REMARK    3  A    between atoms: C_9  and  C_10
REMARK    4  A    between atoms: C_10  and  N_11
REMARK    5  A    between atoms: N_11  and  C_12
REMARK                            x       y       z     vdW  Elec       q    Type
REMARK                         _______ _______ _______ _____ _____    ______ ____
ROOT
ATOM      1  C   UNL     1       2.352   6.139  19.591  0.00  0.00    +0.000 C 
ATOM      2  N   UNL     1       3.551   5.806  19.198  0.00  0.00    +0.000 NA
ATOM      3  N   UNL     1       3.958   4.528  19.459  0.00  0.00    +0.000 N 
ATOM      4  C   UNL     1       5.053   3.893  18.920  0.00  0.00    +0.000 A 
ATOM      5  N   UNL     1       5.180   2.690  19.450  0.00  0.00    +0.000 NA
ATOM      6  N   UNL     1       4.158   2.515  20.355  0.00  0.00    +0.000 NA
ATOM      7  C   UNL     1       3.441   3.610  20.340  0.00  0.00    +0.000 A 
ATOM      8  S   UNL     1       2.042   3.973  21.272  0.00  0.00    +0.000 S 
ATOM      9  C   UNL     1       1.310   5.163  20.128  0.00  0.00    +0.000 C 
ENDROOT
BRANCH   1  14
ATOM     10  C   UNL     1       0.892  11.719  18.874  0.00  0.00    +0.000 C 
ATOM     11  C   UNL     1       1.247  10.274  19.071  0.00  0.00    +0.000 A 
ATOM     12  C   UNL     1       1.015   9.638  20.295  0.00  0.00    +0.000 A 
ATOM     13  C   UNL     1       1.355   8.293  20.474  0.00  0.00    +0.000 A 
ATOM     14  C   UNL     1       1.942   7.571  19.430  0.00  0.00    +0.000 A 
ATOM     15  C   UNL     1       2.158   8.201  18.197  0.00  0.00    +0.000 A 
ATOM     16  C   UNL     1       1.814   9.544  18.021  0.00  0.00    +0.000 A 
ENDBRANCH   1  14
BRANCH   4  17
ATOM     17  C   UNL     1       5.885   4.492  17.845  0.00  0.00    +0.000 C 
BRANCH  17  18
ATOM     18  N   UNL     1       5.157   4.860  16.632  0.00  0.00    +0.000 N 
ATOM     19  H   UNL     1       4.760   5.796  16.682  0.00  0.00    +0.000 HD
BRANCH  18  20
ATOM     20  C   UNL     1       5.714   4.585  15.381  0.00  0.00    +0.000 A 
ATOM     21  C   UNL     1       5.040   3.889  14.366  0.00  0.00    +0.000 A 
ATOM     22  C   UNL     1       5.620   3.701  13.108  0.00  0.00    +0.000 A 
ATOM     23  C   UNL     1       6.869   4.244  12.843  0.00  0.00    +0.000 A 
ATOM     24  F   UNL     1       7.421   4.073  11.635  0.00  0.00    +0.000 F 
ATOM     25  C   UNL     1       7.543   4.971  13.812  0.00  0.00    +0.000 A 
ATOM     26  C   UNL     1       6.963   5.146  15.071  0.00  0.00    +0.000 A 
ENDBRANCH  18  20
ENDBRANCH  17  18
ENDBRANCH   4  17
TORSDOF 4
ENDMDL
MODEL 8
REMARK VINA RESULT:      -7.6      2.833      3.695
REMARK  Name = 
REMARK  5 active torsions:
REMARK  status: ('A' for Active; 'I' for Inactive)
REMARK    1  A    between atoms: C_1  and  C_2
REMARK    2  A    between atoms: C_5  and  C_6
REMARK    3  A    between atoms: C_9  and  C_10
REMARK    4  A    between atoms: C_10  and  N_11
REMARK    5  A    between atoms: N_11  and  C_12
REMARK                            x       y       z     vdW  Elec       q    Type
REMARK                         _______ _______ _______ _____ _____    ______ ____
ROOT
ATOM      1  C   UNL     1       2.799   6.604  19.014  0.00  0.00    +0.000 C 
ATOM      2  N   UNL     1       3.983   6.685  18.472  0.00  0.00    +0.000 NA
ATOM      3  N   UNL     1       4.764   5.565  18.513  0.00  0.00    +0.000 N 
ATOM      4  C   UNL     1       5.916   5.346  17.794  0.00  0.00    +0.000 A 
ATOM      5  N   UNL     1       6.444   4.184  18.136  0.00  0.00    +0.000 NA
ATOM      6  N   UNL     1       5.637   3.617  19.096  0.00  0.00    +0.000 NA
ATOM      7  C   UNL     1       4.644   4.446  19.299  0.00  0.00    +0.000 A 
ATOM      8  S   UNL     1       3.330   4.274  20.395  0.00  0.00    +0.000 S 
ATOM      9  C   UNL     1       2.152   5.310  19.500  0.00  0.00    +0.000 C 
ENDROOT
BRANCH   1  14
ATOM     10  C   UNL     1      -0.260  11.541  19.218  0.00  0.00    +0.000 C 
ATOM     11  C   UNL     1       0.512  10.255  19.179  0.00  0.00    +0.000 A 
ATOM     12  C   UNL     1       0.664   9.473  20.329  0.00  0.00    +0.000 A 
ATOM     13  C   UNL     1       1.390   8.279  20.288  0.00  0.00    +0.000 A 
ATOM     14  C   UNL     1       1.984   7.859  19.094  0.00  0.00    +0.000 A 
ATOM     15  C   UNL     1       1.818   8.630  17.936  0.00  0.00    +0.000 A 
ATOM     16  C   UNL     1       1.088   9.821  17.981  0.00  0.00    +0.000 A 
ENDBRANCH   1  14
BRANCH   4  17
ATOM     17  C   UNL     1       6.402   6.277  16.743  0.00  0.00    +0.000 C 
BRANCH  17  18
ATOM     18  N   UNL     1       7.353   5.699  15.796  0.00  0.00    +0.000 N 
ATOM     19  H   UNL     1       8.098   5.180  16.257  0.00  0.00    +0.000 HD
BRANCH  18  20
ATOM     20  C   UNL     1       6.883   5.052  14.652  0.00  0.00    +0.000 A 
ATOM     21  C   UNL     1       7.630   4.918  13.471  0.00  0.00    +0.000 A 
ATOM     22  C   UNL     1       7.136   4.201  12.378  0.00  0.00    +0.000 A 
ATOM     23  C   UNL     1       5.901   3.576  12.473  0.00  0.00    +0.000 A 
ATOM     24  F   UNL     1       5.432   2.879  11.429  0.00  0.00    +0.000 F 
ATOM     25  C   UNL     1       5.156   3.655  13.639  0.00  0.00    +0.000 A 
ATOM     26  C   UNL     1       5.650   4.383  14.724  0.00  0.00    +0.000 A 
ENDBRANCH  18  20
ENDBRANCH  17  18
ENDBRANCH   4  17
TORSDOF 4
ENDMDL
MODEL 9
REMARK VINA RESULT:      -7.6      3.829      7.745
REMARK  Name = 
REMARK  5 active torsions:
REMARK  status: ('A' for Active; 'I' for Inactive)
REMARK    1  A    between atoms: C_1  and  C_2
REMARK    2  A    between atoms: C_5  and  C_6
REMARK    3  A    between atoms: C_9  and  C_10
REMARK    4  A    between atoms: C_10  and  N_11
REMARK    5  A    between atoms: N_11  and  C_12
REMARK                            x       y       z     vdW  Elec       q    Type
REMARK                         _______ _______ _______ _____ _____    ______ ____
ROOT
ATOM      1  C   UNL     1       3.581   6.012  18.501  0.00  0.00    +0.000 C 
ATOM      2  N   UNL     1       2.864   7.094  18.359  0.00  0.00    +0.000 NA
ATOM      3  N   UNL     1       2.109   7.485  19.429  0.00  0.00    +0.000 N 
ATOM      4  C   UNL     1       1.494   8.704  19.592  0.00  0.00    +0.000 A 
ATOM      5  N   UNL     1       0.794   8.707  20.712  0.00  0.00    +0.000 NA
ATOM      6  N   UNL     1       0.942   7.475  21.308  0.00  0.00    +0.000 NA
ATOM      7  C   UNL     1       1.730   6.769  20.537  0.00  0.00    +0.000 A 
ATOM      8  S   UNL     1       2.262   5.150  20.767  0.00  0.00    +0.000 S 
ATOM      9  C   UNL     1       3.796   5.279  19.822  0.00  0.00    +0.000 C 
ENDROOT
BRANCH   1  14
ATOM     10  C   UNL     1       6.342   4.140  13.742  0.00  0.00    +0.000 C 
ATOM     11  C   UNL     1       5.642   4.607  14.985  0.00  0.00    +0.000 A 
ATOM     12  C   UNL     1       5.146   3.690  15.918  0.00  0.00    +0.000 A 
ATOM     13  C   UNL     1       4.488   4.131  17.070  0.00  0.00    +0.000 A 
ATOM     14  C   UNL     1       4.309   5.499  17.297  0.00  0.00    +0.000 A 
ATOM     15  C   UNL     1       4.821   6.420  16.374  0.00  0.00    +0.000 A 
ATOM     16  C   UNL     1       5.480   5.976  15.225  0.00  0.00    +0.000 A 
ENDBRANCH   1  14
BRANCH   4  17
ATOM     17  C   UNL     1       1.690   9.839  18.654  0.00  0.00    +0.000 C 
BRANCH  17  18
ATOM     18  N   UNL     1       0.668   9.968  17.617  0.00  0.00    +0.000 N 
ATOM     19  H   UNL     1       0.627   9.156  17.004  0.00  0.00    +0.000 HD
BRANCH  18  20
ATOM     20  C   UNL     1      -0.601  10.446  17.952  0.00  0.00    +0.000 A 
ATOM     21  C   UNL     1      -0.820  11.532  18.814  0.00  0.00    +0.000 A 
ATOM     22  C   UNL     1      -2.109  12.011  19.061  0.00  0.00    +0.000 A 
ATOM     23  C   UNL     1      -3.191  11.429  18.416  0.00  0.00    +0.000 A 
ATOM     24  F   UNL     1      -4.425  11.895  18.645  0.00  0.00    +0.000 F 
ATOM     25  C   UNL     1      -3.004  10.381  17.529  0.00  0.00    +0.000 A 
ATOM     26  C   UNL     1      -1.714   9.899  17.294  0.00  0.00    +0.000 A 
ENDBRANCH  18  20
ENDBRANCH  17  18
ENDBRANCH   4  17
TORSDOF 4
ENDMDL
