MODEL 1
REMARK VINA RESULT:      -8.5      0.000      0.000
REMARK  Name = 
REMARK  9 active torsions:
REMARK  status: ('A' for Active; 'I' for Inactive)
REMARK    1  A    between atoms: C_1  and  C_2
REMARK    2  A    between atoms: C_2  and  S_3
REMARK    3  A    between atoms: S_3  and  N_6
REMARK    4  A    between atoms: C_9  and  C_10
REMARK    5  A    between atoms: C_13  and  C_14
REMARK    6  A    between atoms: C_14  and  C_15
REMARK    7  A    between atoms: C_15  and  C_16
REMARK    8  A    between atoms: C_15  and  N_18
REMARK    9  A    between atoms: C_19  and  C_21
REMARK                            x       y       z     vdW  Elec       q    Type
REMARK                         _______ _______ _______ _____ _____    ______ ____
ROOT
ATOM      1  C   UNL     1       2.468   5.858  18.756  0.00  0.00    +0.000 A 
ATOM      2  C   UNL     1       2.138   6.164  20.083  0.00  0.00    +0.000 A 
ATOM      3  C   UNL     1       1.761   7.458  20.476  0.00  0.00    +0.000 A 
ATOM      4  C   UNL     1       1.702   8.496  19.547  0.00  0.00    +0.000 A 
ATOM      5  C   UNL     1       2.047   8.211  18.222  0.00  0.00    +0.000 A 
ATOM      6  C   UNL     1       2.424   6.916  17.833  0.00  0.00    +0.000 A 
ENDROOT
BRANCH   1  10
ATOM      7  N   UNL     1       5.803   4.296  18.057  0.00  0.00    +0.000 NA
ATOM      8  C   UNL     1       5.122   4.096  19.375  0.00  0.00    +0.000 C 
ATOM      9  C   UNL     1       3.678   3.639  19.270  0.00  0.00    +0.000 C 
ATOM     10  C   UNL     1       2.846   4.454  18.279  0.00  0.00    +0.000 C 
ATOM     11  C   UNL     1       3.546   4.393  16.918  0.00  0.00    +0.000 C 
ATOM     12  C   UNL     1       4.987   4.885  16.947  0.00  0.00    +0.000 C 
BRANCH   7  13
ATOM     13  S   UNL     1       7.344   5.057  18.266  0.00  0.00    +0.000 S 
ATOM     14  O   UNL     1       8.345   4.161  17.722  0.00  0.00    +0.000 OA
ATOM     15  O   UNL     1       7.426   5.540  19.626  0.00  0.00    +0.000 OA
BRANCH  13  17
ATOM     16  C   UNL     1       7.758   7.705  17.819  0.00  0.00    +0.000 C 
ATOM     17  C   UNL     1       7.221   6.454  17.155  0.00  0.00    +0.000 C 
ENDBRANCH  13  17
ENDBRANCH   7  13
ENDBRANCH   1  10
BRANCH   4  18
ATOM     18  C   UNL     1       1.229   9.882  19.958  0.00  0.00    +0.000 C 
BRANCH  18  19
ATOM     19  C   UNL     1      -0.219   9.962  20.532  0.00  0.00    +0.000 C 
BRANCH  19  20
ATOM     20  N   UNL     1      -1.074  11.012  19.893  0.00  0.00    +0.000 N 
ATOM     21  C   UNL     1      -1.543  10.769  18.626  0.00  0.00    +0.000 C 
ATOM     22  O   UNL     1      -1.128   9.796  18.003  0.00  0.00    +0.000 OA
ATOM     23  H   UNL     1      -1.673  11.565  20.500  0.00  0.00    +0.000 HD
BRANCH  21  24
ATOM     24  C   UNL     1      -2.713  11.572  18.044  0.00  0.00    +0.000 C 
ATOM     25  N   UNL     1      -2.936  11.746  16.578  0.00  0.00    +0.000 NA
ATOM     26  C   UNL     1      -4.417  11.494  16.409  0.00  0.00    +0.000 C 
ATOM     27  C   UNL     1      -5.388  12.387  17.236  0.00  0.00    +0.000 C 
ATOM     28  C   UNL     1      -4.993  12.103  18.685  0.00  0.00    +0.000 C 
ATOM     29  C   UNL     1      -4.033  10.927  18.500  0.00  0.00    +0.000 C 
ATOM     30  C   UNL     1      -4.525  10.224  17.227  0.00  0.00    +0.000 C 
ATOM     31  H   UNL     1      -2.455  10.998  16.072  0.00  0.00    +0.000 HD
ENDBRANCH  21  24
ENDBRANCH  19  20
BRANCH  19  32
ATOM     32  C   UNL     1      -0.156  10.177  21.994  0.00  0.00    +0.000 C 
ATOM     33  N   UNL     1      -0.099  10.359  23.141  0.00  0.00    +0.000 NA
ENDBRANCH  19  32
ENDBRANCH  18  19
ENDBRANCH   4  18
TORSDOF 8
ENDMDL
MODEL 2
REMARK VINA RESULT:      -8.3      1.266      1.487
REMARK  Name = 
REMARK  9 active torsions:
REMARK  status: ('A' for Active; 'I' for Inactive)
REMARK    1  A    between atoms: C_1  and  C_2
REMARK    2  A    between atoms: C_2  and  S_3
REMARK    3  A    between atoms: S_3  and  N_6
REMARK    4  A    between atoms: C_9  and  C_10
REMARK    5  A    between atoms: C_13  and  C_14
REMARK    6  A    between atoms: C_14  and  C_15
REMARK    7  A    between atoms: C_15  and  C_16
REMARK    8  A    between atoms: C_15  and  N_18
REMARK    9  A    between atoms: C_19  and  C_21
REMARK                            x       y       z     vdW  Elec       q    Type
REMARK                         _______ _______ _______ _____ _____    ______ ____
ROOT
ATOM      1  C   UNL     1       2.681   5.375  19.168  0.00  0.00    +0.000 A 
ATOM      2  C   UNL     1       2.065   5.678  20.390  0.00  0.00    +0.000 A 
ATOM      3  C   UNL     1       1.562   6.957  20.672  0.00  0.00    +0.000 A 
ATOM      4  C   UNL     1       1.659   7.984  19.734  0.00  0.00    +0.000 A 
ATOM      5  C   UNL     1       2.288   7.703  18.517  0.00  0.00    +0.000 A 
ATOM      6  C   UNL     1       2.791   6.422  18.238  0.00  0.00    +0.000 A 
ENDROOT
BRANCH   1  10
ATOM      7  N   UNL     1       5.658   4.302  17.160  0.00  0.00    +0.000 NA
ATOM      8  C   UNL     1       5.724   4.373  18.654  0.00  0.00    +0.000 C 
ATOM      9  C   UNL     1       4.592   3.654  19.365  0.00  0.00    +0.000 C 
ATOM     10  C   UNL     1       3.208   3.985  18.806  0.00  0.00    +0.000 C 
ATOM     11  C   UNL     1       3.216   3.658  17.309  0.00  0.00    +0.000 C 
ATOM     12  C   UNL     1       4.302   4.388  16.530  0.00  0.00    +0.000 C 
BRANCH   7  13
ATOM     13  S   UNL     1       6.828   5.354  16.437  0.00  0.00    +0.000 S 
ATOM     14  O   UNL     1       6.103   6.346  15.672  0.00  0.00    +0.000 OA
ATOM     15  O   UNL     1       7.853   4.535  15.827  0.00  0.00    +0.000 OA
BRANCH  13  17
ATOM     16  C   UNL     1       7.670   7.663  17.596  0.00  0.00    +0.000 C 
ATOM     17  C   UNL     1       7.515   6.181  17.867  0.00  0.00    +0.000 C 
ENDBRANCH  13  17
ENDBRANCH   7  13
ENDBRANCH   1  10
BRANCH   4  18
ATOM     18  C   UNL     1       1.054   9.351  20.011  0.00  0.00    +0.000 C 
BRANCH  18  19
ATOM     19  C   UNL     1      -0.273   9.353  20.831  0.00  0.00    +0.000 C 
BRANCH  19  20
ATOM     20  N   UNL     1      -1.445   9.927  20.098  0.00  0.00    +0.000 N 
ATOM     21  C   UNL     1      -1.219  11.002  19.276  0.00  0.00    +0.000 C 
ATOM     22  O   UNL     1      -0.122  11.552  19.286  0.00  0.00    +0.000 OA
ATOM     23  H   UNL     1      -2.183   9.288  19.816  0.00  0.00    +0.000 HD
BRANCH  21  24
ATOM     24  C   UNL     1      -2.239  11.413  18.206  0.00  0.00    +0.000 C 
ATOM     25  N   UNL     1      -1.849  11.958  16.871  0.00  0.00    +0.000 NA
ATOM     26  C   UNL     1      -2.736  11.207  15.906  0.00  0.00    +0.000 C 
ATOM     27  C   UNL     1      -4.274  11.308  16.127  0.00  0.00    +0.000 C 
ATOM     28  C   UNL     1      -4.473  10.744  17.533  0.00  0.00    +0.000 C 
ATOM     29  C   UNL     1      -3.080  10.183  17.822  0.00  0.00    +0.000 C 
ATOM     30  C   UNL     1      -2.521   9.808  16.442  0.00  0.00    +0.000 C 
ATOM     31  H   UNL     1      -0.888  11.678  16.660  0.00  0.00    +0.000 HD
ENDBRANCH  21  24
ENDBRANCH  19  20
BRANCH  19  32
ATOM     32  C   UNL     1      -0.064  10.078  22.103  0.00  0.00    +0.000 C 
ATOM     33  N   UNL     1       0.097  10.660  23.097  0.00  0.00    +0.000 NA
ENDBRANCH  19  32
ENDBRANCH  18  19
ENDBRANCH   4  18
TORSDOF 8
ENDMDL
MODEL 3
REMARK VINA RESULT:      -8.2      3.143      4.518
REMARK  Name = 
REMARK  9 active torsions:
REMARK  status: ('A' for Active; 'I' for Inactive)
REMARK    1  A    between atoms: C_1  and  C_2
REMARK    2  A    between atoms: C_2  and  S_3
REMARK    3  A    between atoms: S_3  and  N_6
REMARK    4  A    between atoms: C_9  and  C_10
REMARK    5  A    between atoms: C_13  and  C_14
REMARK    6  A    between atoms: C_14  and  C_15
REMARK    7  A    between atoms: C_15  and  C_16
REMARK    8  A    between atoms: C_15  and  N_18
REMARK    9  A    between atoms: C_19  and  C_21
REMARK                            x       y       z     vdW  Elec       q    Type
REMARK                         _______ _______ _______ _____ _____    ______ ____
ROOT
ATOM      1  C   UNL     1       2.378   5.550  18.993  0.00  0.00    +0.000 A 
ATOM      2  C   UNL     1       1.931   5.795  20.299  0.00  0.00    +0.000 A 
ATOM      3  C   UNL     1       1.548   7.075  20.726  0.00  0.00    +0.000 A 
ATOM      4  C   UNL     1       1.600   8.163  19.855  0.00  0.00    +0.000 A 
ATOM      5  C   UNL     1       2.062   7.939  18.554  0.00  0.00    +0.000 A 
ATOM      6  C   UNL     1       2.445   6.657  18.130  0.00  0.00    +0.000 A 
ENDROOT
BRANCH   1  10
ATOM      7  N   UNL     1       5.684   4.149  17.919  0.00  0.00    +0.000 NA
ATOM      8  C   UNL     1       5.168   3.923  19.306  0.00  0.00    +0.000 C 
ATOM      9  C   UNL     1       3.746   3.396  19.366  0.00  0.00    +0.000 C 
ATOM     10  C   UNL     1       2.768   4.164  18.476  0.00  0.00    +0.000 C 
ATOM     11  C   UNL     1       3.311   4.129  17.044  0.00  0.00    +0.000 C 
ATOM     12  C   UNL     1       4.719   4.691  16.910  0.00  0.00    +0.000 C 
BRANCH   7  13
ATOM     13  S   UNL     1       7.200   4.985  17.951  0.00  0.00    +0.000 S 
ATOM     14  O   UNL     1       8.120   4.244  17.113  0.00  0.00    +0.000 OA
ATOM     15  O   UNL     1       7.517   5.289  19.329  0.00  0.00    +0.000 OA
BRANCH  13  17
ATOM     16  C   UNL     1       7.625   7.651  17.642  0.00  0.00    +0.000 C 
ATOM     17  C   UNL     1       6.804   6.504  17.093  0.00  0.00    +0.000 C 
ENDBRANCH  13  17
ENDBRANCH   7  13
ENDBRANCH   1  10
BRANCH   4  18
ATOM     18  C   UNL     1       1.121   9.537  20.296  0.00  0.00    +0.000 C 
BRANCH  18  19
ATOM     19  C   UNL     1       0.911  10.580  19.155  0.00  0.00    +0.000 C 
BRANCH  19  20
ATOM     20  N   UNL     1       1.280  11.981  19.531  0.00  0.00    +0.000 N 
ATOM     21  C   UNL     1       2.191  12.636  18.741  0.00  0.00    +0.000 C 
ATOM     22  O   UNL     1       2.786  12.017  17.863  0.00  0.00    +0.000 OA
ATOM     23  H   UNL     1       0.564  12.555  19.968  0.00  0.00    +0.000 HD
BRANCH  21  24
ATOM     24  C   UNL     1       2.343  14.161  18.799  0.00  0.00    +0.000 C 
ATOM     25  N   UNL     1       2.451  14.924  20.078  0.00  0.00    +0.000 NA
ATOM     26  C   UNL     1       3.587  15.888  19.824  0.00  0.00    +0.000 C 
ATOM     27  C   UNL     1       3.446  16.848  18.606  0.00  0.00    +0.000 C 
ATOM     28  C   UNL     1       3.317  15.901  17.414  0.00  0.00    +0.000 C 
ATOM     29  C   UNL     1       3.640  14.558  18.072  0.00  0.00    +0.000 C 
ATOM     30  C   UNL     1       4.583  14.914  19.230  0.00  0.00    +0.000 C 
ATOM     31  H   UNL     1       2.765  14.295  20.821  0.00  0.00    +0.000 HD
ENDBRANCH  21  24
ENDBRANCH  19  20
BRANCH  19  32
ATOM     32  C   UNL     1      -0.494  10.530  18.695  0.00  0.00    +0.000 C 
ATOM     33  N   UNL     1      -1.594  10.491  18.320  0.00  0.00    +0.000 NA
ENDBRANCH  19  32
ENDBRANCH  18  19
ENDBRANCH   4  18
TORSDOF 8
ENDMDL
MODEL 4
REMARK VINA RESULT:      -8.2      3.203      4.653
REMARK  Name = 
REMARK  9 active torsions:
REMARK  status: ('A' for Active; 'I' for Inactive)
REMARK    1  A    between atoms: C_1  and  C_2
REMARK    2  A    between atoms: C_2  and  S_3
REMARK    3  A    between atoms: S_3  and  N_6
REMARK    4  A    between atoms: C_9  and  C_10
REMARK    5  A    between atoms: C_13  and  C_14
REMARK    6  A    between atoms: C_14  and  C_15
REMARK    7  A    between atoms: C_15  and  C_16
REMARK    8  A    between atoms: C_15  and  N_18
REMARK    9  A    between atoms: C_19  and  C_21
REMARK                            x       y       z     vdW  Elec       q    Type
REMARK                         _______ _______ _______ _____ _____    ______ ____
ROOT
ATOM      1  C   UNL     1       2.667   5.458  19.153  0.00  0.00    +0.000 A 
ATOM      2  C   UNL     1       2.791   6.554  18.289  0.00  0.00    +0.000 A 
ATOM      3  C   UNL     1       2.279   7.820  18.615  0.00  0.00    +0.000 A 
ATOM      4  C   UNL     1       1.621   8.032  19.825  0.00  0.00    +0.000 A 
ATOM      5  C   UNL     1       1.472   6.943  20.690  0.00  0.00    +0.000 A 
ATOM      6  C   UNL     1       1.984   5.679  20.361  0.00  0.00    +0.000 A 
ENDROOT
BRANCH   1  10
ATOM      7  N   UNL     1       5.674   4.404  17.179  0.00  0.00    +0.000 NA
ATOM      8  C   UNL     1       5.743   4.547  18.668  0.00  0.00    +0.000 C 
ATOM      9  C   UNL     1       4.642   3.820  19.418  0.00  0.00    +0.000 C 
ATOM     10  C   UNL     1       3.243   4.073  18.853  0.00  0.00    +0.000 C 
ATOM     11  C   UNL     1       3.258   3.678  17.372  0.00  0.00    +0.000 C 
ATOM     12  C   UNL     1       4.313   4.411  16.554  0.00  0.00    +0.000 C 
BRANCH   7  13
ATOM     13  S   UNL     1       6.801   5.464  16.403  0.00  0.00    +0.000 S 
ATOM     14  O   UNL     1       6.033   6.443  15.661  0.00  0.00    +0.000 OA
ATOM     15  O   UNL     1       7.809   4.653  15.757  0.00  0.00    +0.000 OA
BRANCH  13  17
ATOM     16  C   UNL     1       7.591   7.801  17.541  0.00  0.00    +0.000 C 
ATOM     17  C   UNL     1       7.536   6.310  17.798  0.00  0.00    +0.000 C 
ENDBRANCH  13  17
ENDBRANCH   7  13
ENDBRANCH   1  10
BRANCH   4  18
ATOM     18  C   UNL     1       1.126   9.418  20.210  0.00  0.00    +0.000 C 
BRANCH  18  19
ATOM     19  C   UNL     1       0.892  10.407  19.027  0.00  0.00    +0.000 C 
BRANCH  19  20
ATOM     20  N   UNL     1       1.204  11.834  19.351  0.00  0.00    +0.000 N 
ATOM     21  C   UNL     1       2.134  12.477  18.574  0.00  0.00    +0.000 C 
ATOM     22  O   UNL     1       2.788  11.835  17.757  0.00  0.00    +0.000 OA
ATOM     23  H   UNL     1       0.453  12.407  19.725  0.00  0.00    +0.000 HD
BRANCH  21  24
ATOM     24  C   UNL     1       2.243  14.007  18.565  0.00  0.00    +0.000 C 
ATOM     25  N   UNL     1       1.990  14.852  19.769  0.00  0.00    +0.000 NA
ATOM     26  C   UNL     1       3.138  15.835  19.764  0.00  0.00    +0.000 C 
ATOM     27  C   UNL     1       3.318  16.711  18.489  0.00  0.00    +0.000 C 
ATOM     28  C   UNL     1       3.530  15.687  17.375  0.00  0.00    +0.000 C 
ATOM     29  C   UNL     1       3.682  14.400  18.188  0.00  0.00    +0.000 C 
ATOM     30  C   UNL     1       4.271  14.859  19.529  0.00  0.00    +0.000 C 
ATOM     31  H   UNL     1       2.100  14.282  20.612  0.00  0.00    +0.000 HD
ENDBRANCH  21  24
ENDBRANCH  19  20
BRANCH  19  32
ATOM     32  C   UNL     1      -0.505  10.286  18.555  0.00  0.00    +0.000 C 
ATOM     33  N   UNL     1      -1.602  10.204  18.177  0.00  0.00    +0.000 NA
ENDBRANCH  19  32
ENDBRANCH  18  19
ENDBRANCH   4  18
TORSDOF 8
ENDMDL
MODEL 5
REMARK VINA RESULT:      -8.2      1.317      1.745
REMARK  Name = 
REMARK  9 active torsions:
REMARK  status: ('A' for Active; 'I' for Inactive)
REMARK    1  A    between atoms: C_1  and  C_2
REMARK    2  A    between atoms: C_2  and  S_3
REMARK    3  A    between atoms: S_3  and  N_6
REMARK    4  A    between atoms: C_9  and  C_10
REMARK    5  A    between atoms: C_13  and  C_14
REMARK    6  A    between atoms: C_14  and  C_15
REMARK    7  A    between atoms: C_15  and  C_16
REMARK    8  A    between atoms: C_15  and  N_18
REMARK    9  A    between atoms: C_19  and  C_21
REMARK                            x       y       z     vdW  Elec       q    Type
REMARK                         _______ _______ _______ _____ _____    ______ ____
ROOT
ATOM      1  C   UNL     1       2.486   6.006  19.117  0.00  0.00    +0.000 A 
ATOM      2  C   UNL     1       2.569   6.924  18.061  0.00  0.00    +0.000 A 
ATOM      3  C   UNL     1       2.177   8.264  18.206  0.00  0.00    +0.000 A 
ATOM      4  C   UNL     1       1.683   8.733  19.423  0.00  0.00    +0.000 A 
ATOM      5  C   UNL     1       1.575   7.825  20.481  0.00  0.00    +0.000 A 
ATOM      6  C   UNL     1       1.968   6.486  20.331  0.00  0.00    +0.000 A 
ENDROOT
BRANCH   1  10
ATOM      7  N   UNL     1       5.529   4.468  17.562  0.00  0.00    +0.000 NA
ATOM      8  C   UNL     1       5.481   4.761  19.029  0.00  0.00    +0.000 C 
ATOM      9  C   UNL     1       4.247   4.226  19.733  0.00  0.00    +0.000 C 
ATOM     10  C   UNL     1       2.939   4.549  19.010  0.00  0.00    +0.000 C 
ATOM     11  C   UNL     1       3.044   4.000  17.584  0.00  0.00    +0.000 C 
ATOM     12  C   UNL     1       4.237   4.538  16.807  0.00  0.00    +0.000 C 
BRANCH   7  13
ATOM     13  S   UNL     1       6.826   5.328  16.802  0.00  0.00    +0.000 S 
ATOM     14  O   UNL     1       6.242   6.189  15.795  0.00  0.00    +0.000 OA
ATOM     15  O   UNL     1       7.862   4.376  16.468  0.00  0.00    +0.000 OA
BRANCH  13  17
ATOM     16  C   UNL     1       7.781   7.744  17.597  0.00  0.00    +0.000 C 
ATOM     17  C   UNL     1       7.403   6.379  18.130  0.00  0.00    +0.000 C 
ENDBRANCH  13  17
ENDBRANCH   7  13
ENDBRANCH   1  10
BRANCH   4  18
ATOM     18  C   UNL     1       1.322  10.199  19.603  0.00  0.00    +0.000 C 
BRANCH  18  19
ATOM     19  C   UNL     1       0.077  10.486  20.499  0.00  0.00    +0.000 C 
BRANCH  19  20
ATOM     20  N   UNL     1      -1.198  10.666  19.735  0.00  0.00    +0.000 N 
ATOM     21  C   UNL     1      -1.231  11.639  18.768  0.00  0.00    +0.000 C 
ATOM     22  O   UNL     1      -0.293  12.424  18.667  0.00  0.00    +0.000 OA
ATOM     23  H   UNL     1      -1.767   9.841  19.567  0.00  0.00    +0.000 HD
BRANCH  21  24
ATOM     24  C   UNL     1      -2.320  11.650  17.688  0.00  0.00    +0.000 C 
ATOM     25  N   UNL     1      -2.024  11.776  16.230  0.00  0.00    +0.000 NA
ATOM     26  C   UNL     1      -2.901  10.722  15.595  0.00  0.00    +0.000 C 
ATOM     27  C   UNL     1      -4.431  10.811  15.868  0.00  0.00    +0.000 C 
ATOM     28  C   UNL     1      -4.533  10.698  17.389  0.00  0.00    +0.000 C 
ATOM     29  C   UNL     1      -3.095  10.323  17.750  0.00  0.00    +0.000 C 
ATOM     30  C   UNL     1      -2.573   9.568  16.519  0.00  0.00    +0.000 C 
ATOM     31  H   UNL     1      -1.057  11.492  16.056  0.00  0.00    +0.000 HD
ENDBRANCH  21  24
ENDBRANCH  19  20
BRANCH  19  32
ATOM     32  C   UNL     1       0.339  11.675  21.338  0.00  0.00    +0.000 C 
ATOM     33  N   UNL     1       0.536  12.618  21.990  0.00  0.00    +0.000 NA
ENDBRANCH  19  32
ENDBRANCH  18  19
ENDBRANCH   4  18
TORSDOF 8
ENDMDL
MODEL 6
REMARK VINA RESULT:      -8.2      1.628      2.152
REMARK  Name = 
REMARK  9 active torsions:
REMARK  status: ('A' for Active; 'I' for Inactive)
REMARK    1  A    between atoms: C_1  and  C_2
REMARK    2  A    between atoms: C_2  and  S_3
REMARK    3  A    between atoms: S_3  and  N_6
REMARK    4  A    between atoms: C_9  and  C_10
REMARK    5  A    between atoms: C_13  and  C_14
REMARK    6  A    between atoms: C_14  and  C_15
REMARK    7  A    between atoms: C_15  and  C_16
REMARK    8  A    between atoms: C_15  and  N_18
REMARK    9  A    between atoms: C_19  and  C_21
REMARK                            x       y       z     vdW  Elec       q    Type
REMARK                         _______ _______ _______ _____ _____    ______ ____
ROOT
ATOM      1  C   UNL     1       2.325   5.774  18.997  0.00  0.00    +0.000 A 
ATOM      2  C   UNL     1       2.400   6.884  18.144  0.00  0.00    +0.000 A 
ATOM      3  C   UNL     1       2.074   8.178  18.576  0.00  0.00    +0.000 A 
ATOM      4  C   UNL     1       1.658   8.408  19.887  0.00  0.00    +0.000 A 
ATOM      5  C   UNL     1       1.560   7.309  20.746  0.00  0.00    +0.000 A 
ATOM      6  C   UNL     1       1.886   6.015  20.309  0.00  0.00    +0.000 A 
ENDROOT
BRANCH   1  10
ATOM      7  N   UNL     1       5.628   4.284  18.037  0.00  0.00    +0.000 NA
ATOM      8  C   UNL     1       5.103   4.154  19.433  0.00  0.00    +0.000 C 
ATOM      9  C   UNL     1       3.677   3.641  19.521  0.00  0.00    +0.000 C 
ATOM     10  C   UNL     1       2.708   4.354  18.576  0.00  0.00    +0.000 C 
ATOM     11  C   UNL     1       3.258   4.221  17.153  0.00  0.00    +0.000 C 
ATOM     12  C   UNL     1       4.671   4.764  16.989  0.00  0.00    +0.000 C 
BRANCH   7  13
ATOM     13  S   UNL     1       7.149   5.111  18.022  0.00  0.00    +0.000 S 
ATOM     14  O   UNL     1       8.025   4.387  17.124  0.00  0.00    +0.000 OA
ATOM     15  O   UNL     1       7.529   5.377  19.392  0.00  0.00    +0.000 OA
BRANCH  13  17
ATOM     16  C   UNL     1       7.689   7.745  17.635  0.00  0.00    +0.000 C 
ATOM     17  C   UNL     1       6.724   6.654  17.223  0.00  0.00    +0.000 C 
ENDBRANCH  13  17
ENDBRANCH   7  13
ENDBRANCH   1  10
BRANCH   4  18
ATOM     18  C   UNL     1       1.370   9.819  20.377  0.00  0.00    +0.000 C 
BRANCH  18  19
ATOM     19  C   UNL     1       0.019  10.011  21.132  0.00  0.00    +0.000 C 
BRANCH  19  20
ATOM     20  N   UNL     1      -0.605  11.358  20.937  0.00  0.00    +0.000 N 
ATOM     21  C   UNL     1      -1.511  11.501  19.917  0.00  0.00    +0.000 C 
ATOM     22  O   UNL     1      -1.662  10.588  19.109  0.00  0.00    +0.000 OA
ATOM     23  H   UNL     1      -0.759  11.929  21.763  0.00  0.00    +0.000 HD
BRANCH  21  24
ATOM     24  C   UNL     1      -2.476  12.692  19.871  0.00  0.00    +0.000 C 
ATOM     25  N   UNL     1      -3.874  12.592  19.356  0.00  0.00    +0.000 NA
ATOM     26  C   UNL     1      -4.689  13.338  20.386  0.00  0.00    +0.000 C 
ATOM     27  C   UNL     1      -4.297  14.819  20.666  0.00  0.00    +0.000 C 
ATOM     28  C   UNL     1      -2.849  14.724  21.145  0.00  0.00    +0.000 C 
ATOM     29  C   UNL     1      -2.693  13.211  21.303  0.00  0.00    +0.000 C 
ATOM     30  C   UNL     1      -4.106  12.710  21.635  0.00  0.00    +0.000 C 
ATOM     31  H   UNL     1      -4.180  11.616  19.395  0.00  0.00    +0.000 HD
ENDBRANCH  21  24
ENDBRANCH  19  20
BRANCH  19  32
ATOM     32  C   UNL     1       0.220   9.747  22.574  0.00  0.00    +0.000 C 
ATOM     33  N   UNL     1       0.366   9.530  23.707  0.00  0.00    +0.000 NA
ENDBRANCH  19  32
ENDBRANCH  18  19
ENDBRANCH   4  18
TORSDOF 8
ENDMDL
MODEL 7
REMARK VINA RESULT:      -8.0      2.510      3.214
REMARK  Name = 
REMARK  9 active torsions:
REMARK  status: ('A' for Active; 'I' for Inactive)
REMARK    1  A    between atoms: C_1  and  C_2
REMARK    2  A    between atoms: C_2  and  S_3
REMARK    3  A    between atoms: S_3  and  N_6
REMARK    4  A    between atoms: C_9  and  C_10
REMARK    5  A    between atoms: C_13  and  C_14
REMARK    6  A    between atoms: C_14  and  C_15
REMARK    7  A    between atoms: C_15  and  C_16
REMARK    8  A    between atoms: C_15  and  N_18
REMARK    9  A    between atoms: C_19  and  C_21
REMARK                            x       y       z     vdW  Elec       q    Type
REMARK                         _______ _______ _______ _____ _____    ______ ____
ROOT
ATOM      1  C   UNL     1       2.502   6.268  19.142  0.00  0.00    +0.000 A 
ATOM      2  C   UNL     1       2.001   6.870  20.304  0.00  0.00    +0.000 A 
ATOM      3  C   UNL     1       1.545   8.197  20.318  0.00  0.00    +0.000 A 
ATOM      4  C   UNL     1       1.576   8.973  19.159  0.00  0.00    +0.000 A 
ATOM      5  C   UNL     1       2.092   8.393  17.996  0.00  0.00    +0.000 A 
ATOM      6  C   UNL     1       2.547   7.065  17.986  0.00  0.00    +0.000 A 
ENDROOT
BRANCH   1  10
ATOM      7  N   UNL     1       5.558   4.722  17.618  0.00  0.00    +0.000 NA
ATOM      8  C   UNL     1       5.512   5.057  19.076  0.00  0.00    +0.000 C 
ATOM      9  C   UNL     1       4.288   4.528  19.801  0.00  0.00    +0.000 C 
ATOM     10  C   UNL     1       2.973   4.814  19.076  0.00  0.00    +0.000 C 
ATOM     11  C   UNL     1       3.078   4.225  17.665  0.00  0.00    +0.000 C 
ATOM     12  C   UNL     1       4.262   4.754  16.868  0.00  0.00    +0.000 C 
BRANCH   7  13
ATOM     13  S   UNL     1       6.840   5.575  16.827  0.00  0.00    +0.000 S 
ATOM     14  O   UNL     1       6.233   6.488  15.881  0.00  0.00    +0.000 OA
ATOM     15  O   UNL     1       7.832   4.609  16.410  0.00  0.00    +0.000 OA
BRANCH  13  17
ATOM     16  C   UNL     1       7.829   7.958  17.679  0.00  0.00    +0.000 C 
ATOM     17  C   UNL     1       7.509   6.560  18.163  0.00  0.00    +0.000 C 
ENDBRANCH  13  17
ENDBRANCH   7  13
ENDBRANCH   1  10
BRANCH   4  18
ATOM     18  C   UNL     1       1.020  10.388  19.155  0.00  0.00    +0.000 C 
BRANCH  18  19
ATOM     19  C   UNL     1       0.754  11.016  20.558  0.00  0.00    +0.000 C 
BRANCH  19  20
ATOM     20  N   UNL     1      -0.683  11.344  20.819  0.00  0.00    +0.000 N 
ATOM     21  C   UNL     1      -1.091  11.427  22.127  0.00  0.00    +0.000 C 
ATOM     22  O   UNL     1      -0.327  11.081  23.023  0.00  0.00    +0.000 OA
ATOM     23  H   UNL     1      -1.154  11.955  20.158  0.00  0.00    +0.000 HD
BRANCH  21  24
ATOM     24  C   UNL     1      -2.405  12.121  22.507  0.00  0.00    +0.000 C 
ATOM     25  N   UNL     1      -2.501  13.163  23.573  0.00  0.00    +0.000 NA
ATOM     26  C   UNL     1      -3.353  14.241  22.944  0.00  0.00    +0.000 C 
ATOM     27  C   UNL     1      -4.765  13.824  22.436  0.00  0.00    +0.000 C 
ATOM     28  C   UNL     1      -4.469  12.747  21.393  0.00  0.00    +0.000 C 
ATOM     29  C   UNL     1      -2.949  12.865  21.275  0.00  0.00    +0.000 C 
ATOM     30  C   UNL     1      -2.650  14.334  21.606  0.00  0.00    +0.000 C 
ATOM     31  H   UNL     1      -1.577  13.576  23.726  0.00  0.00    +0.000 HD
ENDBRANCH  21  24
ENDBRANCH  19  20
BRANCH  19  32
ATOM     32  C   UNL     1       1.590  12.226  20.721  0.00  0.00    +0.000 C 
ATOM     33  N   UNL     1       2.255  13.170  20.859  0.00  0.00    +0.000 NA
ENDBRANCH  19  32
ENDBRANCH  18  19
ENDBRANCH   4  18
TORSDOF 8
ENDMDL
MODEL 8
REMARK VINA RESULT:      -8.0      2.982      3.864
REMARK  Name = 
REMARK  9 active torsions:
REMARK  status: ('A' for Active; 'I' for Inactive)
REMARK    1  A    between atoms: C_1  and  C_2
REMARK    2  A    between atoms: C_2  and  S_3
REMARK    3  A    between atoms: S_3  and  N_6
REMARK    4  A    between atoms: C_9  and  C_10
REMARK    5  A    between atoms: C_13  and  C_14
REMARK    6  A    between atoms: C_14  and  C_15
REMARK    7  A    between atoms: C_15  and  C_16
REMARK    8  A    between atoms: C_15  and  N_18
REMARK    9  A    between atoms: C_19  and  C_21
REMARK                            x       y       z     vdW  Elec       q    Type
REMARK                         _______ _______ _______ _____ _____    ______ ____
ROOT
ATOM      1  C   UNL     1       2.380   5.568  19.002  0.00  0.00    +0.000 A 
ATOM      2  C   UNL     1       1.914   5.744  20.312  0.00  0.00    +0.000 A 
ATOM      3  C   UNL     1       1.530   7.001  20.802  0.00  0.00    +0.000 A 
ATOM      4  C   UNL     1       1.600   8.134  19.993  0.00  0.00    +0.000 A 
ATOM      5  C   UNL     1       2.082   7.979  18.689  0.00  0.00    +0.000 A 
ATOM      6  C   UNL     1       2.466   6.720  18.202  0.00  0.00    +0.000 A 
ENDROOT
BRANCH   1  10
ATOM      7  N   UNL     1       5.700   4.203  17.925  0.00  0.00    +0.000 NA
ATOM      8  C   UNL     1       5.151   3.903  19.285  0.00  0.00    +0.000 C 
ATOM      9  C   UNL     1       3.724   3.385  19.283  0.00  0.00    +0.000 C 
ATOM     10  C   UNL     1       2.772   4.210  18.416  0.00  0.00    +0.000 C 
ATOM     11  C   UNL     1       3.347   4.252  16.997  0.00  0.00    +0.000 C 
ATOM     12  C   UNL     1       4.762   4.809  16.926  0.00  0.00    +0.000 C 
BRANCH   7  13
ATOM     13  S   UNL     1       7.221   5.022  18.038  0.00  0.00    +0.000 S 
ATOM     14  O   UNL     1       8.184   4.254  17.276  0.00  0.00    +0.000 OA
ATOM     15  O   UNL     1       7.451   5.352  19.427  0.00  0.00    +0.000 OA
BRANCH  13  17
ATOM     16  C   UNL     1       7.729   7.667  17.677  0.00  0.00    +0.000 C 
ATOM     17  C   UNL     1       6.899   6.527  17.126  0.00  0.00    +0.000 C 
ENDBRANCH  13  17
ENDBRANCH   7  13
ENDBRANCH   1  10
BRANCH   4  18
ATOM     18  C   UNL     1       1.121   9.485  20.500  0.00  0.00    +0.000 C 
BRANCH  18  19
ATOM     19  C   UNL     1       0.990  10.607  19.423  0.00  0.00    +0.000 C 
BRANCH  19  20
ATOM     20  N   UNL     1       1.395  11.966  19.902  0.00  0.00    +0.000 N 
ATOM     21  C   UNL     1       2.171  12.731  19.068  0.00  0.00    +0.000 C 
ATOM     22  O   UNL     1       2.635  12.234  18.046  0.00  0.00    +0.000 OA
ATOM     23  H   UNL     1       0.747  12.466  20.504  0.00  0.00    +0.000 HD
BRANCH  21  24
ATOM     24  C   UNL     1       2.314  14.244  19.281  0.00  0.00    +0.000 C 
ATOM     25  N   UNL     1       2.470  15.216  18.158  0.00  0.00    +0.000 NA
ATOM     26  C   UNL     1       1.517  16.332  18.517  0.00  0.00    +0.000 C 
ATOM     27  C   UNL     1       1.722  17.027  19.895  0.00  0.00    +0.000 C 
ATOM     28  C   UNL     1       1.560  15.887  20.900  0.00  0.00    +0.000 C 
ATOM     29  C   UNL     1       1.053  14.767  19.991  0.00  0.00    +0.000 C 
ATOM     30  C   UNL     1       0.305  15.493  18.864  0.00  0.00    +0.000 C 
ATOM     31  H   UNL     1       2.113  14.796  17.295  0.00  0.00    +0.000 HD
ENDBRANCH  21  24
ENDBRANCH  19  20
BRANCH  19  32
ATOM     32  C   UNL     1      -0.399  10.640  18.915  0.00  0.00    +0.000 C 
ATOM     33  N   UNL     1      -1.495  10.673  18.528  0.00  0.00    +0.000 NA
ENDBRANCH  19  32
ENDBRANCH  18  19
ENDBRANCH   4  18
TORSDOF 8
ENDMDL
MODEL 9
REMARK VINA RESULT:      -7.9      2.939      4.031
REMARK  Name = 
REMARK  9 active torsions:
REMARK  status: ('A' for Active; 'I' for Inactive)
REMARK    1  A    between atoms: C_1  and  C_2
REMARK    2  A    between atoms: C_2  and  S_3
REMARK    3  A    between atoms: S_3  and  N_6
REMARK    4  A    between atoms: C_9  and  C_10
REMARK    5  A    between atoms: C_13  and  C_14
REMARK    6  A    between atoms: C_14  and  C_15
REMARK    7  A    between atoms: C_15  and  C_16
REMARK    8  A    between atoms: C_15  and  N_18
REMARK    9  A    between atoms: C_19  and  C_21
REMARK                            x       y       z     vdW  Elec       q    Type
REMARK                         _______ _______ _______ _____ _____    ______ ____
ROOT
ATOM      1  C   UNL     1       3.225   6.409  19.076  0.00  0.00    +0.000 A 
ATOM      2  C   UNL     1       3.239   7.184  17.908  0.00  0.00    +0.000 A 
ATOM      3  C   UNL     1       2.433   8.323  17.762  0.00  0.00    +0.000 A 
ATOM      4  C   UNL     1       1.580   8.729  18.787  0.00  0.00    +0.000 A 
ATOM      5  C   UNL     1       1.540   7.956  19.952  0.00  0.00    +0.000 A 
ATOM      6  C   UNL     1       2.347   6.816  20.094  0.00  0.00    +0.000 A 
ENDROOT
BRANCH   1  10
ATOM      7  N   UNL     1       5.740   4.756  16.843  0.00  0.00    +0.000 NA
ATOM      8  C   UNL     1       6.168   5.742  17.884  0.00  0.00    +0.000 C 
ATOM      9  C   UNL     1       5.617   5.465  19.272  0.00  0.00    +0.000 C 
ATOM     10  C   UNL     1       4.114   5.183  19.291  0.00  0.00    +0.000 C 
ATOM     11  C   UNL     1       3.847   4.008  18.345  0.00  0.00    +0.000 C 
ATOM     12  C   UNL     1       4.334   4.244  16.922  0.00  0.00    +0.000 C 
BRANCH   7  13
ATOM     13  S   UNL     1       6.198   5.289  15.260  0.00  0.00    +0.000 S 
ATOM     14  O   UNL     1       7.643   5.225  15.185  0.00  0.00    +0.000 OA
ATOM     15  O   UNL     1       5.483   6.513  14.974  0.00  0.00    +0.000 OA
BRANCH  13  17
ATOM     16  C   UNL     1       6.385   3.839  12.970  0.00  0.00    +0.000 C 
ATOM     17  C   UNL     1       5.552   3.979  14.227  0.00  0.00    +0.000 C 
ENDBRANCH  13  17
ENDBRANCH   7  13
ENDBRANCH   1  10
BRANCH   4  18
ATOM     18  C   UNL     1       0.757  10.002  18.658  0.00  0.00    +0.000 C 
BRANCH  18  19
ATOM     19  C   UNL     1       1.203  11.193  19.560  0.00  0.00    +0.000 C 
BRANCH  19  20
ATOM     20  N   UNL     1       0.088  11.829  20.330  0.00  0.00    +0.000 N 
ATOM     21  C   UNL     1      -0.048  11.490  21.653  0.00  0.00    +0.000 C 
ATOM     22  O   UNL     1       0.629  10.577  22.118  0.00  0.00    +0.000 OA
ATOM     23  H   UNL     1      -0.181  12.775  20.075  0.00  0.00    +0.000 HD
BRANCH  21  24
ATOM     24  C   UNL     1      -0.883  12.348  22.612  0.00  0.00    +0.000 C 
ATOM     25  N   UNL     1      -0.714  13.826  22.745  0.00  0.00    +0.000 NA
ATOM     26  C   UNL     1      -2.132  14.350  22.740  0.00  0.00    +0.000 C 
ATOM     27  C   UNL     1      -3.098  13.794  23.828  0.00  0.00    +0.000 C 
ATOM     28  C   UNL     1      -3.118  12.290  23.556  0.00  0.00    +0.000 C 
ATOM     29  C   UNL     1      -2.367  12.224  22.226  0.00  0.00    +0.000 C 
ATOM     30  C   UNL     1      -2.656  13.573  21.552  0.00  0.00    +0.000 C 
ATOM     31  H   UNL     1      -0.267  14.192  21.900  0.00  0.00    +0.000 HD
ENDBRANCH  21  24
ENDBRANCH  19  20
BRANCH  19  32
ATOM     32  C   UNL     1       1.891  12.207  18.731  0.00  0.00    +0.000 C 
ATOM     33  N   UNL     1       2.433  13.012  18.091  0.00  0.00    +0.000 NA
ENDBRANCH  19  32
ENDBRANCH  18  19
ENDBRANCH   4  18
TORSDOF 8
ENDMDL
