MODEL 1
REMARK VINA RESULT:      -6.6      0.000      0.000
REMARK  Name = 
REMARK  2 active torsions:
REMARK  status: ('A' for Active; 'I' for Inactive)
REMARK    1  A    between atoms: C_1  and  C_2
REMARK    2  A    between atoms: C_5  and  C_6
REMARK                            x       y       z     vdW  Elec       q    Type
REMARK                         _______ _______ _______ _____ _____    ______ ____
ROOT
ATOM      1  C   UNL     1       4.531   4.388  17.796  0.00  0.00    +0.000 C 
ATOM      2  C   UNL     1       5.505   4.817  18.624  0.00  0.00    +0.000 C 
ATOM      3  N   UNL     1       6.600   5.475  18.026  0.00  0.00    +0.000 N 
ATOM      4  C   UNL     1       7.283   4.579  17.035  0.00  0.00    +0.000 C 
ATOM      5  C   UNL     1       6.226   4.106  16.005  0.00  0.00    +0.000 C 
ATOM      6  C   UNL     1       4.860   4.755  16.343  0.00  0.00    +0.000 C 
ATOM      7  C   UNL     1       5.054   6.292  16.287  0.00  0.00    +0.000 C 
ATOM      8  C   UNL     1       6.162   6.703  17.286  0.00  0.00    +0.000 C 
ENDROOT
BRANCH   1  13
ATOM      9  C   UNL     1       1.334   2.831  21.097  0.00  0.00    +0.000 C 
ATOM     10  C   UNL     1       1.910   2.906  19.741  0.00  0.00    +0.000 A 
ATOM     11  C   UNL     1       1.544   2.374  18.530  0.00  0.00    +0.000 A 
ATOM     12  C   UNL     1       2.498   2.841  17.597  0.00  0.00    +0.000 A 
ATOM     13  C   UNL     1       3.410   3.651  18.271  0.00  0.00    +0.000 A 
ATOM     14  O   UNL     1       3.031   3.661  19.600  0.00  0.00    +0.000 OA
ENDBRANCH   1  13
TORSDOF 1
ENDMDL
MODEL 2
REMARK VINA RESULT:      -6.5      2.006      5.040
REMARK  Name = 
REMARK  2 active torsions:
REMARK  status: ('A' for Active; 'I' for Inactive)
REMARK    1  A    between atoms: C_1  and  C_2
REMARK    2  A    between atoms: C_5  and  C_6
REMARK                            x       y       z     vdW  Elec       q    Type
REMARK                         _______ _______ _______ _____ _____    ______ ____
ROOT
ATOM      1  C   UNL     1       4.032   4.131  17.956  0.00  0.00    +0.000 C 
ATOM      2  C   UNL     1       3.914   4.028  19.296  0.00  0.00    +0.000 C 
ATOM      3  N   UNL     1       2.723   3.449  19.783  0.00  0.00    +0.000 N 
ATOM      4  C   UNL     1       1.526   4.236  19.333  0.00  0.00    +0.000 C 
ATOM      5  C   UNL     1       1.564   4.328  17.787  0.00  0.00    +0.000 C 
ATOM      6  C   UNL     1       2.795   3.549  17.260  0.00  0.00    +0.000 C 
ATOM      7  C   UNL     1       2.647   2.080  17.733  0.00  0.00    +0.000 C 
ATOM      8  C   UNL     1       2.550   2.049  19.277  0.00  0.00    +0.000 C 
ENDROOT
BRANCH   1  13
ATOM      9  C   UNL     1       7.594   7.401  17.544  0.00  0.00    +0.000 C 
ATOM     10  C   UNL     1       6.812   6.229  17.106  0.00  0.00    +0.000 A 
ATOM     11  C   UNL     1       6.933   5.354  16.056  0.00  0.00    +0.000 A 
ATOM     12  C   UNL     1       5.879   4.423  16.204  0.00  0.00    +0.000 A 
ATOM     13  C   UNL     1       5.155   4.759  17.346  0.00  0.00    +0.000 A 
ATOM     14  O   UNL     1       5.744   5.890  17.876  0.00  0.00    +0.000 OA
ENDBRANCH   1  13
TORSDOF 1
ENDMDL
MODEL 3
REMARK VINA RESULT:      -6.4      2.077      5.151
REMARK  Name = 
REMARK  2 active torsions:
REMARK  status: ('A' for Active; 'I' for Inactive)
REMARK    1  A    between atoms: C_1  and  C_2
REMARK    2  A    between atoms: C_5  and  C_6
REMARK                            x       y       z     vdW  Elec       q    Type
REMARK                         _______ _______ _______ _____ _____    ______ ____
ROOT
ATOM      1  C   UNL     1       3.329   4.195  18.372  0.00  0.00    +0.000 C 
ATOM      2  C   UNL     1       3.842   3.361  19.300  0.00  0.00    +0.000 C 
ATOM      3  N   UNL     1       2.951   2.892  20.289  0.00  0.00    +0.000 N 
ATOM      4  C   UNL     1       2.361   4.037  21.060  0.00  0.00    +0.000 C 
ATOM      5  C   UNL     1       1.689   5.001  20.050  0.00  0.00    +0.000 C 
ATOM      6  C   UNL     1       1.833   4.423  18.620  0.00  0.00    +0.000 C 
ATOM      7  C   UNL     1       1.147   3.033  18.614  0.00  0.00    +0.000 C 
ATOM      8  C   UNL     1       1.812   2.131  19.681  0.00  0.00    +0.000 C 
ENDROOT
BRANCH   1  13
ATOM      9  C   UNL     1       6.195   4.248  14.455  0.00  0.00    +0.000 C 
ATOM     10  C   UNL     1       5.456   4.877  15.567  0.00  0.00    +0.000 A 
ATOM     11  C   UNL     1       5.258   6.179  15.951  0.00  0.00    +0.000 A 
ATOM     12  C   UNL     1       4.428   6.125  17.094  0.00  0.00    +0.000 A 
ATOM     13  C   UNL     1       4.142   4.789  17.364  0.00  0.00    +0.000 A 
ATOM     14  O   UNL     1       4.803   4.036  16.414  0.00  0.00    +0.000 OA
ENDBRANCH   1  13
TORSDOF 1
ENDMDL
MODEL 4
REMARK VINA RESULT:      -6.4      0.984      1.120
REMARK  Name = 
REMARK  2 active torsions:
REMARK  status: ('A' for Active; 'I' for Inactive)
REMARK    1  A    between atoms: C_1  and  C_2
REMARK    2  A    between atoms: C_5  and  C_6
REMARK                            x       y       z     vdW  Elec       q    Type
REMARK                         _______ _______ _______ _____ _____    ______ ____
ROOT
ATOM      1  C   UNL     1       4.773   4.887  17.703  0.00  0.00    +0.000 C 
ATOM      2  C   UNL     1       5.977   4.377  18.037  0.00  0.00    +0.000 C 
ATOM      3  N   UNL     1       7.089   4.854  17.311  0.00  0.00    +0.000 N 
ATOM      4  C   UNL     1       6.927   4.574  15.846  0.00  0.00    +0.000 C 
ATOM      5  C   UNL     1       5.588   5.201  15.381  0.00  0.00    +0.000 C 
ATOM      6  C   UNL     1       4.919   5.920  16.579  0.00  0.00    +0.000 C 
ATOM      7  C   UNL     1       5.908   7.006  17.074  0.00  0.00    +0.000 C 
ATOM      8  C   UNL     1       7.248   6.336  17.465  0.00  0.00    +0.000 C 
ENDROOT
BRANCH   1  13
ATOM      9  C   UNL     1       2.012   3.170  21.306  0.00  0.00    +0.000 C 
ATOM     10  C   UNL     1       2.251   3.655  19.933  0.00  0.00    +0.000 A 
ATOM     11  C   UNL     1       1.429   3.885  18.858  0.00  0.00    +0.000 A 
ATOM     12  C   UNL     1       2.266   4.377  17.829  0.00  0.00    +0.000 A 
ATOM     13  C   UNL     1       3.570   4.436  18.316  0.00  0.00    +0.000 A 
ATOM     14  O   UNL     1       3.535   3.969  19.615  0.00  0.00    +0.000 OA
ENDBRANCH   1  13
TORSDOF 1
ENDMDL
MODEL 5
REMARK VINA RESULT:      -6.4      1.165      1.811
REMARK  Name = 
REMARK  2 active torsions:
REMARK  status: ('A' for Active; 'I' for Inactive)
REMARK    1  A    between atoms: C_1  and  C_2
REMARK    2  A    between atoms: C_5  and  C_6
REMARK                            x       y       z     vdW  Elec       q    Type
REMARK                         _______ _______ _______ _____ _____    ______ ____
ROOT
ATOM      1  C   UNL     1       4.325   4.522  17.697  0.00  0.00    +0.000 C 
ATOM      2  C   UNL     1       4.869   3.746  16.738  0.00  0.00    +0.000 C 
ATOM      3  N   UNL     1       5.958   4.292  16.026  0.00  0.00    +0.000 N 
ATOM      4  C   UNL     1       5.558   5.562  15.334  0.00  0.00    +0.000 C 
ATOM      5  C   UNL     1       4.987   6.531  16.400  0.00  0.00    +0.000 C 
ATOM      6  C   UNL     1       5.068   5.860  17.794  0.00  0.00    +0.000 C 
ATOM      7  C   UNL     1       6.561   5.541  18.065  0.00  0.00    +0.000 C 
ATOM      8  C   UNL     1       7.099   4.624  16.940  0.00  0.00    +0.000 C 
ENDROOT
BRANCH   1  13
ATOM      9  C   UNL     1       1.910   2.922  21.591  0.00  0.00    +0.000 C 
ATOM     10  C   UNL     1       2.016   3.385  20.193  0.00  0.00    +0.000 A 
ATOM     11  C   UNL     1       1.094   3.624  19.206  0.00  0.00    +0.000 A 
ATOM     12  C   UNL     1       1.831   4.080  18.089  0.00  0.00    +0.000 A 
ATOM     13  C   UNL     1       3.180   4.111  18.437  0.00  0.00    +0.000 A 
ATOM     14  O   UNL     1       3.268   3.661  19.740  0.00  0.00    +0.000 OA
ENDBRANCH   1  13
TORSDOF 1
ENDMDL
MODEL 6
REMARK VINA RESULT:      -6.4      2.182      5.199
REMARK  Name = 
REMARK  2 active torsions:
REMARK  status: ('A' for Active; 'I' for Inactive)
REMARK    1  A    between atoms: C_1  and  C_2
REMARK    2  A    between atoms: C_5  and  C_6
REMARK                            x       y       z     vdW  Elec       q    Type
REMARK                         _______ _______ _______ _____ _____    ______ ____
ROOT
ATOM      1  C   UNL     1       3.491   4.219  19.178  0.00  0.00    +0.000 C 
ATOM      2  C   UNL     1       3.624   3.044  19.825  0.00  0.00    +0.000 C 
ATOM      3  N   UNL     1       2.435   2.427  20.267  0.00  0.00    +0.000 N 
ATOM      4  C   UNL     1       1.690   3.323  21.212  0.00  0.00    +0.000 C 
ATOM      5  C   UNL     1       1.440   4.675  20.498  0.00  0.00    +0.000 C 
ATOM      6  C   UNL     1       2.011   4.604  19.059  0.00  0.00    +0.000 C 
ATOM      7  C   UNL     1       1.287   3.441  18.333  0.00  0.00    +0.000 C 
ATOM      8  C   UNL     1       1.516   2.128  19.121  0.00  0.00    +0.000 C 
ENDROOT
BRANCH   1  13
ATOM      9  C   UNL     1       8.113   5.698  19.234  0.00  0.00    +0.000 C 
ATOM     10  C   UNL     1       6.730   5.684  18.717  0.00  0.00    +0.000 A 
ATOM     11  C   UNL     1       6.112   6.307  17.663  0.00  0.00    +0.000 A 
ATOM     12  C   UNL     1       4.770   5.859  17.681  0.00  0.00    +0.000 A 
ATOM     13  C   UNL     1       4.620   4.972  18.744  0.00  0.00    +0.000 A 
ATOM     14  O   UNL     1       5.844   4.893  19.379  0.00  0.00    +0.000 OA
ENDBRANCH   1  13
TORSDOF 1
ENDMDL
MODEL 7
REMARK VINA RESULT:      -6.4      2.131      5.159
REMARK  Name = 
REMARK  2 active torsions:
REMARK  status: ('A' for Active; 'I' for Inactive)
REMARK    1  A    between atoms: C_1  and  C_2
REMARK    2  A    between atoms: C_5  and  C_6
REMARK                            x       y       z     vdW  Elec       q    Type
REMARK                         _______ _______ _______ _____ _____    ______ ____
ROOT
ATOM      1  C   UNL     1       4.223   3.879  17.545  0.00  0.00    +0.000 C 
ATOM      2  C   UNL     1       4.403   4.095  18.864  0.00  0.00    +0.000 C 
ATOM      3  N   UNL     1       3.282   3.893  19.697  0.00  0.00    +0.000 N 
ATOM      4  C   UNL     1       2.151   4.793  19.294  0.00  0.00    +0.000 C 
ATOM      5  C   UNL     1       1.844   4.540  17.796  0.00  0.00    +0.000 C 
ATOM      6  C   UNL     1       2.784   3.429  17.265  0.00  0.00    +0.000 C 
ATOM      7  C   UNL     1       2.522   2.159  18.115  0.00  0.00    +0.000 C 
ATOM      8  C   UNL     1       2.781   2.483  19.607  0.00  0.00    +0.000 C 
ENDROOT
BRANCH   1  13
ATOM      9  C   UNL     1       6.302   3.848  13.160  0.00  0.00    +0.000 C 
ATOM     10  C   UNL     1       6.262   4.133  14.607  0.00  0.00    +0.000 A 
ATOM     11  C   UNL     1       7.133   4.747  15.472  0.00  0.00    +0.000 A 
ATOM     12  C   UNL     1       6.500   4.732  16.736  0.00  0.00    +0.000 A 
ATOM     13  C   UNL     1       5.258   4.115  16.596  0.00  0.00    +0.000 A 
ATOM     14  O   UNL     1       5.143   3.740  15.272  0.00  0.00    +0.000 OA
ENDBRANCH   1  13
TORSDOF 1
ENDMDL
MODEL 8
REMARK VINA RESULT:      -6.4      1.475      1.834
REMARK  Name = 
REMARK  2 active torsions:
REMARK  status: ('A' for Active; 'I' for Inactive)
REMARK    1  A    between atoms: C_1  and  C_2
REMARK    2  A    between atoms: C_5  and  C_6
REMARK                            x       y       z     vdW  Elec       q    Type
REMARK                         _______ _______ _______ _____ _____    ______ ____
ROOT
ATOM      1  C   UNL     1       4.775   5.300  18.411  0.00  0.00    +0.000 C 
ATOM      2  C   UNL     1       5.947   4.678  18.653  0.00  0.00    +0.000 C 
ATOM      3  N   UNL     1       6.957   4.830  17.680  0.00  0.00    +0.000 N 
ATOM      4  C   UNL     1       6.496   4.314  16.349  0.00  0.00    +0.000 C 
ATOM      5  C   UNL     1       5.183   5.048  15.976  0.00  0.00    +0.000 C 
ATOM      6  C   UNL     1       4.840   6.072  17.087  0.00  0.00    +0.000 C 
ATOM      7  C   UNL     1       6.029   7.061  17.185  0.00  0.00    +0.000 C 
ATOM      8  C   UNL     1       7.324   6.272  17.495  0.00  0.00    +0.000 C 
ENDROOT
BRANCH   1  13
ATOM      9  C   UNL     1       1.903   3.054  21.614  0.00  0.00    +0.000 C 
ATOM     10  C   UNL     1       2.305   4.188  20.759  0.00  0.00    +0.000 A 
ATOM     11  C   UNL     1       1.804   5.452  20.572  0.00  0.00    +0.000 A 
ATOM     12  C   UNL     1       2.659   6.072  19.631  0.00  0.00    +0.000 A 
ATOM     13  C   UNL     1       3.658   5.166  19.283  0.00  0.00    +0.000 A 
ATOM     14  O   UNL     1       3.406   4.002  19.983  0.00  0.00    +0.000 OA
ENDBRANCH   1  13
TORSDOF 1
ENDMDL
MODEL 9
REMARK VINA RESULT:      -6.4      2.125      5.245
REMARK  Name = 
REMARK  2 active torsions:
REMARK  status: ('A' for Active; 'I' for Inactive)
REMARK    1  A    between atoms: C_1  and  C_2
REMARK    2  A    between atoms: C_5  and  C_6
REMARK                            x       y       z     vdW  Elec       q    Type
REMARK                         _______ _______ _______ _____ _____    ______ ____
ROOT
ATOM      1  C   UNL     1       3.717   3.977  19.025  0.00  0.00    +0.000 C 
ATOM      2  C   UNL     1       3.613   2.826  19.721  0.00  0.00    +0.000 C 
ATOM      3  N   UNL     1       2.339   2.514  20.241  0.00  0.00    +0.000 N 
ATOM      4  C   UNL     1       1.866   3.591  21.173  0.00  0.00    +0.000 C 
ATOM      5  C   UNL     1       1.892   4.937  20.405  0.00  0.00    +0.000 C 
ATOM      6  C   UNL     1       2.358   4.684  18.950  0.00  0.00    +0.000 C 
ATOM      7  C   UNL     1       1.354   3.691  18.311  0.00  0.00    +0.000 C 
ATOM      8  C   UNL     1       1.319   2.391  19.150  0.00  0.00    +0.000 C 
ENDROOT
BRANCH   1  13
ATOM      9  C   UNL     1       7.082   4.754  15.615  0.00  0.00    +0.000 C 
ATOM     10  C   UNL     1       6.542   4.824  16.987  0.00  0.00    +0.000 A 
ATOM     11  C   UNL     1       7.002   5.379  18.154  0.00  0.00    +0.000 A 
ATOM     12  C   UNL     1       6.003   5.129  19.123  0.00  0.00    +0.000 A 
ATOM     13  C   UNL     1       4.963   4.434  18.510  0.00  0.00    +0.000 A 
ATOM     14  O   UNL     1       5.329   4.245  17.192  0.00  0.00    +0.000 OA
ENDBRANCH   1  13
TORSDOF 1
ENDMDL
