MODEL 1
REMARK VINA RESULT:      -8.4      0.000      0.000
REMARK  Name = 
REMARK  8 active torsions:
REMARK  status: ('A' for Active; 'I' for Inactive)
REMARK    1  A    between atoms: C_1  and  N_2
REMARK    2  A    between atoms: C_3  and  C_4
REMARK    3  A    between atoms: N_8  and  C_9
REMARK    4  A    between atoms: C_9  and  C_10
REMARK    5  A    between atoms: N_12  and  C_13
REMARK    6  A    between atoms: C_13  and  C_14
REMARK    7  A    between atoms: C_14  and  C_15
REMARK    8  A    between atoms: C_15  and  N_16
REMARK                            x       y       z     vdW  Elec       q    Type
REMARK                         _______ _______ _______ _____ _____    ______ ____
ROOT
ATOM      1  C   UNL     1       1.973   7.343  19.851  0.00  0.00    +0.000 C 
ATOM      2  C   UNL     1       1.543   8.621  19.756  0.00  0.00    +0.000 C 
ATOM      3  C   UNL     1       1.855   9.469  18.609  0.00  0.00    +0.000 C 
ATOM      4  C   UNL     1       1.008  10.467  18.324  0.00  0.00    +0.000 C 
ATOM      5  N   UNL     1      -0.144  10.762  19.047  0.00  0.00    +0.000 N 
ATOM      6  C   UNL     1      -0.176  10.337  20.411  0.00  0.00    +0.000 A 
ATOM      7  C   UNL     1      -0.931  10.994  21.398  0.00  0.00    +0.000 A 
ATOM      8  C   UNL     1      -0.842  10.626  22.744  0.00  0.00    +0.000 A 
ATOM      9  C   UNL     1      -0.003   9.588  23.131  0.00  0.00    +0.000 A 
ATOM     10  C   UNL     1       0.750   8.902  22.176  0.00  0.00    +0.000 A 
ATOM     11  C   UNL     1       0.674   9.254  20.817  0.00  0.00    +0.000 A 
ENDROOT
BRANCH   1  14
ATOM     12  C   UNL     1       2.408   4.371  19.555  0.00  0.00    +0.000 C 
ATOM     13  N   UNL     1       2.983   5.401  18.697  0.00  0.00    +0.000 N 
ATOM     14  C   UNL     1       2.782   6.701  18.868  0.00  0.00    +0.000 A 
ATOM     15  S   UNL     1       3.731   7.608  17.757  0.00  0.00    +0.000 S 
ATOM     16  C   UNL     1       4.354   6.186  17.008  0.00  0.00    +0.000 A 
ATOM     17  C   UNL     1       5.265   6.071  15.946  0.00  0.00    +0.000 A 
ATOM     18  C   UNL     1       5.613   4.789  15.507  0.00  0.00    +0.000 A 
ATOM     19  C   UNL     1       5.061   3.657  16.099  0.00  0.00    +0.000 A 
ATOM     20  C   UNL     1       4.158   3.778  17.164  0.00  0.00    +0.000 A 
ATOM     21  C   UNL     1       3.814   5.065  17.631  0.00  0.00    +0.000 A 
ENDBRANCH   1  14
BRANCH   5  22
ATOM     22  C   UNL     1      -1.145  11.743  18.551  0.00  0.00    +0.000 C 
BRANCH  22  23
ATOM     23  C   UNL     1      -2.313  11.079  17.777  0.00  0.00    +0.000 C 
ATOM     24  O   UNL     1      -3.488  11.092  18.147  0.00  0.00    +0.000 OA
ATOM     25  N   UNL     1      -1.937  10.412  16.622  0.00  0.00    +0.000 N 
ATOM     26  H   UNL     1      -0.974  10.457  16.302  0.00  0.00    +0.000 HD
BRANCH  25  27
ATOM     27  C   UNL     1      -2.906   9.742  15.773  0.00  0.00    +0.000 C 
BRANCH  27  28
ATOM     28  C   UNL     1      -3.368  10.604  14.600  0.00  0.00    +0.000 C 
BRANCH  28  29
ATOM     29  C   UNL     1      -3.685   9.776  13.356  0.00  0.00    +0.000 C 
BRANCH  29  30
ATOM     30  N   UNL     1      -2.482   9.591  12.551  0.00  0.00    +0.000 NA
ATOM     31  H   UNL     1      -2.479  10.250  11.771  0.00  0.00    +0.000 HD
ATOM     32  H   UNL     1      -2.494   8.662  12.130  0.00  0.00    +0.000 HD
ENDBRANCH  29  30
ENDBRANCH  28  29
ENDBRANCH  27  28
ENDBRANCH  25  27
ENDBRANCH  22  23
ENDBRANCH   5  22
TORSDOF 7
ENDMDL
MODEL 2
REMARK VINA RESULT:      -8.3      3.867      8.321
REMARK  Name = 
REMARK  8 active torsions:
REMARK  status: ('A' for Active; 'I' for Inactive)
REMARK    1  A    between atoms: C_1  and  N_2
REMARK    2  A    between atoms: C_3  and  C_4
REMARK    3  A    between atoms: N_8  and  C_9
REMARK    4  A    between atoms: C_9  and  C_10
REMARK    5  A    between atoms: N_12  and  C_13
REMARK    6  A    between atoms: C_13  and  C_14
REMARK    7  A    between atoms: C_14  and  C_15
REMARK    8  A    between atoms: C_15  and  N_16
REMARK                            x       y       z     vdW  Elec       q    Type
REMARK                         _______ _______ _______ _____ _____    ______ ____
ROOT
ATOM      1  C   UNL     1       1.681   7.310  20.214  0.00  0.00    +0.000 C 
ATOM      2  C   UNL     1       2.574   6.654  19.439  0.00  0.00    +0.000 C 
ATOM      3  C   UNL     1       3.297   7.309  18.352  0.00  0.00    +0.000 C 
ATOM      4  C   UNL     1       4.486   6.801  18.001  0.00  0.00    +0.000 C 
ATOM      5  N   UNL     1       5.081   5.690  18.591  0.00  0.00    +0.000 N 
ATOM      6  C   UNL     1       4.209   4.754  19.228  0.00  0.00    +0.000 A 
ATOM      7  C   UNL     1       4.517   3.388  19.357  0.00  0.00    +0.000 A 
ATOM      8  C   UNL     1       3.589   2.481  19.875  0.00  0.00    +0.000 A 
ATOM      9  C   UNL     1       2.335   2.920  20.283  0.00  0.00    +0.000 A 
ATOM     10  C   UNL     1       1.999   4.271  20.185  0.00  0.00    +0.000 A 
ATOM     11  C   UNL     1       2.919   5.201  19.670  0.00  0.00    +0.000 A 
ENDROOT
BRANCH   1  14
ATOM     12  C   UNL     1       0.945   9.256  22.400  0.00  0.00    +0.000 C 
ATOM     13  N   UNL     1       1.024   9.570  20.977  0.00  0.00    +0.000 N 
ATOM     14  C   UNL     1       1.336   8.682  20.042  0.00  0.00    +0.000 A 
ATOM     15  S   UNL     1       1.191   9.382  18.477  0.00  0.00    +0.000 S 
ATOM     16  C   UNL     1       0.766  10.923  19.120  0.00  0.00    +0.000 A 
ATOM     17  C   UNL     1       0.459  12.113  18.439  0.00  0.00    +0.000 A 
ATOM     18  C   UNL     1       0.149  13.248  19.195  0.00  0.00    +0.000 A 
ATOM     19  C   UNL     1       0.158  13.204  20.587  0.00  0.00    +0.000 A 
ATOM     20  C   UNL     1       0.457  12.013  21.260  0.00  0.00    +0.000 A 
ATOM     21  C   UNL     1       0.752  10.853  20.510  0.00  0.00    +0.000 A 
ENDBRANCH   1  14
BRANCH   5  22
ATOM     22  C   UNL     1       6.489   5.314  18.299  0.00  0.00    +0.000 C 
BRANCH  22  23
ATOM     23  C   UNL     1       6.888   5.555  16.820  0.00  0.00    +0.000 C 
ATOM     24  O   UNL     1       7.550   6.515  16.427  0.00  0.00    +0.000 OA
ATOM     25  N   UNL     1       6.403   4.611  15.929  0.00  0.00    +0.000 N 
ATOM     26  H   UNL     1       5.905   3.796  16.276  0.00  0.00    +0.000 HD
BRANCH  25  27
ATOM     27  C   UNL     1       6.689   4.679  14.507  0.00  0.00    +0.000 C 
BRANCH  27  28
ATOM     28  C   UNL     1       5.890   3.669  13.688  0.00  0.00    +0.000 C 
BRANCH  28  29
ATOM     29  C   UNL     1       6.453   3.480  12.281  0.00  0.00    +0.000 C 
BRANCH  29  30
ATOM     30  N   UNL     1       5.928   2.256  11.686  0.00  0.00    +0.000 NA
ATOM     31  H   UNL     1       4.908   2.267  11.704  0.00  0.00    +0.000 HD
ATOM     32  H   UNL     1       6.207   1.455  12.252  0.00  0.00    +0.000 HD
ENDBRANCH  29  30
ENDBRANCH  28  29
ENDBRANCH  27  28
ENDBRANCH  25  27
ENDBRANCH  22  23
ENDBRANCH   5  22
TORSDOF 7
ENDMDL
MODEL 3
REMARK VINA RESULT:      -8.3      1.681      2.097
REMARK  Name = 
REMARK  8 active torsions:
REMARK  status: ('A' for Active; 'I' for Inactive)
REMARK    1  A    between atoms: C_1  and  N_2
REMARK    2  A    between atoms: C_3  and  C_4
REMARK    3  A    between atoms: N_8  and  C_9
REMARK    4  A    between atoms: C_9  and  C_10
REMARK    5  A    between atoms: N_12  and  C_13
REMARK    6  A    between atoms: C_13  and  C_14
REMARK    7  A    between atoms: C_14  and  C_15
REMARK    8  A    between atoms: C_15  and  N_16
REMARK                            x       y       z     vdW  Elec       q    Type
REMARK                         _______ _______ _______ _____ _____    ______ ____
ROOT
ATOM      1  C   UNL     1       1.975   7.419  19.911  0.00  0.00    +0.000 C 
ATOM      2  C   UNL     1       1.513   8.686  19.813  0.00  0.00    +0.000 C 
ATOM      3  C   UNL     1       1.778   9.528  18.650  0.00  0.00    +0.000 C 
ATOM      4  C   UNL     1       0.902  10.503  18.374  0.00  0.00    +0.000 C 
ATOM      5  N   UNL     1      -0.240  10.779  19.120  0.00  0.00    +0.000 N 
ATOM      6  C   UNL     1      -0.231  10.369  20.488  0.00  0.00    +0.000 A 
ATOM      7  C   UNL     1      -0.978  11.019  21.486  0.00  0.00    +0.000 A 
ATOM      8  C   UNL     1      -0.851  10.668  22.833  0.00  0.00    +0.000 A 
ATOM      9  C   UNL     1       0.022   9.654  23.212  0.00  0.00    +0.000 A 
ATOM     10  C   UNL     1       0.769   8.975  22.247  0.00  0.00    +0.000 A 
ATOM     11  C   UNL     1       0.653   9.310  20.887  0.00  0.00    +0.000 A 
ENDROOT
BRANCH   1  14
ATOM     12  C   UNL     1       2.531   4.462  19.679  0.00  0.00    +0.000 C 
ATOM     13  N   UNL     1       3.029   5.491  18.773  0.00  0.00    +0.000 N 
ATOM     14  C   UNL     1       2.776   6.786  18.916  0.00  0.00    +0.000 A 
ATOM     15  S   UNL     1       3.644   7.701  17.747  0.00  0.00    +0.000 S 
ATOM     16  C   UNL     1       4.303   6.287  17.014  0.00  0.00    +0.000 A 
ATOM     17  C   UNL     1       5.180   6.182  15.923  0.00  0.00    +0.000 A 
ATOM     18  C   UNL     1       5.569   4.905  15.506  0.00  0.00    +0.000 A 
ATOM     19  C   UNL     1       5.089   3.766  16.148  0.00  0.00    +0.000 A 
ATOM     20  C   UNL     1       4.220   3.878  17.242  0.00  0.00    +0.000 A 
ATOM     21  C   UNL     1       3.835   5.162  17.686  0.00  0.00    +0.000 A 
ENDBRANCH   1  14
BRANCH   5  22
ATOM     22  C   UNL     1      -1.274  11.731  18.636  0.00  0.00    +0.000 C 
BRANCH  22  23
ATOM     23  C   UNL     1      -2.423  11.036  17.860  0.00  0.00    +0.000 C 
ATOM     24  O   UNL     1      -2.394   9.866  17.478  0.00  0.00    +0.000 OA
ATOM     25  N   UNL     1      -3.506  11.852  17.578  0.00  0.00    +0.000 N 
ATOM     26  H   UNL     1      -3.538  12.798  17.947  0.00  0.00    +0.000 HD
BRANCH  25  27
ATOM     27  C   UNL     1      -4.673  11.361  16.865  0.00  0.00    +0.000 C 
BRANCH  27  28
ATOM     28  C   UNL     1      -5.937  11.361  17.719  0.00  0.00    +0.000 C 
BRANCH  28  29
ATOM     29  C   UNL     1      -6.804  12.595  17.481  0.00  0.00    +0.000 C 
BRANCH  29  30
ATOM     30  N   UNL     1      -6.121  13.794  17.955  0.00  0.00    +0.000 NA
ATOM     31  H   UNL     1      -6.522  14.622  17.515  0.00  0.00    +0.000 HD
ATOM     32  H   UNL     1      -5.145  13.768  17.661  0.00  0.00    +0.000 HD
ENDBRANCH  29  30
ENDBRANCH  28  29
ENDBRANCH  27  28
ENDBRANCH  25  27
ENDBRANCH  22  23
ENDBRANCH   5  22
TORSDOF 7
ENDMDL
MODEL 4
REMARK VINA RESULT:      -8.2      3.971      8.582
REMARK  Name = 
REMARK  8 active torsions:
REMARK  status: ('A' for Active; 'I' for Inactive)
REMARK    1  A    between atoms: C_1  and  N_2
REMARK    2  A    between atoms: C_3  and  C_4
REMARK    3  A    between atoms: N_8  and  C_9
REMARK    4  A    between atoms: C_9  and  C_10
REMARK    5  A    between atoms: N_12  and  C_13
REMARK    6  A    between atoms: C_13  and  C_14
REMARK    7  A    between atoms: C_14  and  C_15
REMARK    8  A    between atoms: C_15  and  N_16
REMARK                            x       y       z     vdW  Elec       q    Type
REMARK                         _______ _______ _______ _____ _____    ______ ____
ROOT
ATOM      1  C   UNL     1       1.489   7.469  20.724  0.00  0.00    +0.000 C 
ATOM      2  C   UNL     1       2.150   6.687  19.841  0.00  0.00    +0.000 C 
ATOM      3  C   UNL     1       2.596   7.180  18.541  0.00  0.00    +0.000 C 
ATOM      4  C   UNL     1       3.650   6.578  17.975  0.00  0.00    +0.000 C 
ATOM      5  N   UNL     1       4.348   5.510  18.532  0.00  0.00    +0.000 N 
ATOM      6  C   UNL     1       3.641   4.696  19.469  0.00  0.00    +0.000 A 
ATOM      7  C   UNL     1       3.943   3.340  19.683  0.00  0.00    +0.000 A 
ATOM      8  C   UNL     1       3.153   2.543  20.517  0.00  0.00    +0.000 A 
ATOM      9  C   UNL     1       2.047   3.087  21.161  0.00  0.00    +0.000 A 
ATOM     10  C   UNL     1       1.726   4.434  20.986  0.00  0.00    +0.000 A 
ATOM     11  C   UNL     1       2.510   5.254  20.154  0.00  0.00    +0.000 A 
ENDROOT
BRANCH   1  14
ATOM     12  C   UNL     1       0.409   9.435  22.745  0.00  0.00    +0.000 C 
ATOM     13  N   UNL     1       0.682   9.726  21.341  0.00  0.00    +0.000 N 
ATOM     14  C   UNL     1       1.142   8.829  20.477  0.00  0.00    +0.000 A 
ATOM     15  S   UNL     1       1.203   9.497  18.894  0.00  0.00    +0.000 S 
ATOM     16  C   UNL     1       0.658  11.039  19.438  0.00  0.00    +0.000 A 
ATOM     17  C   UNL     1       0.423  12.208  18.696  0.00  0.00    +0.000 A 
ATOM     18  C   UNL     1      -0.015  13.348  19.378  0.00  0.00    +0.000 A 
ATOM     19  C   UNL     1      -0.202  13.329  20.757  0.00  0.00    +0.000 A 
ATOM     20  C   UNL     1       0.026  12.158  21.490  0.00  0.00    +0.000 A 
ATOM     21  C   UNL     1       0.449  10.993  20.813  0.00  0.00    +0.000 A 
ENDBRANCH   1  14
BRANCH   5  22
ATOM     22  C   UNL     1       5.633   5.034  17.955  0.00  0.00    +0.000 C 
BRANCH  22  23
ATOM     23  C   UNL     1       6.864   5.808  18.493  0.00  0.00    +0.000 C 
ATOM     24  O   UNL     1       7.546   5.448  19.453  0.00  0.00    +0.000 OA
ATOM     25  N   UNL     1       7.138   6.993  17.829  0.00  0.00    +0.000 N 
ATOM     26  H   UNL     1       6.600   7.249  17.005  0.00  0.00    +0.000 HD
BRANCH  25  27
ATOM     27  C   UNL     1       8.260   7.838  18.197  0.00  0.00    +0.000 C 
BRANCH  27  28
ATOM     28  C   UNL     1       8.022   9.314  17.888  0.00  0.00    +0.000 C 
BRANCH  28  29
ATOM     29  C   UNL     1       9.168  10.203  18.367  0.00  0.00    +0.000 C 
BRANCH  29  30
ATOM     30  N   UNL     1       9.333  10.084  19.811  0.00  0.00    +0.000 NA
ATOM     31  H   UNL     1      10.303   9.858  20.035  0.00  0.00    +0.000 HD
ATOM     32  H   UNL     1       8.779   9.299  20.153  0.00  0.00    +0.000 HD
ENDBRANCH  29  30
ENDBRANCH  28  29
ENDBRANCH  27  28
ENDBRANCH  25  27
ENDBRANCH  22  23
ENDBRANCH   5  22
TORSDOF 7
ENDMDL
MODEL 5
REMARK VINA RESULT:      -8.0      4.083      8.393
REMARK  Name = 
REMARK  8 active torsions:
REMARK  status: ('A' for Active; 'I' for Inactive)
REMARK    1  A    between atoms: C_1  and  N_2
REMARK    2  A    between atoms: C_3  and  C_4
REMARK    3  A    between atoms: N_8  and  C_9
REMARK    4  A    between atoms: C_9  and  C_10
REMARK    5  A    between atoms: N_12  and  C_13
REMARK    6  A    between atoms: C_13  and  C_14
REMARK    7  A    between atoms: C_14  and  C_15
REMARK    8  A    between atoms: C_15  and  N_16
REMARK                            x       y       z     vdW  Elec       q    Type
REMARK                         _______ _______ _______ _____ _____    ______ ____
ROOT
ATOM      1  C   UNL     1       1.535   7.178  19.166  0.00  0.00    +0.000 C 
ATOM      2  C   UNL     1       2.493   6.492  18.503  0.00  0.00    +0.000 C 
ATOM      3  C   UNL     1       3.597   7.155  17.816  0.00  0.00    +0.000 C 
ATOM      4  C   UNL     1       4.736   6.466  17.659  0.00  0.00    +0.000 C 
ATOM      5  N   UNL     1       4.941   5.161  18.096  0.00  0.00    +0.000 N 
ATOM      6  C   UNL     1       3.780   4.345  18.258  0.00  0.00    +0.000 A 
ATOM      7  C   UNL     1       3.807   2.945  18.131  0.00  0.00    +0.000 A 
ATOM      8  C   UNL     1       2.631   2.190  18.175  0.00  0.00    +0.000 A 
ATOM      9  C   UNL     1       1.404   2.817  18.352  0.00  0.00    +0.000 A 
ATOM     10  C   UNL     1       1.339   4.204  18.498  0.00  0.00    +0.000 A 
ATOM     11  C   UNL     1       2.510   4.982  18.460  0.00  0.00    +0.000 A 
ENDROOT
BRANCH   1  14
ATOM     12  C   UNL     1       0.610   8.809  21.532  0.00  0.00    +0.000 C 
ATOM     13  N   UNL     1       1.104   9.351  20.270  0.00  0.00    +0.000 N 
ATOM     14  C   UNL     1       1.487   8.601  19.245  0.00  0.00    +0.000 A 
ATOM     15  S   UNL     1       1.869   9.588  17.889  0.00  0.00    +0.000 S 
ATOM     16  C   UNL     1       1.566  11.042  18.763  0.00  0.00    +0.000 A 
ATOM     17  C   UNL     1       1.653  12.373  18.324  0.00  0.00    +0.000 A 
ATOM     18  C   UNL     1       1.360  13.392  19.237  0.00  0.00    +0.000 A 
ATOM     19  C   UNL     1       1.005  13.095  20.550  0.00  0.00    +0.000 A 
ATOM     20  C   UNL     1       0.912  11.765  20.979  0.00  0.00    +0.000 A 
ATOM     21  C   UNL     1       1.185  10.725  20.063  0.00  0.00    +0.000 A 
ENDBRANCH   1  14
BRANCH   5  22
ATOM     22  C   UNL     1       6.291   4.539  18.081  0.00  0.00    +0.000 C 
BRANCH  22  23
ATOM     23  C   UNL     1       6.903   4.451  16.658  0.00  0.00    +0.000 C 
ATOM     24  O   UNL     1       8.100   4.594  16.407  0.00  0.00    +0.000 OA
ATOM     25  N   UNL     1       5.983   4.233  15.645  0.00  0.00    +0.000 N 
ATOM     26  H   UNL     1       5.008   4.063  15.875  0.00  0.00    +0.000 HD
BRANCH  25  27
ATOM     27  C   UNL     1       6.385   4.115  14.255  0.00  0.00    +0.000 C 
BRANCH  27  28
ATOM     28  C   UNL     1       5.234   3.727  13.332  0.00  0.00    +0.000 C 
BRANCH  28  29
ATOM     29  C   UNL     1       5.710   3.352  11.929  0.00  0.00    +0.000 C 
BRANCH  29  30
ATOM     30  N   UNL     1       6.114   1.951  11.889  0.00  0.00    +0.000 NA
ATOM     31  H   UNL     1       7.044   1.844  12.295  0.00  0.00    +0.000 HD
ATOM     32  H   UNL     1       6.198   1.649  10.918  0.00  0.00    +0.000 HD
ENDBRANCH  29  30
ENDBRANCH  28  29
ENDBRANCH  27  28
ENDBRANCH  25  27
ENDBRANCH  22  23
ENDBRANCH   5  22
TORSDOF 7
ENDMDL
MODEL 6
REMARK VINA RESULT:      -8.0      3.736      8.221
REMARK  Name = 
REMARK  8 active torsions:
REMARK  status: ('A' for Active; 'I' for Inactive)
REMARK    1  A    between atoms: C_1  and  N_2
REMARK    2  A    between atoms: C_3  and  C_4
REMARK    3  A    between atoms: N_8  and  C_9
REMARK    4  A    between atoms: C_9  and  C_10
REMARK    5  A    between atoms: N_12  and  C_13
REMARK    6  A    between atoms: C_13  and  C_14
REMARK    7  A    between atoms: C_14  and  C_15
REMARK    8  A    between atoms: C_15  and  N_16
REMARK                            x       y       z     vdW  Elec       q    Type
REMARK                         _______ _______ _______ _____ _____    ______ ____
ROOT
ATOM      1  C   UNL     1       1.360   7.779  20.772  0.00  0.00    +0.000 C 
ATOM      2  C   UNL     1       2.067   7.172  19.793  0.00  0.00    +0.000 C 
ATOM      3  C   UNL     1       2.386   7.837  18.532  0.00  0.00    +0.000 C 
ATOM      4  C   UNL     1       3.477   7.427  17.872  0.00  0.00    +0.000 C 
ATOM      5  N   UNL     1       4.326   6.408  18.295  0.00  0.00    +0.000 N 
ATOM      6  C   UNL     1       3.769   5.427  19.171  0.00  0.00    +0.000 A 
ATOM      7  C   UNL     1       4.242   4.105  19.239  0.00  0.00    +0.000 A 
ATOM      8  C   UNL     1       3.595   3.142  20.017  0.00  0.00    +0.000 A 
ATOM      9  C   UNL     1       2.465   3.480  20.752  0.00  0.00    +0.000 A 
ATOM     10  C   UNL     1       1.975   4.787  20.723  0.00  0.00    +0.000 A 
ATOM     11  C   UNL     1       2.612   5.772  19.949  0.00  0.00    +0.000 A 
ENDROOT
BRANCH   1  14
ATOM     12  C   UNL     1       0.327   9.468  23.051  0.00  0.00    +0.000 C 
ATOM     13  N   UNL     1       0.393   9.880  21.652  0.00  0.00    +0.000 N 
ATOM     14  C   UNL     1       0.839   9.102  20.674  0.00  0.00    +0.000 A 
ATOM     15  S   UNL     1       0.632   9.874  19.151  0.00  0.00    +0.000 S 
ATOM     16  C   UNL     1      -0.007  11.303  19.873  0.00  0.00    +0.000 A 
ATOM     17  C   UNL     1      -0.456  12.482  19.258  0.00  0.00    +0.000 A 
ATOM     18  C   UNL     1      -0.929  13.516  20.072  0.00  0.00    +0.000 A 
ATOM     19  C   UNL     1      -0.943  13.385  21.458  0.00  0.00    +0.000 A 
ATOM     20  C   UNL     1      -0.500  12.203  22.066  0.00  0.00    +0.000 A 
ATOM     21  C   UNL     1      -0.039  11.143  21.256  0.00  0.00    +0.000 A 
ENDBRANCH   1  14
BRANCH   5  22
ATOM     22  C   UNL     1       5.629   6.153  17.627  0.00  0.00    +0.000 C 
BRANCH  22  23
ATOM     23  C   UNL     1       5.486   5.841  16.115  0.00  0.00    +0.000 C 
ATOM     24  O   UNL     1       5.219   6.680  15.254  0.00  0.00    +0.000 OA
ATOM     25  N   UNL     1       5.643   4.505  15.782  0.00  0.00    +0.000 N 
ATOM     26  H   UNL     1       5.917   3.834  16.495  0.00  0.00    +0.000 HD
BRANCH  25  27
ATOM     27  C   UNL     1       5.549   4.039  14.410  0.00  0.00    +0.000 C 
BRANCH  27  28
ATOM     28  C   UNL     1       6.822   4.290  13.606  0.00  0.00    +0.000 C 
BRANCH  28  29
ATOM     29  C   UNL     1       6.719   3.777  12.172  0.00  0.00    +0.000 C 
BRANCH  29  30
ATOM     30  N   UNL     1       5.914   2.561  12.125  0.00  0.00    +0.000 NA
ATOM     31  H   UNL     1       5.610   2.306  13.065  0.00  0.00    +0.000 HD
ATOM     32  H   UNL     1       6.488   1.785  11.798  0.00  0.00    +0.000 HD
ENDBRANCH  29  30
ENDBRANCH  28  29
ENDBRANCH  27  28
ENDBRANCH  25  27
ENDBRANCH  22  23
ENDBRANCH   5  22
TORSDOF 7
ENDMDL
MODEL 7
REMARK VINA RESULT:      -8.0      3.740      8.359
REMARK  Name = 
REMARK  8 active torsions:
REMARK  status: ('A' for Active; 'I' for Inactive)
REMARK    1  A    between atoms: C_1  and  N_2
REMARK    2  A    between atoms: C_3  and  C_4
REMARK    3  A    between atoms: N_8  and  C_9
REMARK    4  A    between atoms: C_9  and  C_10
REMARK    5  A    between atoms: N_12  and  C_13
REMARK    6  A    between atoms: C_13  and  C_14
REMARK    7  A    between atoms: C_14  and  C_15
REMARK    8  A    between atoms: C_15  and  N_16
REMARK                            x       y       z     vdW  Elec       q    Type
REMARK                         _______ _______ _______ _____ _____    ______ ____
ROOT
ATOM      1  C   UNL     1       1.781   7.027  20.670  0.00  0.00    +0.000 C 
ATOM      2  C   UNL     1       1.968   6.011  19.797  0.00  0.00    +0.000 C 
ATOM      3  C   UNL     1       1.802   6.177  18.357  0.00  0.00    +0.000 C 
ATOM      4  C   UNL     1       2.485   5.353  17.552  0.00  0.00    +0.000 C 
ATOM      5  N   UNL     1       3.338   4.344  17.988  0.00  0.00    +0.000 N 
ATOM      6  C   UNL     1       3.104   3.823  19.298  0.00  0.00    +0.000 A 
ATOM      7  C   UNL     1       3.444   2.511  19.671  0.00  0.00    +0.000 A 
ATOM      8  C   UNL     1       3.089   1.997  20.921  0.00  0.00    +0.000 A 
ATOM      9  C   UNL     1       2.394   2.786  21.830  0.00  0.00    +0.000 A 
ATOM     10  C   UNL     1       2.053   4.100  21.501  0.00  0.00    +0.000 A 
ATOM     11  C   UNL     1       2.403   4.637  20.250  0.00  0.00    +0.000 A 
ENDROOT
BRANCH   1  14
ATOM     12  C   UNL     1      -0.360   8.704  21.980  0.00  0.00    +0.000 C 
ATOM     13  N   UNL     1       0.464   9.114  20.847  0.00  0.00    +0.000 N 
ATOM     14  C   UNL     1       1.386   8.342  20.287  0.00  0.00    +0.000 A 
ATOM     15  S   UNL     1       2.048   9.108  18.897  0.00  0.00    +0.000 S 
ATOM     16  C   UNL     1       1.099  10.527  19.130  0.00  0.00    +0.000 A 
ATOM     17  C   UNL     1       1.051  11.699  18.357  0.00  0.00    +0.000 A 
ATOM     18  C   UNL     1       0.194  12.726  18.763  0.00  0.00    +0.000 A 
ATOM     19  C   UNL     1      -0.583  12.598  19.911  0.00  0.00    +0.000 A 
ATOM     20  C   UNL     1      -0.537  11.424  20.674  0.00  0.00    +0.000 A 
ATOM     21  C   UNL     1       0.308  10.370  20.265  0.00  0.00    +0.000 A 
ENDBRANCH   1  14
BRANCH   5  22
ATOM     22  C   UNL     1       4.225   3.613  17.046  0.00  0.00    +0.000 C 
BRANCH  22  23
ATOM     23  C   UNL     1       5.605   4.294  16.859  0.00  0.00    +0.000 C 
ATOM     24  O   UNL     1       5.958   4.881  15.835  0.00  0.00    +0.000 OA
ATOM     25  N   UNL     1       6.465   4.166  17.938  0.00  0.00    +0.000 N 
ATOM     26  H   UNL     1       6.140   3.728  18.795  0.00  0.00    +0.000 HD
BRANCH  25  27
ATOM     27  C   UNL     1       7.794   4.752  17.935  0.00  0.00    +0.000 C 
BRANCH  27  28
ATOM     28  C   UNL     1       7.915   5.963  18.855  0.00  0.00    +0.000 C 
BRANCH  28  29
ATOM     29  C   UNL     1       7.842   7.286  18.094  0.00  0.00    +0.000 C 
BRANCH  29  30
ATOM     30  N   UNL     1       7.670   7.040  16.667  0.00  0.00    +0.000 NA
ATOM     31  H   UNL     1       7.097   7.776  16.252  0.00  0.00    +0.000 HD
ATOM     32  H   UNL     1       7.150   6.173  16.531  0.00  0.00    +0.000 HD
ENDBRANCH  29  30
ENDBRANCH  28  29
ENDBRANCH  27  28
ENDBRANCH  25  27
ENDBRANCH  22  23
ENDBRANCH   5  22
TORSDOF 7
ENDMDL
MODEL 8
REMARK VINA RESULT:      -8.0      3.999      8.231
REMARK  Name = 
REMARK  8 active torsions:
REMARK  status: ('A' for Active; 'I' for Inactive)
REMARK    1  A    between atoms: C_1  and  N_2
REMARK    2  A    between atoms: C_3  and  C_4
REMARK    3  A    between atoms: N_8  and  C_9
REMARK    4  A    between atoms: C_9  and  C_10
REMARK    5  A    between atoms: N_12  and  C_13
REMARK    6  A    between atoms: C_13  and  C_14
REMARK    7  A    between atoms: C_14  and  C_15
REMARK    8  A    between atoms: C_15  and  N_16
REMARK                            x       y       z     vdW  Elec       q    Type
REMARK                         _______ _______ _______ _____ _____    ______ ____
ROOT
ATOM      1  C   UNL     1       1.322   7.536  20.248  0.00  0.00    +0.000 C 
ATOM      2  C   UNL     1       2.232   6.740  19.643  0.00  0.00    +0.000 C 
ATOM      3  C   UNL     1       3.220   7.257  18.700  0.00  0.00    +0.000 C 
ATOM      4  C   UNL     1       4.365   6.576  18.563  0.00  0.00    +0.000 C 
ATOM      5  N   UNL     1       4.680   5.405  19.248  0.00  0.00    +0.000 N 
ATOM      6  C   UNL     1       3.584   4.621  19.721  0.00  0.00    +0.000 A 
ATOM      7  C   UNL     1       3.663   3.228  19.902  0.00  0.00    +0.000 A 
ATOM      8  C   UNL     1       2.537   2.477  20.249  0.00  0.00    +0.000 A 
ATOM      9  C   UNL     1       1.308   3.101  20.430  0.00  0.00    +0.000 A 
ATOM     10  C   UNL     1       1.194   4.484  20.275  0.00  0.00    +0.000 A 
ATOM     11  C   UNL     1       2.315   5.259  19.929  0.00  0.00    +0.000 A 
ENDROOT
BRANCH   1  14
ATOM     12  C   UNL     1       0.726   9.647  22.321  0.00  0.00    +0.000 C 
ATOM     13  N   UNL     1       0.973   9.897  20.905  0.00  0.00    +0.000 N 
ATOM     14  C   UNL     1       1.216   8.939  20.019  0.00  0.00    +0.000 A 
ATOM     15  S   UNL     1       1.314   9.599  18.434  0.00  0.00    +0.000 S 
ATOM     16  C   UNL     1       1.089  11.209  19.005  0.00  0.00    +0.000 A 
ATOM     17  C   UNL     1       1.033  12.408  18.276  0.00  0.00    +0.000 A 
ATOM     18  C   UNL     1       0.846  13.603  18.979  0.00  0.00    +0.000 A 
ATOM     19  C   UNL     1       0.732  13.606  20.366  0.00  0.00    +0.000 A 
ATOM     20  C   UNL     1       0.780  12.406  21.088  0.00  0.00    +0.000 A 
ATOM     21  C   UNL     1       0.948  11.190  20.390  0.00  0.00    +0.000 A 
ENDBRANCH   1  14
BRANCH   5  22
ATOM     22  C   UNL     1       6.047   4.824  19.208  0.00  0.00    +0.000 C 
BRANCH  22  23
ATOM     23  C   UNL     1       6.539   4.528  17.767  0.00  0.00    +0.000 C 
ATOM     24  O   UNL     1       7.626   4.890  17.316  0.00  0.00    +0.000 OA
ATOM     25  N   UNL     1       5.633   3.838  16.977  0.00  0.00    +0.000 N 
ATOM     26  H   UNL     1       4.765   3.499  17.381  0.00  0.00    +0.000 HD
BRANCH  25  27
ATOM     27  C   UNL     1       5.935   3.470  15.605  0.00  0.00    +0.000 C 
BRANCH  27  28
ATOM     28  C   UNL     1       5.462   4.508  14.591  0.00  0.00    +0.000 C 
BRANCH  28  29
ATOM     29  C   UNL     1       6.602   5.046  13.730  0.00  0.00    +0.000 C 
BRANCH  29  30
ATOM     30  N   UNL     1       7.769   5.333  14.556  0.00  0.00    +0.000 NA
ATOM     31  H   UNL     1       8.590   5.471  13.966  0.00  0.00    +0.000 HD
ATOM     32  H   UNL     1       7.980   4.525  15.141  0.00  0.00    +0.000 HD
ENDBRANCH  29  30
ENDBRANCH  28  29
ENDBRANCH  27  28
ENDBRANCH  25  27
ENDBRANCH  22  23
ENDBRANCH   5  22
TORSDOF 7
ENDMDL
MODEL 9
REMARK VINA RESULT:      -7.9      0.973      1.198
REMARK  Name = 
REMARK  8 active torsions:
REMARK  status: ('A' for Active; 'I' for Inactive)
REMARK    1  A    between atoms: C_1  and  N_2
REMARK    2  A    between atoms: C_3  and  C_4
REMARK    3  A    between atoms: N_8  and  C_9
REMARK    4  A    between atoms: C_9  and  C_10
REMARK    5  A    between atoms: N_12  and  C_13
REMARK    6  A    between atoms: C_13  and  C_14
REMARK    7  A    between atoms: C_14  and  C_15
REMARK    8  A    between atoms: C_15  and  N_16
REMARK                            x       y       z     vdW  Elec       q    Type
REMARK                         _______ _______ _______ _____ _____    ______ ____
ROOT
ATOM      1  C   UNL     1       1.516   6.999  20.587  0.00  0.00    +0.000 C 
ATOM      2  C   UNL     1       1.201   8.253  20.192  0.00  0.00    +0.000 C 
ATOM      3  C   UNL     1       1.547   8.767  18.870  0.00  0.00    +0.000 C 
ATOM      4  C   UNL     1       0.785   9.745  18.363  0.00  0.00    +0.000 C 
ATOM      5  N   UNL     1      -0.310  10.314  19.008  0.00  0.00    +0.000 N 
ATOM      6  C   UNL     1      -0.332  10.233  20.434  0.00  0.00    +0.000 A 
ATOM      7  C   UNL     1      -0.989  11.177  21.242  0.00  0.00    +0.000 A 
ATOM      8  C   UNL     1      -0.887  11.134  22.636  0.00  0.00    +0.000 A 
ATOM      9  C   UNL     1      -0.131  10.143  23.252  0.00  0.00    +0.000 A 
ATOM     10  C   UNL     1       0.522   9.179  22.482  0.00  0.00    +0.000 A 
ATOM     11  C   UNL     1       0.430   9.202  21.079  0.00  0.00    +0.000 A 
ENDROOT
BRANCH   1  14
ATOM     12  C   UNL     1       1.094   4.012  20.507  0.00  0.00    +0.000 C 
ATOM     13  N   UNL     1       2.061   4.752  19.704  0.00  0.00    +0.000 N 
ATOM     14  C   UNL     1       2.229   6.067  19.778  0.00  0.00    +0.000 A 
ATOM     15  S   UNL     1       3.548   6.559  18.791  0.00  0.00    +0.000 S 
ATOM     16  C   UNL     1       3.823   4.957  18.221  0.00  0.00    +0.000 A 
ATOM     17  C   UNL     1       4.798   4.490  17.324  0.00  0.00    +0.000 A 
ATOM     18  C   UNL     1       4.811   3.127  17.009  0.00  0.00    +0.000 A 
ATOM     19  C   UNL     1       3.873   2.258  17.559  0.00  0.00    +0.000 A 
ATOM     20  C   UNL     1       2.907   2.728  18.458  0.00  0.00    +0.000 A 
ATOM     21  C   UNL     1       2.895   4.097  18.802  0.00  0.00    +0.000 A 
ENDBRANCH   1  14
BRANCH   5  22
ATOM     22  C   UNL     1      -1.235  11.239  18.301  0.00  0.00    +0.000 C 
BRANCH  22  23
ATOM     23  C   UNL     1      -2.377  10.503  17.555  0.00  0.00    +0.000 C 
ATOM     24  O   UNL     1      -3.437  10.156  18.077  0.00  0.00    +0.000 OA
ATOM     25  N   UNL     1      -2.109  10.213  16.227  0.00  0.00    +0.000 N 
ATOM     26  H   UNL     1      -1.253  10.554  15.797  0.00  0.00    +0.000 HD
BRANCH  25  27
ATOM     27  C   UNL     1      -3.073   9.535  15.379  0.00  0.00    +0.000 C 
BRANCH  27  28
ATOM     28  C   UNL     1      -3.698  10.454  14.333  0.00  0.00    +0.000 C 
BRANCH  28  29
ATOM     29  C   UNL     1      -3.690   9.839  12.935  0.00  0.00    +0.000 C 
BRANCH  29  30
ATOM     30  N   UNL     1      -2.327   9.510  12.533  0.00  0.00    +0.000 NA
ATOM     31  H   UNL     1      -2.158   9.825  11.577  0.00  0.00    +0.000 HD
ATOM     32  H   UNL     1      -2.212   8.497  12.516  0.00  0.00    +0.000 HD
ENDBRANCH  29  30
ENDBRANCH  28  29
ENDBRANCH  27  28
ENDBRANCH  25  27
ENDBRANCH  22  23
ENDBRANCH   5  22
TORSDOF 7
ENDMDL
