MODEL 1
REMARK VINA RESULT:      -7.8      0.000      0.000
REMARK  Name = 
REMARK  11 active torsions:
REMARK  status: ('A' for Active; 'I' for Inactive)
REMARK    1  A    between atoms: C_1  and  C_2
REMARK    2  A    between atoms: C_2  and  N_3
REMARK    3  A    between atoms: N_3  and  C_4
REMARK    4  A    between atoms: N_3  and  C_6
REMARK    5  A    between atoms: C_4  and  C_5
REMARK    6  A    between atoms: C_6  and  C_7
REMARK    7  A    between atoms: C_7  and  N_8
REMARK    8  A    between atoms: C_11  and  O_12
REMARK    9  A    between atoms: C_13  and  C_14
REMARK   10  A    between atoms: C_14  and  C_16
REMARK   11  A    between atoms: C_21  and  C_22
REMARK                            x       y       z     vdW  Elec       q    Type
REMARK                         _______ _______ _______ _____ _____    ______ ____
ROOT
ATOM      1  N   UNL     1       4.181   6.004  18.598  0.00  0.00    +0.000 N 
ATOM      2  C   UNL     1       4.007   6.825  17.514  0.00  0.00    +0.000 C 
ATOM      3  O   UNL     1       3.189   7.705  17.326  0.00  0.00    +0.000 OA
ATOM      4  C   UNL     1       5.044   6.454  16.523  0.00  0.00    +0.000 C 
ATOM      5  C   UNL     1       5.785   5.473  17.055  0.00  0.00    +0.000 C 
ATOM      6  C   UNL     1       5.274   5.066  18.406  0.00  0.00    +0.000 C 
ENDROOT
BRANCH   6   7
ATOM      7  C   UNL     1       4.792   3.624  18.535  0.00  0.00    +0.000 A 
ATOM      8  C   UNL     1       4.059   2.988  17.530  0.00  0.00    +0.000 A 
ATOM      9  C   UNL     1       3.603   1.688  17.739  0.00  0.00    +0.000 A 
ATOM     10  C   UNL     1       3.869   1.057  18.946  0.00  0.00    +0.000 A 
ATOM     11  C   UNL     1       4.581   1.755  19.903  0.00  0.00    +0.000 A 
ATOM     12  N   UNL     1       5.040   3.014  19.728  0.00  0.00    +0.000 NA
ENDBRANCH   6   7
BRANCH   4  13
ATOM     13  O   UNL     1       5.160   7.079  15.317  0.00  0.00    +0.000 OA
ATOM     14  H   UNL     1       4.856   6.428  14.653  0.00  0.00    +0.000 HD
ENDBRANCH   4  13
BRANCH   5  15
ATOM     15  C   UNL     1       6.942   4.827  16.383  0.00  0.00    +0.000 C 
ATOM     16  O   UNL     1       7.913   4.484  17.057  0.00  0.00    +0.000 OA
BRANCH  15  17
ATOM     17  C   UNL     1       6.932   4.649  14.939  0.00  0.00    +0.000 A 
ATOM     18  C   UNL     1       6.196   3.790  14.142  0.00  0.00    +0.000 A 
ATOM     19  C   UNL     1       6.620   4.002  12.806  0.00  0.00    +0.000 A 
ATOM     20  C   UNL     1       7.578   4.982  12.862  0.00  0.00    +0.000 A 
ATOM     21  O   UNL     1       7.752   5.393  14.140  0.00  0.00    +0.000 OA
ENDBRANCH  15  17
ENDBRANCH   5  15
BRANCH   1  22
ATOM     22  C   UNL     1       3.442   6.095  19.851  0.00  0.00    +0.000 C 
BRANCH  22  23
ATOM     23  C   UNL     1       1.909   5.921  19.709  0.00  0.00    +0.000 C 
BRANCH  23  24
ATOM     24  N   UNL     1       1.332   4.704  20.325  0.00  0.00    +0.000 NA
BRANCH  24  26
ATOM     25  C   UNL     1       1.104   4.196  17.857  0.00  0.00    +0.000 C 
ATOM     26  C   UNL     1       0.942   3.722  19.298  0.00  0.00    +0.000 C 
ENDBRANCH  24  26
BRANCH  24  27
ATOM     27  C   UNL     1       2.221   4.158  21.367  0.00  0.00    +0.000 C 
ATOM     28  C   UNL     1       1.964   2.715  21.798  0.00  0.00    +0.000 C 
ENDBRANCH  24  27
ENDBRANCH  23  24
ENDBRANCH  22  23
ENDBRANCH   1  22
TORSDOF 9
ENDMDL
MODEL 2
REMARK VINA RESULT:      -7.2      2.732      3.839
REMARK  Name = 
REMARK  11 active torsions:
REMARK  status: ('A' for Active; 'I' for Inactive)
REMARK    1  A    between atoms: C_1  and  C_2
REMARK    2  A    between atoms: C_2  and  N_3
REMARK    3  A    between atoms: N_3  and  C_4
REMARK    4  A    between atoms: N_3  and  C_6
REMARK    5  A    between atoms: C_4  and  C_5
REMARK    6  A    between atoms: C_6  and  C_7
REMARK    7  A    between atoms: C_7  and  N_8
REMARK    8  A    between atoms: C_11  and  O_12
REMARK    9  A    between atoms: C_13  and  C_14
REMARK   10  A    between atoms: C_14  and  C_16
REMARK   11  A    between atoms: C_21  and  C_22
REMARK                            x       y       z     vdW  Elec       q    Type
REMARK                         _______ _______ _______ _____ _____    ______ ____
ROOT
ATOM      1  N   UNL     1       2.331   7.047  19.448  0.00  0.00    +0.000 N 
ATOM      2  C   UNL     1       2.686   7.693  18.292  0.00  0.00    +0.000 C 
ATOM      3  O   UNL     1       2.193   8.672  17.764  0.00  0.00    +0.000 OA
ATOM      4  C   UNL     1       3.849   6.966  17.733  0.00  0.00    +0.000 C 
ATOM      5  C   UNL     1       4.144   5.962  18.569  0.00  0.00    +0.000 C 
ATOM      6  C   UNL     1       3.176   5.894  19.714  0.00  0.00    +0.000 C 
ENDROOT
BRANCH   6   7
ATOM      7  C   UNL     1       2.348   4.617  19.819  0.00  0.00    +0.000 A 
ATOM      8  C   UNL     1       2.191   3.925  21.023  0.00  0.00    +0.000 A 
ATOM      9  C   UNL     1       1.468   2.735  21.034  0.00  0.00    +0.000 A 
ATOM     10  C   UNL     1       0.933   2.250  19.848  0.00  0.00    +0.000 A 
ATOM     11  C   UNL     1       1.147   2.975  18.692  0.00  0.00    +0.000 A 
ATOM     12  N   UNL     1       1.840   4.135  18.650  0.00  0.00    +0.000 NA
ENDBRANCH   6   7
BRANCH   4  13
ATOM     13  O   UNL     1       4.460   7.345  16.575  0.00  0.00    +0.000 OA
ATOM     14  H   UNL     1       4.568   8.316  16.640  0.00  0.00    +0.000 HD
ENDBRANCH   4  13
BRANCH   5  15
ATOM     15  C   UNL     1       5.259   5.000  18.375  0.00  0.00    +0.000 C 
ATOM     16  O   UNL     1       5.812   4.514  19.362  0.00  0.00    +0.000 OA
BRANCH  15  17
ATOM     17  C   UNL     1       5.709   4.677  17.030  0.00  0.00    +0.000 A 
ATOM     18  C   UNL     1       5.204   3.788  16.099  0.00  0.00    +0.000 A 
ATOM     19  C   UNL     1       6.062   3.838  14.971  0.00  0.00    +0.000 A 
ATOM     20  C   UNL     1       7.032   4.760  15.273  0.00  0.00    +0.000 A 
ATOM     21  O   UNL     1       6.810   5.287  16.500  0.00  0.00    +0.000 OA
ENDBRANCH  15  17
ENDBRANCH   5  15
BRANCH   1  22
ATOM     22  C   UNL     1       1.300   7.489  20.379  0.00  0.00    +0.000 C 
BRANCH  22  23
ATOM     23  C   UNL     1       1.696   8.711  21.246  0.00  0.00    +0.000 C 
BRANCH  23  24
ATOM     24  N   UNL     1       0.654   9.750  21.419  0.00  0.00    +0.000 NA
BRANCH  24  26
ATOM     25  C   UNL     1       0.122  11.123  19.361  0.00  0.00    +0.000 C 
ATOM     26  C   UNL     1      -0.169   9.885  20.204  0.00  0.00    +0.000 C 
ENDBRANCH  24  26
BRANCH  24  27
ATOM     27  C   UNL     1      -0.127   9.525  22.650  0.00  0.00    +0.000 C 
ATOM     28  C   UNL     1      -1.056  10.658  23.086  0.00  0.00    +0.000 C 
ENDBRANCH  24  27
ENDBRANCH  23  24
ENDBRANCH  22  23
ENDBRANCH   1  22
TORSDOF 9
ENDMDL
MODEL 3
REMARK VINA RESULT:      -7.1      2.716      4.010
REMARK  Name = 
REMARK  11 active torsions:
REMARK  status: ('A' for Active; 'I' for Inactive)
REMARK    1  A    between atoms: C_1  and  C_2
REMARK    2  A    between atoms: C_2  and  N_3
REMARK    3  A    between atoms: N_3  and  C_4
REMARK    4  A    between atoms: N_3  and  C_6
REMARK    5  A    between atoms: C_4  and  C_5
REMARK    6  A    between atoms: C_6  and  C_7
REMARK    7  A    between atoms: C_7  and  N_8
REMARK    8  A    between atoms: C_11  and  O_12
REMARK    9  A    between atoms: C_13  and  C_14
REMARK   10  A    between atoms: C_14  and  C_16
REMARK   11  A    between atoms: C_21  and  C_22
REMARK                            x       y       z     vdW  Elec       q    Type
REMARK                         _______ _______ _______ _____ _____    ______ ____
ROOT
ATOM      1  N   UNL     1       2.429   7.139  19.267  0.00  0.00    +0.000 N 
ATOM      2  C   UNL     1       2.773   7.728  18.078  0.00  0.00    +0.000 C 
ATOM      3  O   UNL     1       2.287   8.691  17.515  0.00  0.00    +0.000 OA
ATOM      4  C   UNL     1       3.915   6.959  17.532  0.00  0.00    +0.000 C 
ATOM      5  C   UNL     1       4.209   5.988  18.406  0.00  0.00    +0.000 C 
ATOM      6  C   UNL     1       3.259   5.986  19.568  0.00  0.00    +0.000 C 
ENDROOT
BRANCH   6   7
ATOM      7  C   UNL     1       2.414   4.728  19.743  0.00  0.00    +0.000 A 
ATOM      8  C   UNL     1       2.227   4.120  20.987  0.00  0.00    +0.000 A 
ATOM      9  C   UNL     1       1.488   2.942  21.064  0.00  0.00    +0.000 A 
ATOM     10  C   UNL     1       0.969   2.384  19.904  0.00  0.00    +0.000 A 
ATOM     11  C   UNL     1       1.213   3.028  18.706  0.00  0.00    +0.000 A 
ATOM     12  N   UNL     1       1.921   4.174  18.599  0.00  0.00    +0.000 NA
ENDBRANCH   6   7
BRANCH   4  13
ATOM     13  O   UNL     1       4.512   7.278  16.349  0.00  0.00    +0.000 OA
ATOM     14  H   UNL     1       3.885   6.995  15.652  0.00  0.00    +0.000 HD
ENDBRANCH   4  13
BRANCH   5  15
ATOM     15  C   UNL     1       5.306   5.000  18.236  0.00  0.00    +0.000 C 
ATOM     16  O   UNL     1       5.821   4.497  19.234  0.00  0.00    +0.000 OA
BRANCH  15  17
ATOM     17  C   UNL     1       5.782   4.672  16.901  0.00  0.00    +0.000 A 
ATOM     18  C   UNL     1       5.316   3.754  15.977  0.00  0.00    +0.000 A 
ATOM     19  C   UNL     1       6.186   3.814  14.860  0.00  0.00    +0.000 A 
ATOM     20  C   UNL     1       7.123   4.770  15.159  0.00  0.00    +0.000 A 
ATOM     21  O   UNL     1       6.870   5.308  16.376  0.00  0.00    +0.000 OA
ENDBRANCH  15  17
ENDBRANCH   5  15
BRANCH   1  22
ATOM     22  C   UNL     1       1.421   7.638  20.194  0.00  0.00    +0.000 C 
BRANCH  22  23
ATOM     23  C   UNL     1       1.385   9.181  20.338  0.00  0.00    +0.000 C 
BRANCH  23  24
ATOM     24  N   UNL     1       0.040   9.799  20.386  0.00  0.00    +0.000 NA
BRANCH  24  26
ATOM     25  C   UNL     1      -0.392   9.708  22.878  0.00  0.00    +0.000 C 
ATOM     26  C   UNL     1      -0.152  10.559  21.634  0.00  0.00    +0.000 C 
ENDBRANCH  24  26
BRANCH  24  27
ATOM     27  C   UNL     1      -0.237  10.575  19.163  0.00  0.00    +0.000 C 
ATOM     28  C   UNL     1      -1.566  10.295  18.462  0.00  0.00    +0.000 C 
ENDBRANCH  24  27
ENDBRANCH  23  24
ENDBRANCH  22  23
ENDBRANCH   1  22
TORSDOF 9
ENDMDL
MODEL 4
REMARK VINA RESULT:      -7.1      2.697      3.946
REMARK  Name = 
REMARK  11 active torsions:
REMARK  status: ('A' for Active; 'I' for Inactive)
REMARK    1  A    between atoms: C_1  and  C_2
REMARK    2  A    between atoms: C_2  and  N_3
REMARK    3  A    between atoms: N_3  and  C_4
REMARK    4  A    between atoms: N_3  and  C_6
REMARK    5  A    between atoms: C_4  and  C_5
REMARK    6  A    between atoms: C_6  and  C_7
REMARK    7  A    between atoms: C_7  and  N_8
REMARK    8  A    between atoms: C_11  and  O_12
REMARK    9  A    between atoms: C_13  and  C_14
REMARK   10  A    between atoms: C_14  and  C_16
REMARK   11  A    between atoms: C_21  and  C_22
REMARK                            x       y       z     vdW  Elec       q    Type
REMARK                         _______ _______ _______ _____ _____    ______ ____
ROOT
ATOM      1  N   UNL     1       2.506   7.157  19.248  0.00  0.00    +0.000 N 
ATOM      2  C   UNL     1       2.809   7.714  18.033  0.00  0.00    +0.000 C 
ATOM      3  O   UNL     1       2.299   8.658  17.459  0.00  0.00    +0.000 OA
ATOM      4  C   UNL     1       3.938   6.935  17.473  0.00  0.00    +0.000 C 
ATOM      5  C   UNL     1       4.265   5.991  18.364  0.00  0.00    +0.000 C 
ATOM      6  C   UNL     1       3.353   6.017  19.556  0.00  0.00    +0.000 C 
ENDROOT
BRANCH   6   7
ATOM      7  C   UNL     1       2.522   4.760  19.793  0.00  0.00    +0.000 A 
ATOM      8  C   UNL     1       1.781   4.152  18.776  0.00  0.00    +0.000 A 
ATOM      9  C   UNL     1       1.000   3.038  19.077  0.00  0.00    +0.000 A 
ATOM     10  C   UNL     1       0.958   2.566  20.382  0.00  0.00    +0.000 A 
ATOM     11  C   UNL     1       1.700   3.231  21.340  0.00  0.00    +0.000 A 
ATOM     12  N   UNL     1       2.470   4.310  21.078  0.00  0.00    +0.000 NA
ENDBRANCH   6   7
BRANCH   4  13
ATOM     13  O   UNL     1       4.495   7.224  16.262  0.00  0.00    +0.000 OA
ATOM     14  H   UNL     1       5.457   7.088  16.376  0.00  0.00    +0.000 HD
ENDBRANCH   4  13
BRANCH   5  15
ATOM     15  C   UNL     1       5.362   5.005  18.187  0.00  0.00    +0.000 C 
ATOM     16  O   UNL     1       5.854   4.468  19.180  0.00  0.00    +0.000 OA
BRANCH  15  17
ATOM     17  C   UNL     1       5.868   4.718  16.854  0.00  0.00    +0.000 A 
ATOM     18  C   UNL     1       7.124   4.907  16.305  0.00  0.00    +0.000 A 
ATOM     19  C   UNL     1       7.049   4.500  14.950  0.00  0.00    +0.000 A 
ATOM     20  C   UNL     1       5.759   4.078  14.751  0.00  0.00    +0.000 A 
ATOM     21  O   UNL     1       5.051   4.182  15.900  0.00  0.00    +0.000 OA
ENDBRANCH  15  17
ENDBRANCH   5  15
BRANCH   1  22
ATOM     22  C   UNL     1       1.525   7.676  20.192  0.00  0.00    +0.000 C 
BRANCH  22  23
ATOM     23  C   UNL     1       1.443   9.223  20.251  0.00  0.00    +0.000 C 
BRANCH  23  24
ATOM     24  N   UNL     1       0.080   9.800  20.316  0.00  0.00    +0.000 NA
BRANCH  24  26
ATOM     25  C   UNL     1      -0.464   9.527  22.773  0.00  0.00    +0.000 C 
ATOM     26  C   UNL     1      -0.154  10.465  21.610  0.00  0.00    +0.000 C 
ENDBRANCH  24  26
BRANCH  24  27
ATOM     27  C   UNL     1      -0.198  10.652  19.145  0.00  0.00    +0.000 C 
ATOM     28  C   UNL     1      -1.345  10.211  18.236  0.00  0.00    +0.000 C 
ENDBRANCH  24  27
ENDBRANCH  23  24
ENDBRANCH  22  23
ENDBRANCH   1  22
TORSDOF 9
ENDMDL
MODEL 5
REMARK VINA RESULT:      -7.1      2.644      3.624
REMARK  Name = 
REMARK  11 active torsions:
REMARK  status: ('A' for Active; 'I' for Inactive)
REMARK    1  A    between atoms: C_1  and  C_2
REMARK    2  A    between atoms: C_2  and  N_3
REMARK    3  A    between atoms: N_3  and  C_4
REMARK    4  A    between atoms: N_3  and  C_6
REMARK    5  A    between atoms: C_4  and  C_5
REMARK    6  A    between atoms: C_6  and  C_7
REMARK    7  A    between atoms: C_7  and  N_8
REMARK    8  A    between atoms: C_11  and  O_12
REMARK    9  A    between atoms: C_13  and  C_14
REMARK   10  A    between atoms: C_14  and  C_16
REMARK   11  A    between atoms: C_21  and  C_22
REMARK                            x       y       z     vdW  Elec       q    Type
REMARK                         _______ _______ _______ _____ _____    ______ ____
ROOT
ATOM      1  N   UNL     1       2.672   7.188  19.154  0.00  0.00    +0.000 N 
ATOM      2  C   UNL     1       2.974   7.729  17.931  0.00  0.00    +0.000 C 
ATOM      3  O   UNL     1       2.499   8.698  17.370  0.00  0.00    +0.000 OA
ATOM      4  C   UNL     1       4.046   6.893  17.343  0.00  0.00    +0.000 C 
ATOM      5  C   UNL     1       4.346   5.933  18.227  0.00  0.00    +0.000 C 
ATOM      6  C   UNL     1       3.467   6.005  19.441  0.00  0.00    +0.000 C 
ENDROOT
BRANCH   6   7
ATOM      7  C   UNL     1       2.578   4.793  19.699  0.00  0.00    +0.000 A 
ATOM      8  C   UNL     1       1.822   4.191  18.689  0.00  0.00    +0.000 A 
ATOM      9  C   UNL     1       0.989   3.121  19.009  0.00  0.00    +0.000 A 
ATOM     10  C   UNL     1       0.911   2.686  20.325  0.00  0.00    +0.000 A 
ATOM     11  C   UNL     1       1.669   3.343  21.275  0.00  0.00    +0.000 A 
ATOM     12  N   UNL     1       2.490   4.380  20.995  0.00  0.00    +0.000 NA
ENDBRANCH   6   7
BRANCH   4  13
ATOM     13  O   UNL     1       4.587   7.153  16.119  0.00  0.00    +0.000 OA
ATOM     14  H   UNL     1       4.456   6.337  15.595  0.00  0.00    +0.000 HD
ENDBRANCH   4  13
BRANCH   5  15
ATOM     15  C   UNL     1       5.386   4.891  18.023  0.00  0.00    +0.000 C 
ATOM     16  O   UNL     1       5.832   4.289  19.000  0.00  0.00    +0.000 OA
BRANCH  15  17
ATOM     17  C   UNL     1       5.891   4.626  16.685  0.00  0.00    +0.000 A 
ATOM     18  C   UNL     1       7.159   4.777  16.153  0.00  0.00    +0.000 A 
ATOM     19  C   UNL     1       7.079   4.418  14.784  0.00  0.00    +0.000 A 
ATOM     20  C   UNL     1       5.773   4.059  14.562  0.00  0.00    +0.000 A 
ATOM     21  O   UNL     1       5.059   4.157  15.708  0.00  0.00    +0.000 OA
ENDBRANCH  15  17
ENDBRANCH   5  15
BRANCH   1  22
ATOM     22  C   UNL     1       1.744   7.757  20.122  0.00  0.00    +0.000 C 
BRANCH  22  23
ATOM     23  C   UNL     1       1.173   9.143  19.730  0.00  0.00    +0.000 C 
BRANCH  23  24
ATOM     24  N   UNL     1       0.531   9.915  20.820  0.00  0.00    +0.000 NA
BRANCH  24  26
ATOM     25  C   UNL     1      -1.152  10.367  18.985  0.00  0.00    +0.000 C 
ATOM     26  C   UNL     1      -0.506  10.819  20.291  0.00  0.00    +0.000 C 
ENDBRANCH  24  26
BRANCH  24  27
ATOM     27  C   UNL     1       0.059   9.026  21.898  0.00  0.00    +0.000 C 
ATOM     28  C   UNL     1      -0.383   9.702  23.196  0.00  0.00    +0.000 C 
ENDBRANCH  24  27
ENDBRANCH  23  24
ENDBRANCH  22  23
ENDBRANCH   1  22
TORSDOF 9
ENDMDL
MODEL 6
REMARK VINA RESULT:      -7.0      1.027      1.640
REMARK  Name = 
REMARK  11 active torsions:
REMARK  status: ('A' for Active; 'I' for Inactive)
REMARK    1  A    between atoms: C_1  and  C_2
REMARK    2  A    between atoms: C_2  and  N_3
REMARK    3  A    between atoms: N_3  and  C_4
REMARK    4  A    between atoms: N_3  and  C_6
REMARK    5  A    between atoms: C_4  and  C_5
REMARK    6  A    between atoms: C_6  and  C_7
REMARK    7  A    between atoms: C_7  and  N_8
REMARK    8  A    between atoms: C_11  and  O_12
REMARK    9  A    between atoms: C_13  and  C_14
REMARK   10  A    between atoms: C_14  and  C_16
REMARK   11  A    between atoms: C_21  and  C_22
REMARK                            x       y       z     vdW  Elec       q    Type
REMARK                         _______ _______ _______ _____ _____    ______ ____
ROOT
ATOM      1  N   UNL     1       4.330   6.289  18.244  0.00  0.00    +0.000 N 
ATOM      2  C   UNL     1       4.186   7.063  17.122  0.00  0.00    +0.000 C 
ATOM      3  O   UNL     1       3.445   8.005  16.914  0.00  0.00    +0.000 OA
ATOM      4  C   UNL     1       5.141   6.542  16.116  0.00  0.00    +0.000 C 
ATOM      5  C   UNL     1       5.810   5.526  16.676  0.00  0.00    +0.000 C 
ATOM      6  C   UNL     1       5.322   5.242  18.066  0.00  0.00    +0.000 C 
ENDROOT
BRANCH   6   7
ATOM      7  C   UNL     1       4.715   3.862  18.297  0.00  0.00    +0.000 A 
ATOM      8  C   UNL     1       3.847   3.265  17.379  0.00  0.00    +0.000 A 
ATOM      9  C   UNL     1       3.286   2.025  17.681  0.00  0.00    +0.000 A 
ATOM     10  C   UNL     1       3.585   1.417  18.893  0.00  0.00    +0.000 A 
ATOM     11  C   UNL     1       4.434   2.077  19.760  0.00  0.00    +0.000 A 
ATOM     12  N   UNL     1       4.997   3.276  19.494  0.00  0.00    +0.000 NA
ENDBRANCH   6   7
BRANCH   4  13
ATOM     13  O   UNL     1       5.262   7.087  14.872  0.00  0.00    +0.000 OA
ATOM     14  H   UNL     1       5.987   6.594  14.438  0.00  0.00    +0.000 HD
ENDBRANCH   4  13
BRANCH   5  15
ATOM     15  C   UNL     1       6.873   4.738  15.998  0.00  0.00    +0.000 C 
ATOM     16  O   UNL     1       7.845   4.356  16.650  0.00  0.00    +0.000 OA
BRANCH  15  17
ATOM     17  C   UNL     1       6.773   4.466  14.573  0.00  0.00    +0.000 A 
ATOM     18  C   UNL     1       6.032   3.521  13.885  0.00  0.00    +0.000 A 
ATOM     19  C   UNL     1       6.351   3.666  12.511  0.00  0.00    +0.000 A 
ATOM     20  C   UNL     1       7.256   4.695  12.438  0.00  0.00    +0.000 A 
ATOM     21  O   UNL     1       7.494   5.197  13.673  0.00  0.00    +0.000 OA
ENDBRANCH  15  17
ENDBRANCH   5  15
BRANCH   1  22
ATOM     22  C   UNL     1       3.658   6.517  19.517  0.00  0.00    +0.000 C 
BRANCH  22  23
ATOM     23  C   UNL     1       2.156   6.879  19.397  0.00  0.00    +0.000 C 
BRANCH  23  24
ATOM     24  N   UNL     1       1.275   6.367  20.473  0.00  0.00    +0.000 NA
BRANCH  24  26
ATOM     25  C   UNL     1       1.135   3.841  20.507  0.00  0.00    +0.000 C 
ATOM     26  C   UNL     1       1.798   5.110  21.035  0.00  0.00    +0.000 C 
ENDBRANCH  24  26
BRANCH  24  27
ATOM     27  C   UNL     1       1.004   7.407  21.483  0.00  0.00    +0.000 C 
ATOM     28  C   UNL     1       0.804   8.830  20.961  0.00  0.00    +0.000 C 
ENDBRANCH  24  27
ENDBRANCH  23  24
ENDBRANCH  22  23
ENDBRANCH   1  22
TORSDOF 9
ENDMDL
MODEL 7
REMARK VINA RESULT:      -7.0      2.768      3.985
REMARK  Name = 
REMARK  11 active torsions:
REMARK  status: ('A' for Active; 'I' for Inactive)
REMARK    1  A    between atoms: C_1  and  C_2
REMARK    2  A    between atoms: C_2  and  N_3
REMARK    3  A    between atoms: N_3  and  C_4
REMARK    4  A    between atoms: N_3  and  C_6
REMARK    5  A    between atoms: C_4  and  C_5
REMARK    6  A    between atoms: C_6  and  C_7
REMARK    7  A    between atoms: C_7  and  N_8
REMARK    8  A    between atoms: C_11  and  O_12
REMARK    9  A    between atoms: C_13  and  C_14
REMARK   10  A    between atoms: C_14  and  C_16
REMARK   11  A    between atoms: C_21  and  C_22
REMARK                            x       y       z     vdW  Elec       q    Type
REMARK                         _______ _______ _______ _____ _____    ______ ____
ROOT
ATOM      1  N   UNL     1       2.353   7.058  19.394  0.00  0.00    +0.000 N 
ATOM      2  C   UNL     1       2.660   7.677  18.210  0.00  0.00    +0.000 C 
ATOM      3  O   UNL     1       2.114   8.612  17.655  0.00  0.00    +0.000 OA
ATOM      4  C   UNL     1       3.847   6.985  17.658  0.00  0.00    +0.000 C 
ATOM      5  C   UNL     1       4.201   6.027  18.525  0.00  0.00    +0.000 C 
ATOM      6  C   UNL     1       3.254   5.956  19.686  0.00  0.00    +0.000 C 
ENDROOT
BRANCH   6   7
ATOM      7  C   UNL     1       2.490   4.646  19.851  0.00  0.00    +0.000 A 
ATOM      8  C   UNL     1       1.829   4.028  18.786  0.00  0.00    +0.000 A 
ATOM      9  C   UNL     1       1.104   2.862  19.021  0.00  0.00    +0.000 A 
ATOM     10  C   UNL     1       1.035   2.348  20.309  0.00  0.00    +0.000 A 
ATOM     11  C   UNL     1       1.695   3.025  21.316  0.00  0.00    +0.000 A 
ATOM     12  N   UNL     1       2.410   4.155  21.119  0.00  0.00    +0.000 NA
ENDBRANCH   6   7
BRANCH   4  13
ATOM     13  O   UNL     1       4.423   7.350  16.477  0.00  0.00    +0.000 OA
ATOM     14  H   UNL     1       3.681   7.573  15.880  0.00  0.00    +0.000 HD
ENDBRANCH   4  13
BRANCH   5  15
ATOM     15  C   UNL     1       5.358   5.111  18.347  0.00  0.00    +0.000 C 
ATOM     16  O   UNL     1       5.961   4.705  19.340  0.00  0.00    +0.000 OA
BRANCH  15  17
ATOM     17  C   UNL     1       5.787   4.740  17.007  0.00  0.00    +0.000 A 
ATOM     18  C   UNL     1       5.293   3.788  16.133  0.00  0.00    +0.000 A 
ATOM     19  C   UNL     1       6.120   3.815  14.982  0.00  0.00    +0.000 A 
ATOM     20  C   UNL     1       7.061   4.786  15.214  0.00  0.00    +0.000 A 
ATOM     21  O   UNL     1       6.850   5.364  16.420  0.00  0.00    +0.000 OA
ENDBRANCH  15  17
ENDBRANCH   5  15
BRANCH   1  22
ATOM     22  C   UNL     1       1.316   7.485  20.325  0.00  0.00    +0.000 C 
BRANCH  22  23
ATOM     23  C   UNL     1       1.563   8.871  20.973  0.00  0.00    +0.000 C 
BRANCH  23  24
ATOM     24  N   UNL     1       0.512   9.891  20.749  0.00  0.00    +0.000 NA
BRANCH  24  26
ATOM     25  C   UNL     1       0.002   9.448  23.188  0.00  0.00    +0.000 C 
ATOM     26  C   UNL     1       0.022  10.438  22.027  0.00  0.00    +0.000 C 
ENDBRANCH  24  26
BRANCH  24  27
ATOM     27  C   UNL     1       0.958  10.917  19.789  0.00  0.00    +0.000 C 
ATOM     28  C   UNL     1       1.129  12.335  20.334  0.00  0.00    +0.000 C 
ENDBRANCH  24  27
ENDBRANCH  23  24
ENDBRANCH  22  23
ENDBRANCH   1  22
TORSDOF 9
ENDMDL
MODEL 8
REMARK VINA RESULT:      -6.9      1.728      2.329
REMARK  Name = 
REMARK  11 active torsions:
REMARK  status: ('A' for Active; 'I' for Inactive)
REMARK    1  A    between atoms: C_1  and  C_2
REMARK    2  A    between atoms: C_2  and  N_3
REMARK    3  A    between atoms: N_3  and  C_4
REMARK    4  A    between atoms: N_3  and  C_6
REMARK    5  A    between atoms: C_4  and  C_5
REMARK    6  A    between atoms: C_6  and  C_7
REMARK    7  A    between atoms: C_7  and  N_8
REMARK    8  A    between atoms: C_11  and  O_12
REMARK    9  A    between atoms: C_13  and  C_14
REMARK   10  A    between atoms: C_14  and  C_16
REMARK   11  A    between atoms: C_21  and  C_22
REMARK                            x       y       z     vdW  Elec       q    Type
REMARK                         _______ _______ _______ _____ _____    ______ ____
ROOT
ATOM      1  N   UNL     1       3.959   6.324  18.330  0.00  0.00    +0.000 N 
ATOM      2  C   UNL     1       3.896   7.096  17.200  0.00  0.00    +0.000 C 
ATOM      3  O   UNL     1       3.139   8.007  16.920  0.00  0.00    +0.000 OA
ATOM      4  C   UNL     1       4.969   6.623  16.295  0.00  0.00    +0.000 C 
ATOM      5  C   UNL     1       5.622   5.633  16.919  0.00  0.00    +0.000 C 
ATOM      6  C   UNL     1       5.008   5.322  18.252  0.00  0.00    +0.000 C 
ENDROOT
BRANCH   6   7
ATOM      7  C   UNL     1       4.442   3.915  18.419  0.00  0.00    +0.000 A 
ATOM      8  C   UNL     1       3.504   3.377  17.533  0.00  0.00    +0.000 A 
ATOM      9  C   UNL     1       2.988   2.107  17.778  0.00  0.00    +0.000 A 
ATOM     10  C   UNL     1       3.399   1.408  18.904  0.00  0.00    +0.000 A 
ATOM     11  C   UNL     1       4.313   2.011  19.748  0.00  0.00    +0.000 A 
ATOM     12  N   UNL     1       4.835   3.239  19.535  0.00  0.00    +0.000 NA
ENDBRANCH   6   7
BRANCH   4  13
ATOM     13  O   UNL     1       5.191   7.179  15.071  0.00  0.00    +0.000 OA
ATOM     14  H   UNL     1       5.786   7.940  15.231  0.00  0.00    +0.000 HD
ENDBRANCH   4  13
BRANCH   5  15
ATOM     15  C   UNL     1       6.780   4.896  16.351  0.00  0.00    +0.000 C 
ATOM     16  O   UNL     1       7.675   4.511  17.105  0.00  0.00    +0.000 OA
BRANCH  15  17
ATOM     17  C   UNL     1       6.864   4.676  14.916  0.00  0.00    +0.000 A 
ATOM     18  C   UNL     1       6.206   3.771  14.102  0.00  0.00    +0.000 A 
ATOM     19  C   UNL     1       6.705   3.958  12.788  0.00  0.00    +0.000 A 
ATOM     20  C   UNL     1       7.627   4.970  12.873  0.00  0.00    +0.000 A 
ATOM     21  O   UNL     1       7.709   5.423  14.146  0.00  0.00    +0.000 OA
ENDBRANCH  15  17
ENDBRANCH   5  15
BRANCH   1  22
ATOM     22  C   UNL     1       3.152   6.515  19.529  0.00  0.00    +0.000 C 
BRANCH  22  23
ATOM     23  C   UNL     1       1.879   7.373  19.318  0.00  0.00    +0.000 C 
BRANCH  23  24
ATOM     24  N   UNL     1       1.707   8.520  20.240  0.00  0.00    +0.000 NA
BRANCH  24  26
ATOM     25  C   UNL     1       0.613   9.418  18.142  0.00  0.00    +0.000 C 
ATOM     26  C   UNL     1       1.184   9.700  19.528  0.00  0.00    +0.000 C 
ENDBRANCH  24  26
BRANCH  24  27
ATOM     27  C   UNL     1       0.921   8.140  21.428  0.00  0.00    +0.000 C 
ATOM     28  C   UNL     1       0.602   9.256  22.422  0.00  0.00    +0.000 C 
ENDBRANCH  24  27
ENDBRANCH  23  24
ENDBRANCH  22  23
ENDBRANCH   1  22
TORSDOF 9
ENDMDL
MODEL 9
REMARK VINA RESULT:      -6.8      2.821      4.020
REMARK  Name = 
REMARK  11 active torsions:
REMARK  status: ('A' for Active; 'I' for Inactive)
REMARK    1  A    between atoms: C_1  and  C_2
REMARK    2  A    between atoms: C_2  and  N_3
REMARK    3  A    between atoms: N_3  and  C_4
REMARK    4  A    between atoms: N_3  and  C_6
REMARK    5  A    between atoms: C_4  and  C_5
REMARK    6  A    between atoms: C_6  and  C_7
REMARK    7  A    between atoms: C_7  and  N_8
REMARK    8  A    between atoms: C_11  and  O_12
REMARK    9  A    between atoms: C_13  and  C_14
REMARK   10  A    between atoms: C_14  and  C_16
REMARK   11  A    between atoms: C_21  and  C_22
REMARK                            x       y       z     vdW  Elec       q    Type
REMARK                         _______ _______ _______ _____ _____    ______ ____
ROOT
ATOM      1  N   UNL     1       2.362   7.300  19.210  0.00  0.00    +0.000 N 
ATOM      2  C   UNL     1       2.756   7.872  18.028  0.00  0.00    +0.000 C 
ATOM      3  O   UNL     1       2.301   8.833  17.438  0.00  0.00    +0.000 OA
ATOM      4  C   UNL     1       3.909   7.084  17.533  0.00  0.00    +0.000 C 
ATOM      5  C   UNL     1       4.160   6.120  18.428  0.00  0.00    +0.000 C 
ATOM      6  C   UNL     1       3.169   6.141  19.554  0.00  0.00    +0.000 C 
ENDROOT
BRANCH   6   7
ATOM      7  C   UNL     1       2.305   4.894  19.712  0.00  0.00    +0.000 A 
ATOM      8  C   UNL     1       2.032   4.327  20.960  0.00  0.00    +0.000 A 
ATOM      9  C   UNL     1       1.280   3.156  21.024  0.00  0.00    +0.000 A 
ATOM     10  C   UNL     1       0.834   2.565  19.850  0.00  0.00    +0.000 A 
ATOM     11  C   UNL     1       1.161   3.169  18.651  0.00  0.00    +0.000 A 
ATOM     12  N   UNL     1       1.883   4.307  18.556  0.00  0.00    +0.000 NA
ENDBRANCH   6   7
BRANCH   4  13
ATOM     13  O   UNL     1       4.552   7.383  16.368  0.00  0.00    +0.000 OA
ATOM     14  H   UNL     1       4.600   6.542  15.870  0.00  0.00    +0.000 HD
ENDBRANCH   4  13
BRANCH   5  15
ATOM     15  C   UNL     1       5.252   5.119  18.308  0.00  0.00    +0.000 C 
ATOM     16  O   UNL     1       5.724   4.620  19.330  0.00  0.00    +0.000 OA
BRANCH  15  17
ATOM     17  C   UNL     1       5.775   4.774  16.996  0.00  0.00    +0.000 A 
ATOM     18  C   UNL     1       7.059   4.853  16.487  0.00  0.00    +0.000 A 
ATOM     19  C   UNL     1       6.995   4.434  15.135  0.00  0.00    +0.000 A 
ATOM     20  C   UNL     1       5.682   4.113  14.899  0.00  0.00    +0.000 A 
ATOM     21  O   UNL     1       4.948   4.291  16.023  0.00  0.00    +0.000 OA
ENDBRANCH  15  17
ENDBRANCH   5  15
BRANCH   1  22
ATOM     22  C   UNL     1       1.327   7.819  20.094  0.00  0.00    +0.000 C 
BRANCH  22  23
ATOM     23  C   UNL     1       1.614   9.232  20.663  0.00  0.00    +0.000 C 
BRANCH  23  24
ATOM     24  N   UNL     1       0.795  10.336  20.108  0.00  0.00    +0.000 NA
BRANCH  24  26
ATOM     25  C   UNL     1      -0.842  10.352  18.179  0.00  0.00    +0.000 C 
ATOM     26  C   UNL     1      -0.479   9.831  19.566  0.00  0.00    +0.000 C 
ENDBRANCH  24  26
BRANCH  24  27
ATOM     27  C   UNL     1       0.640  11.430  21.085  0.00  0.00    +0.000 C 
ATOM     28  C   UNL     1      -0.492  11.283  22.101  0.00  0.00    +0.000 C 
ENDBRANCH  24  27
ENDBRANCH  23  24
ENDBRANCH  22  23
ENDBRANCH   1  22
TORSDOF 9
ENDMDL
