MODEL 1
REMARK VINA RESULT:      -8.0      0.000      0.000
REMARK  Name = 
REMARK  9 active torsions:
REMARK  status: ('A' for Active; 'I' for Inactive)
REMARK    1  A    between atoms: C_1  and  O_2
REMARK    2  A    between atoms: O_2  and  C_3
REMARK    3  A    between atoms: C_5  and  N_6
REMARK    4  A    between atoms: C_11  and  C_12
REMARK    5  A    between atoms: C_15  and  C_16
REMARK    6  A    between atoms: N_20  and  C_21
REMARK    7  A    between atoms: C_25  and  C_26
REMARK    8  A    between atoms: C_26  and  O_28
REMARK    9  A    between atoms: C_31  and  C_32
REMARK                            x       y       z     vdW  Elec       q    Type
REMARK                         _______ _______ _______ _____ _____    ______ ____
ROOT
ATOM      1  C   UNL     1       5.512   5.458  19.182  0.00  0.00    +0.000 C 
ATOM      2  C   UNL     1       6.194   5.210  18.057  0.00  0.00    +0.000 C 
ATOM      3  C   UNL     1       5.685   5.262  16.668  0.00  0.00    +0.000 C 
ATOM      4  O   UNL     1       4.594   5.669  16.315  0.00  0.00    +0.000 OA
ATOM      5  N   UNL     1       6.778   4.802  15.919  0.00  0.00    +0.000 N 
ATOM      6  N   UNL     1       7.922   4.544  16.672  0.00  0.00    +0.000 NA
ATOM      7  C   UNL     1       7.598   4.785  17.916  0.00  0.00    +0.000 C 
ATOM      8  C   UNL     1       8.554   4.646  19.056  0.00  0.00    +0.000 C 
ENDROOT
BRANCH   5   9
ATOM      9  C   UNL     1       6.828   4.673  14.511  0.00  0.00    +0.000 A 
ATOM     10  C   UNL     1       7.747   5.415  13.751  0.00  0.00    +0.000 A 
ATOM     11  C   UNL     1       7.862   5.235  12.373  0.00  0.00    +0.000 A 
ATOM     12  C   UNL     1       7.042   4.318  11.727  0.00  0.00    +0.000 A 
ATOM     13  C   UNL     1       6.085   3.601  12.455  0.00  0.00    +0.000 A 
ATOM     14  C   UNL     1       5.980   3.778  13.843  0.00  0.00    +0.000 A 
BRANCH  13  15
ATOM     15  C   UNL     1       5.257   2.614  11.719  0.00  0.00    +0.000 C 
ATOM     16  O   UNL     1       5.670   1.510  11.406  0.00  0.00    +0.000 OA
BRANCH  15  17
ATOM     17  O   UNL     1       4.029   3.062  11.387  0.00  0.00    +0.000 OA
ATOM     18  H   UNL     1       3.287   2.532  11.732  0.00  0.00    +0.000 HD
ENDBRANCH  15  17
ENDBRANCH  13  15
ENDBRANCH   5   9
BRANCH   1  22
ATOM     19  C   UNL     1       2.270   7.001  19.140  0.00  0.00    +0.000 A 
ATOM     20  C   UNL     1       1.852   5.689  19.188  0.00  0.00    +0.000 A 
ATOM     21  C   UNL     1       3.026   4.893  19.205  0.00  0.00    +0.000 A 
ATOM     22  C   UNL     1       4.119   5.748  19.152  0.00  0.00    +0.000 A 
ATOM     23  O   UNL     1       3.638   7.035  19.102  0.00  0.00    +0.000 OA
BRANCH  19  29
ATOM     24  C   UNL     1       1.147   8.949  20.289  0.00  0.00    +0.000 A 
ATOM     25  C   UNL     1       0.509  10.196  20.204  0.00  0.00    +0.000 A 
ATOM     26  C   UNL     1       0.264  10.775  18.954  0.00  0.00    +0.000 A 
ATOM     27  C   UNL     1       0.710  10.155  17.786  0.00  0.00    +0.000 A 
ATOM     28  C   UNL     1       1.388   8.936  17.878  0.00  0.00    +0.000 A 
ATOM     29  C   UNL     1       1.606   8.306  19.120  0.00  0.00    +0.000 A 
BRANCH  26  30
ATOM     30  N   UNL     1      -0.502  12.026  18.880  0.00  0.00    +0.000 N 
ATOM     31  O   UNL     1       0.040  13.003  18.345  0.00  0.00    +0.000 OA
ATOM     32  O   UNL     1      -1.638  12.036  19.378  0.00  0.00    +0.000 OA
ENDBRANCH  26  30
BRANCH  24  34
ATOM     33  C   UNL     1       1.084   9.145  22.642  0.00  0.00    +0.000 C 
ATOM     34  O   UNL     1       1.350   8.330  21.500  0.00  0.00    +0.000 OA
ENDBRANCH  24  34
ENDBRANCH  19  29
ENDBRANCH   1  22
TORSDOF 7
ENDMDL
MODEL 2
REMARK VINA RESULT:      -7.7      1.190      1.882
REMARK  Name = 
REMARK  9 active torsions:
REMARK  status: ('A' for Active; 'I' for Inactive)
REMARK    1  A    between atoms: C_1  and  O_2
REMARK    2  A    between atoms: O_2  and  C_3
REMARK    3  A    between atoms: C_5  and  N_6
REMARK    4  A    between atoms: C_11  and  C_12
REMARK    5  A    between atoms: C_15  and  C_16
REMARK    6  A    between atoms: N_20  and  C_21
REMARK    7  A    between atoms: C_25  and  C_26
REMARK    8  A    between atoms: C_26  and  O_28
REMARK    9  A    between atoms: C_31  and  C_32
REMARK                            x       y       z     vdW  Elec       q    Type
REMARK                         _______ _______ _______ _____ _____    ______ ____
ROOT
ATOM      1  C   UNL     1       5.491   5.353  19.253  0.00  0.00    +0.000 C 
ATOM      2  C   UNL     1       6.177   5.147  18.121  0.00  0.00    +0.000 C 
ATOM      3  C   UNL     1       5.658   5.193  16.736  0.00  0.00    +0.000 C 
ATOM      4  O   UNL     1       4.549   5.557  16.393  0.00  0.00    +0.000 OA
ATOM      5  N   UNL     1       6.765   4.788  15.975  0.00  0.00    +0.000 N 
ATOM      6  N   UNL     1       7.924   4.571  16.719  0.00  0.00    +0.000 NA
ATOM      7  C   UNL     1       7.597   4.784  17.968  0.00  0.00    +0.000 C 
ATOM      8  C   UNL     1       8.564   4.674  19.101  0.00  0.00    +0.000 C 
ENDROOT
BRANCH   5   9
ATOM      9  C   UNL     1       6.812   4.678  14.566  0.00  0.00    +0.000 A 
ATOM     10  C   UNL     1       7.720   5.440  13.813  0.00  0.00    +0.000 A 
ATOM     11  C   UNL     1       7.833   5.278  12.432  0.00  0.00    +0.000 A 
ATOM     12  C   UNL     1       7.022   4.359  11.778  0.00  0.00    +0.000 A 
ATOM     13  C   UNL     1       6.076   3.622  12.499  0.00  0.00    +0.000 A 
ATOM     14  C   UNL     1       5.973   3.780  13.890  0.00  0.00    +0.000 A 
BRANCH  13  15
ATOM     15  C   UNL     1       5.258   2.634  11.754  0.00  0.00    +0.000 C 
ATOM     16  O   UNL     1       5.680   1.536  11.433  0.00  0.00    +0.000 OA
BRANCH  15  17
ATOM     17  O   UNL     1       4.027   3.075  11.422  0.00  0.00    +0.000 OA
ATOM     18  H   UNL     1       3.549   3.542  12.131  0.00  0.00    +0.000 HD
ENDBRANCH  15  17
ENDBRANCH  13  15
ENDBRANCH   5   9
BRANCH   1  22
ATOM     19  C   UNL     1       2.165   6.655  19.615  0.00  0.00    +0.000 A 
ATOM     20  C   UNL     1       1.832   5.447  19.044  0.00  0.00    +0.000 A 
ATOM     21  C   UNL     1       3.052   4.762  18.809  0.00  0.00    +0.000 A 
ATOM     22  C   UNL     1       4.087   5.584  19.233  0.00  0.00    +0.000 A 
ATOM     23  O   UNL     1       3.527   6.744  19.714  0.00  0.00    +0.000 OA
BRANCH  19  29
ATOM     24  C   UNL     1       1.174   8.961  19.333  0.00  0.00    +0.000 A 
ATOM     25  C   UNL     1       0.460  10.042  19.873  0.00  0.00    +0.000 A 
ATOM     26  C   UNL     1       0.047  10.013  21.209  0.00  0.00    +0.000 A 
ATOM     27  C   UNL     1       0.279   8.886  21.999  0.00  0.00    +0.000 A 
ATOM     28  C   UNL     1       0.949   7.791  21.444  0.00  0.00    +0.000 A 
ATOM     29  C   UNL     1       1.419   7.812  20.115  0.00  0.00    +0.000 A 
BRANCH  26  30
ATOM     30  N   UNL     1      -0.602  11.198  21.785  0.00  0.00    +0.000 N 
ATOM     31  O   UNL     1      -1.288  11.903  21.033  0.00  0.00    +0.000 OA
ATOM     32  O   UNL     1      -0.405  11.435  22.987  0.00  0.00    +0.000 OA
ENDBRANCH  26  30
BRANCH  24  34
ATOM     33  C   UNL     1       2.392  10.152  17.698  0.00  0.00    +0.000 C 
ATOM     34  O   UNL     1       1.643   8.986  18.041  0.00  0.00    +0.000 OA
ENDBRANCH  24  34
ENDBRANCH  19  29
ENDBRANCH   1  22
TORSDOF 7
ENDMDL
MODEL 3
REMARK VINA RESULT:      -7.5      3.947     10.952
REMARK  Name = 
REMARK  9 active torsions:
REMARK  status: ('A' for Active; 'I' for Inactive)
REMARK    1  A    between atoms: C_1  and  O_2
REMARK    2  A    between atoms: O_2  and  C_3
REMARK    3  A    between atoms: C_5  and  N_6
REMARK    4  A    between atoms: C_11  and  C_12
REMARK    5  A    between atoms: C_15  and  C_16
REMARK    6  A    between atoms: N_20  and  C_21
REMARK    7  A    between atoms: C_25  and  C_26
REMARK    8  A    between atoms: C_26  and  O_28
REMARK    9  A    between atoms: C_31  and  C_32
REMARK                            x       y       z     vdW  Elec       q    Type
REMARK                         _______ _______ _______ _____ _____    ______ ____
ROOT
ATOM      1  C   UNL     1       1.097  11.484  19.853  0.00  0.00    +0.000 C 
ATOM      2  C   UNL     1      -0.183  11.879  19.837  0.00  0.00    +0.000 C 
ATOM      3  C   UNL     1      -1.327  11.192  19.198  0.00  0.00    +0.000 C 
ATOM      4  O   UNL     1      -1.313  10.085  18.693  0.00  0.00    +0.000 OA
ATOM      5  N   UNL     1      -2.381  12.098  19.390  0.00  0.00    +0.000 N 
ATOM      6  N   UNL     1      -2.040  13.225  20.136  0.00  0.00    +0.000 NA
ATOM      7  C   UNL     1      -0.766  13.106  20.409  0.00  0.00    +0.000 C 
ATOM      8  C   UNL     1      -0.001  14.104  21.215  0.00  0.00    +0.000 C 
ENDROOT
BRANCH   5   9
ATOM      9  C   UNL     1      -3.722  11.914  18.979  0.00  0.00    +0.000 A 
ATOM     10  C   UNL     1      -4.033  11.635  17.639  0.00  0.00    +0.000 A 
ATOM     11  C   UNL     1      -5.342  11.369  17.238  0.00  0.00    +0.000 A 
ATOM     12  C   UNL     1      -6.369  11.398  18.174  0.00  0.00    +0.000 A 
ATOM     13  C   UNL     1      -6.091  11.721  19.507  0.00  0.00    +0.000 A 
ATOM     14  C   UNL     1      -4.771  11.977  19.908  0.00  0.00    +0.000 A 
BRANCH  13  15
ATOM     15  C   UNL     1      -7.220  11.708  20.469  0.00  0.00    +0.000 C 
ATOM     16  O   UNL     1      -7.916  12.687  20.682  0.00  0.00    +0.000 OA
BRANCH  15  17
ATOM     17  O   UNL     1      -7.377  10.537  21.120  0.00  0.00    +0.000 OA
ATOM     18  H   UNL     1      -6.755  10.384  21.854  0.00  0.00    +0.000 HD
ENDBRANCH  15  17
ENDBRANCH  13  15
ENDBRANCH   5   9
BRANCH   1  22
ATOM     19  C   UNL     1       2.068   8.179  18.842  0.00  0.00    +0.000 A 
ATOM     20  C   UNL     1       2.309   8.819  17.646  0.00  0.00    +0.000 A 
ATOM     21  C   UNL     1       1.969  10.182  17.843  0.00  0.00    +0.000 A 
ATOM     22  C   UNL     1       1.518  10.322  19.148  0.00  0.00    +0.000 A 
ATOM     23  O   UNL     1       1.576   9.083  19.743  0.00  0.00    +0.000 OA
BRANCH  19  29
ATOM     24  C   UNL     1       2.978   5.829  18.668  0.00  0.00    +0.000 A 
ATOM     25  C   UNL     1       3.071   4.530  19.190  0.00  0.00    +0.000 A 
ATOM     26  C   UNL     1       2.353   4.181  20.339  0.00  0.00    +0.000 A 
ATOM     27  C   UNL     1       1.591   5.135  21.016  0.00  0.00    +0.000 A 
ATOM     28  C   UNL     1       1.539   6.441  20.520  0.00  0.00    +0.000 A 
ATOM     29  C   UNL     1       2.213   6.809  19.338  0.00  0.00    +0.000 A 
BRANCH  26  30
ATOM     30  N   UNL     1       2.377   2.789  20.805  0.00  0.00    +0.000 N 
ATOM     31  O   UNL     1       3.013   2.537  21.837  0.00  0.00    +0.000 OA
ATOM     32  O   UNL     1       1.777   1.943  20.125  0.00  0.00    +0.000 OA
ENDBRANCH  26  30
BRANCH  24  34
ATOM     33  C   UNL     1       5.052   6.199  17.601  0.00  0.00    +0.000 C 
ATOM     34  O   UNL     1       3.627   6.184  17.509  0.00  0.00    +0.000 OA
ENDBRANCH  24  34
ENDBRANCH  19  29
ENDBRANCH   1  22
TORSDOF 7
ENDMDL
MODEL 4
REMARK VINA RESULT:      -7.4      1.964      3.164
REMARK  Name = 
REMARK  9 active torsions:
REMARK  status: ('A' for Active; 'I' for Inactive)
REMARK    1  A    between atoms: C_1  and  O_2
REMARK    2  A    between atoms: O_2  and  C_3
REMARK    3  A    between atoms: C_5  and  N_6
REMARK    4  A    between atoms: C_11  and  C_12
REMARK    5  A    between atoms: C_15  and  C_16
REMARK    6  A    between atoms: N_20  and  C_21
REMARK    7  A    between atoms: C_25  and  C_26
REMARK    8  A    between atoms: C_26  and  O_28
REMARK    9  A    between atoms: C_31  and  C_32
REMARK                            x       y       z     vdW  Elec       q    Type
REMARK                         _______ _______ _______ _____ _____    ______ ____
ROOT
ATOM      1  C   UNL     1       2.896   5.752  19.541  0.00  0.00    +0.000 C 
ATOM      2  C   UNL     1       3.697   5.145  18.655  0.00  0.00    +0.000 C 
ATOM      3  C   UNL     1       4.219   5.702  17.388  0.00  0.00    +0.000 C 
ATOM      4  O   UNL     1       4.112   6.853  17.008  0.00  0.00    +0.000 OA
ATOM      5  N   UNL     1       4.889   4.608  16.820  0.00  0.00    +0.000 N 
ATOM      6  N   UNL     1       4.905   3.467  17.620  0.00  0.00    +0.000 NA
ATOM      7  C   UNL     1       4.222   3.768  18.694  0.00  0.00    +0.000 C 
ATOM      8  C   UNL     1       4.009   2.818  19.827  0.00  0.00    +0.000 C 
ENDROOT
BRANCH   5   9
ATOM      9  C   UNL     1       5.593   4.608  15.593  0.00  0.00    +0.000 A 
ATOM     10  C   UNL     1       6.830   5.261  15.472  0.00  0.00    +0.000 A 
ATOM     11  C   UNL     1       7.573   5.197  14.293  0.00  0.00    +0.000 A 
ATOM     12  C   UNL     1       7.077   4.490  13.204  0.00  0.00    +0.000 A 
ATOM     13  C   UNL     1       5.824   3.871  13.284  0.00  0.00    +0.000 A 
ATOM     14  C   UNL     1       5.085   3.929  14.476  0.00  0.00    +0.000 A 
BRANCH  13  15
ATOM     15  C   UNL     1       5.357   3.105  12.102  0.00  0.00    +0.000 C 
ATOM     16  O   UNL     1       4.337   3.388  11.495  0.00  0.00    +0.000 OA
BRANCH  15  17
ATOM     17  O   UNL     1       6.130   2.046  11.789  0.00  0.00    +0.000 OA
ATOM     18  H   UNL     1       7.064   2.119  12.059  0.00  0.00    +0.000 HD
ENDBRANCH  15  17
ENDBRANCH  13  15
ENDBRANCH   5   9
BRANCH   1  22
ATOM     19  C   UNL     1       1.218   8.923  19.686  0.00  0.00    +0.000 A 
ATOM     20  C   UNL     1       1.749   9.049  18.420  0.00  0.00    +0.000 A 
ATOM     21  C   UNL     1       2.480   7.860  18.169  0.00  0.00    +0.000 A 
ATOM     22  C   UNL     1       2.380   7.056  19.296  0.00  0.00    +0.000 A 
ATOM     23  O   UNL     1       1.613   7.727  20.219  0.00  0.00    +0.000 OA
BRANCH  19  29
ATOM     24  C   UNL     1      -0.372  10.848  20.061  0.00  0.00    +0.000 A 
ATOM     25  C   UNL     1      -1.164  11.606  20.937  0.00  0.00    +0.000 A 
ATOM     26  C   UNL     1      -1.173  11.316  22.305  0.00  0.00    +0.000 A 
ATOM     27  C   UNL     1      -0.449  10.231  22.804  0.00  0.00    +0.000 A 
ATOM     28  C   UNL     1       0.301   9.448  21.921  0.00  0.00    +0.000 A 
ATOM     29  C   UNL     1       0.366   9.747  20.545  0.00  0.00    +0.000 A 
BRANCH  26  30
ATOM     30  N   UNL     1      -1.920  12.187  23.220  0.00  0.00    +0.000 N 
ATOM     31  O   UNL     1      -1.423  13.285  23.505  0.00  0.00    +0.000 OA
ATOM     32  O   UNL     1      -2.995  11.763  23.671  0.00  0.00    +0.000 OA
ENDBRANCH  26  30
BRANCH  24  34
ATOM     33  C   UNL     1      -1.520  10.967  18.000  0.00  0.00    +0.000 C 
ATOM     34  O   UNL     1      -0.300  11.147  18.720  0.00  0.00    +0.000 OA
ENDBRANCH  24  34
ENDBRANCH  19  29
ENDBRANCH   1  22
TORSDOF 7
ENDMDL
MODEL 5
REMARK VINA RESULT:      -7.4      3.627     10.873
REMARK  Name = 
REMARK  9 active torsions:
REMARK  status: ('A' for Active; 'I' for Inactive)
REMARK    1  A    between atoms: C_1  and  O_2
REMARK    2  A    between atoms: O_2  and  C_3
REMARK    3  A    between atoms: C_5  and  N_6
REMARK    4  A    between atoms: C_11  and  C_12
REMARK    5  A    between atoms: C_15  and  C_16
REMARK    6  A    between atoms: N_20  and  C_21
REMARK    7  A    between atoms: C_25  and  C_26
REMARK    8  A    between atoms: C_26  and  O_28
REMARK    9  A    between atoms: C_31  and  C_32
REMARK                            x       y       z     vdW  Elec       q    Type
REMARK                         _______ _______ _______ _____ _____    ______ ____
ROOT
ATOM      1  C   UNL     1       0.936  10.306  20.481  0.00  0.00    +0.000 C 
ATOM      2  C   UNL     1      -0.267  10.864  20.293  0.00  0.00    +0.000 C 
ATOM      3  C   UNL     1      -1.194  10.641  19.163  0.00  0.00    +0.000 C 
ATOM      4  O   UNL     1      -1.071   9.810  18.282  0.00  0.00    +0.000 OA
ATOM      5  N   UNL     1      -2.225  11.558  19.419  0.00  0.00    +0.000 N 
ATOM      6  N   UNL     1      -2.079  12.265  20.611  0.00  0.00    +0.000 NA
ATOM      7  C   UNL     1      -0.948  11.865  21.134  0.00  0.00    +0.000 C 
ATOM      8  C   UNL     1      -0.421  12.370  22.437  0.00  0.00    +0.000 C 
ENDROOT
BRANCH   5   9
ATOM      9  C   UNL     1      -3.390  11.741  18.638  0.00  0.00    +0.000 A 
ATOM     10  C   UNL     1      -3.495  11.178  17.356  0.00  0.00    +0.000 A 
ATOM     11  C   UNL     1      -4.669  11.281  16.612  0.00  0.00    +0.000 A 
ATOM     12  C   UNL     1      -5.757  11.969  17.134  0.00  0.00    +0.000 A 
ATOM     13  C   UNL     1      -5.662  12.581  18.389  0.00  0.00    +0.000 A 
ATOM     14  C   UNL     1      -4.481  12.465  19.140  0.00  0.00    +0.000 A 
BRANCH  13  15
ATOM     15  C   UNL     1      -6.864  13.277  18.910  0.00  0.00    +0.000 C 
ATOM     16  O   UNL     1      -6.905  13.777  20.023  0.00  0.00    +0.000 OA
BRANCH  15  17
ATOM     17  O   UNL     1      -7.917  13.267  18.068  0.00  0.00    +0.000 OA
ATOM     18  H   UNL     1      -8.369  12.409  17.979  0.00  0.00    +0.000 HD
ENDBRANCH  15  17
ENDBRANCH  13  15
ENDBRANCH   5   9
BRANCH   1  22
ATOM     19  C   UNL     1       2.447   7.582  18.695  0.00  0.00    +0.000 A 
ATOM     20  C   UNL     1       2.411   8.489  17.659  0.00  0.00    +0.000 A 
ATOM     21  C   UNL     1       1.822   9.670  18.177  0.00  0.00    +0.000 A 
ATOM     22  C   UNL     1       1.505   9.437  19.508  0.00  0.00    +0.000 A 
ATOM     23  O   UNL     1       1.885   8.149  19.806  0.00  0.00    +0.000 OA
BRANCH  19  29
ATOM     24  C   UNL     1       3.980   5.668  18.092  0.00  0.00    +0.000 A 
ATOM     25  C   UNL     1       4.391   4.342  18.293  0.00  0.00    +0.000 A 
ATOM     26  C   UNL     1       3.717   3.529  19.211  0.00  0.00    +0.000 A 
ATOM     27  C   UNL     1       2.675   4.045  19.983  0.00  0.00    +0.000 A 
ATOM     28  C   UNL     1       2.299   5.382  19.814  0.00  0.00    +0.000 A 
ATOM     29  C   UNL     1       2.929   6.210  18.863  0.00  0.00    +0.000 A 
BRANCH  26  30
ATOM     30  N   UNL     1       4.090   2.114  19.327  0.00  0.00    +0.000 N 
ATOM     31  O   UNL     1       3.557   1.311  18.549  0.00  0.00    +0.000 OA
ATOM     32  O   UNL     1       4.901   1.803  20.213  0.00  0.00    +0.000 OA
ENDBRANCH  26  30
BRANCH  24  34
ATOM     33  C   UNL     1       5.997   6.626  17.323  0.00  0.00    +0.000 C 
ATOM     34  O   UNL     1       4.587   6.472  17.156  0.00  0.00    +0.000 OA
ENDBRANCH  24  34
ENDBRANCH  19  29
ENDBRANCH   1  22
TORSDOF 7
ENDMDL
MODEL 6
REMARK VINA RESULT:      -7.3      3.062      9.408
REMARK  Name = 
REMARK  9 active torsions:
REMARK  status: ('A' for Active; 'I' for Inactive)
REMARK    1  A    between atoms: C_1  and  O_2
REMARK    2  A    between atoms: O_2  and  C_3
REMARK    3  A    between atoms: C_5  and  N_6
REMARK    4  A    between atoms: C_11  and  C_12
REMARK    5  A    between atoms: C_15  and  C_16
REMARK    6  A    between atoms: N_20  and  C_21
REMARK    7  A    between atoms: C_25  and  C_26
REMARK    8  A    between atoms: C_26  and  O_28
REMARK    9  A    between atoms: C_31  and  C_32
REMARK                            x       y       z     vdW  Elec       q    Type
REMARK                         _______ _______ _______ _____ _____    ______ ____
ROOT
ATOM      1  C   UNL     1       1.112  10.043  21.079  0.00  0.00    +0.000 C 
ATOM      2  C   UNL     1       0.104  10.677  20.466  0.00  0.00    +0.000 C 
ATOM      3  C   UNL     1      -0.870  10.103  19.512  0.00  0.00    +0.000 C 
ATOM      4  O   UNL     1      -0.995   8.926  19.229  0.00  0.00    +0.000 OA
ATOM      5  N   UNL     1      -1.606  11.226  19.105  0.00  0.00    +0.000 N 
ATOM      6  N   UNL     1      -1.251  12.409  19.751  0.00  0.00    +0.000 NA
ATOM      7  C   UNL     1      -0.262  12.102  20.551  0.00  0.00    +0.000 C 
ATOM      8  C   UNL     1       0.407  13.092  21.448  0.00  0.00    +0.000 C 
ENDROOT
BRANCH   5   9
ATOM      9  C   UNL     1      -2.691  11.227  18.198  0.00  0.00    +0.000 A 
ATOM     10  C   UNL     1      -3.910  11.840  18.531  0.00  0.00    +0.000 A 
ATOM     11  C   UNL     1      -4.957  11.921  17.614  0.00  0.00    +0.000 A 
ATOM     12  C   UNL     1      -4.806  11.370  16.347  0.00  0.00    +0.000 A 
ATOM     13  C   UNL     1      -3.619  10.712  16.006  0.00  0.00    +0.000 A 
ATOM     14  C   UNL     1      -2.564  10.642  16.929  0.00  0.00    +0.000 A 
BRANCH  13  15
ATOM     15  C   UNL     1      -3.502  10.168  14.631  0.00  0.00    +0.000 C 
ATOM     16  O   UNL     1      -2.427   9.962  14.093  0.00  0.00    +0.000 OA
BRANCH  15  17
ATOM     17  O   UNL     1      -4.684   9.967  14.014  0.00  0.00    +0.000 OA
ATOM     18  H   UNL     1      -5.190   9.195  14.326  0.00  0.00    +0.000 HD
ENDBRANCH  15  17
ENDBRANCH  13  15
ENDBRANCH   5   9
BRANCH   1  22
ATOM     19  C   UNL     1       2.295   6.937  19.721  0.00  0.00    +0.000 A 
ATOM     20  C   UNL     1       1.489   6.415  20.709  0.00  0.00    +0.000 A 
ATOM     21  C   UNL     1       0.916   7.520  21.388  0.00  0.00    +0.000 A 
ATOM     22  C   UNL     1       1.404   8.679  20.798  0.00  0.00    +0.000 A 
ATOM     23  O   UNL     1       2.255   8.303  19.786  0.00  0.00    +0.000 OA
BRANCH  19  29
ATOM     24  C   UNL     1       3.519   5.020  18.625  0.00  0.00    +0.000 A 
ATOM     25  C   UNL     1       4.344   4.548  17.593  0.00  0.00    +0.000 A 
ATOM     26  C   UNL     1       4.854   5.435  16.639  0.00  0.00    +0.000 A 
ATOM     27  C   UNL     1       4.496   6.784  16.663  0.00  0.00    +0.000 A 
ATOM     28  C   UNL     1       3.635   7.242  17.665  0.00  0.00    +0.000 A 
ATOM     29  C   UNL     1       3.144   6.380  18.667  0.00  0.00    +0.000 A 
BRANCH  26  30
ATOM     30  N   UNL     1       5.803   4.942  15.633  0.00  0.00    +0.000 N 
ATOM     31  O   UNL     1       6.436   5.780  14.977  0.00  0.00    +0.000 OA
ATOM     32  O   UNL     1       5.898   3.714  15.484  0.00  0.00    +0.000 OA
ENDBRANCH  26  30
BRANCH  24  34
ATOM     33  C   UNL     1       2.416   2.994  19.130  0.00  0.00    +0.000 C 
ATOM     34  O   UNL     1       3.051   4.180  19.608  0.00  0.00    +0.000 OA
ENDBRANCH  24  34
ENDBRANCH  19  29
ENDBRANCH   1  22
TORSDOF 7
ENDMDL
MODEL 7
REMARK VINA RESULT:      -7.3      3.068      9.894
REMARK  Name = 
REMARK  9 active torsions:
REMARK  status: ('A' for Active; 'I' for Inactive)
REMARK    1  A    between atoms: C_1  and  O_2
REMARK    2  A    between atoms: O_2  and  C_3
REMARK    3  A    between atoms: C_5  and  N_6
REMARK    4  A    between atoms: C_11  and  C_12
REMARK    5  A    between atoms: C_15  and  C_16
REMARK    6  A    between atoms: N_20  and  C_21
REMARK    7  A    between atoms: C_25  and  C_26
REMARK    8  A    between atoms: C_26  and  O_28
REMARK    9  A    between atoms: C_31  and  C_32
REMARK                            x       y       z     vdW  Elec       q    Type
REMARK                         _______ _______ _______ _____ _____    ______ ____
ROOT
ATOM      1  C   UNL     1       1.048  10.109  21.055  0.00  0.00    +0.000 C 
ATOM      2  C   UNL     1       0.095  10.754  20.370  0.00  0.00    +0.000 C 
ATOM      3  C   UNL     1      -0.810  10.192  19.343  0.00  0.00    +0.000 C 
ATOM      4  O   UNL     1      -0.923   9.017  19.048  0.00  0.00    +0.000 OA
ATOM      5  N   UNL     1      -1.503  11.323  18.886  0.00  0.00    +0.000 N 
ATOM      6  N   UNL     1      -1.187  12.501  19.560  0.00  0.00    +0.000 NA
ATOM      7  C   UNL     1      -0.265  12.183  20.432  0.00  0.00    +0.000 C 
ATOM      8  C   UNL     1       0.344  13.164  21.380  0.00  0.00    +0.000 C 
ENDROOT
BRANCH   5   9
ATOM      9  C   UNL     1      -2.516  11.335  17.899  0.00  0.00    +0.000 A 
ATOM     10  C   UNL     1      -2.212  11.092  16.549  0.00  0.00    +0.000 A 
ATOM     11  C   UNL     1      -3.212  11.019  15.581  0.00  0.00    +0.000 A 
ATOM     12  C   UNL     1      -4.539  11.207  15.947  0.00  0.00    +0.000 A 
ATOM     13  C   UNL     1      -4.865  11.498  17.277  0.00  0.00    +0.000 A 
ATOM     14  C   UNL     1      -3.855  11.560  18.250  0.00  0.00    +0.000 A 
BRANCH  13  15
ATOM     15  C   UNL     1      -6.300  11.660  17.616  0.00  0.00    +0.000 C 
ATOM     16  O   UNL     1      -6.856  10.985  18.467  0.00  0.00    +0.000 OA
BRANCH  15  17
ATOM     17  O   UNL     1      -6.942  12.583  16.871  0.00  0.00    +0.000 OA
ATOM     18  H   UNL     1      -6.438  13.397  16.694  0.00  0.00    +0.000 HD
ENDBRANCH  15  17
ENDBRANCH  13  15
ENDBRANCH   5   9
BRANCH   1  22
ATOM     19  C   UNL     1       2.230   6.991  19.725  0.00  0.00    +0.000 A 
ATOM     20  C   UNL     1       1.458   6.479  20.745  0.00  0.00    +0.000 A 
ATOM     21  C   UNL     1       0.890   7.591  21.418  0.00  0.00    +0.000 A 
ATOM     22  C   UNL     1       1.348   8.743  20.793  0.00  0.00    +0.000 A 
ATOM     23  O   UNL     1       2.175   8.358  19.765  0.00  0.00    +0.000 OA
BRANCH  19  29
ATOM     24  C   UNL     1       3.273   5.036  18.515  0.00  0.00    +0.000 A 
ATOM     25  C   UNL     1       4.084   4.553  17.477  0.00  0.00    +0.000 A 
ATOM     26  C   UNL     1       4.738   5.447  16.622  0.00  0.00    +0.000 A 
ATOM     27  C   UNL     1       4.537   6.823  16.748  0.00  0.00    +0.000 A 
ATOM     28  C   UNL     1       3.690   7.298  17.754  0.00  0.00    +0.000 A 
ATOM     29  C   UNL     1       3.057   6.423  18.659  0.00  0.00    +0.000 A 
BRANCH  26  30
ATOM     30  N   UNL     1       5.668   4.926  15.613  0.00  0.00    +0.000 N 
ATOM     31  O   UNL     1       6.298   5.746  14.932  0.00  0.00    +0.000 OA
ATOM     32  O   UNL     1       5.752   3.695  15.487  0.00  0.00    +0.000 OA
ENDBRANCH  26  30
BRANCH  24  34
ATOM     33  C   UNL     1       3.504   3.141  19.905  0.00  0.00    +0.000 C 
ATOM     34  O   UNL     1       2.665   4.182  19.405  0.00  0.00    +0.000 OA
ENDBRANCH  24  34
ENDBRANCH  19  29
ENDBRANCH   1  22
TORSDOF 7
ENDMDL
MODEL 8
REMARK VINA RESULT:      -7.3      3.846      6.313
REMARK  Name = 
REMARK  9 active torsions:
REMARK  status: ('A' for Active; 'I' for Inactive)
REMARK    1  A    between atoms: C_1  and  O_2
REMARK    2  A    between atoms: O_2  and  C_3
REMARK    3  A    between atoms: C_5  and  N_6
REMARK    4  A    between atoms: C_11  and  C_12
REMARK    5  A    between atoms: C_15  and  C_16
REMARK    6  A    between atoms: N_20  and  C_21
REMARK    7  A    between atoms: C_25  and  C_26
REMARK    8  A    between atoms: C_26  and  O_28
REMARK    9  A    between atoms: C_31  and  C_32
REMARK                            x       y       z     vdW  Elec       q    Type
REMARK                         _______ _______ _______ _____ _____    ______ ____
ROOT
ATOM      1  C   UNL     1       2.684   8.721  17.484  0.00  0.00    +0.000 C 
ATOM      2  C   UNL     1       3.020   7.480  17.860  0.00  0.00    +0.000 C 
ATOM      3  C   UNL     1       2.485   6.715  19.008  0.00  0.00    +0.000 C 
ATOM      4  O   UNL     1       1.555   7.040  19.722  0.00  0.00    +0.000 OA
ATOM      5  N   UNL     1       3.266   5.549  18.996  0.00  0.00    +0.000 N 
ATOM      6  N   UNL     1       4.165   5.472  17.934  0.00  0.00    +0.000 NA
ATOM      7  C   UNL     1       4.026   6.586  17.261  0.00  0.00    +0.000 C 
ATOM      8  C   UNL     1       4.802   6.901  16.024  0.00  0.00    +0.000 C 
ENDROOT
BRANCH   5   9
ATOM      9  C   UNL     1       3.148   4.458  19.889  0.00  0.00    +0.000 A 
ATOM     10  C   UNL     1       2.002   4.298  20.684  0.00  0.00    +0.000 A 
ATOM     11  C   UNL     1       1.838   3.183  21.505  0.00  0.00    +0.000 A 
ATOM     12  C   UNL     1       2.832   2.214  21.557  0.00  0.00    +0.000 A 
ATOM     13  C   UNL     1       4.005   2.373  20.810  0.00  0.00    +0.000 A 
ATOM     14  C   UNL     1       4.161   3.492  19.977  0.00  0.00    +0.000 A 
BRANCH  13  15
ATOM     15  C   UNL     1       5.020   1.294  20.881  0.00  0.00    +0.000 C 
ATOM     16  O   UNL     1       5.702   1.094  21.872  0.00  0.00    +0.000 OA
BRANCH  15  17
ATOM     17  O   UNL     1       5.155   0.587  19.740  0.00  0.00    +0.000 OA
ATOM     18  H   UNL     1       4.428   0.690  19.099  0.00  0.00    +0.000 HD
ENDBRANCH  15  17
ENDBRANCH  13  15
ENDBRANCH   5   9
BRANCH   1  22
ATOM     19  C   UNL     1      -0.166  10.482  18.773  0.00  0.00    +0.000 A 
ATOM     20  C   UNL     1       0.748  10.885  19.722  0.00  0.00    +0.000 A 
ATOM     21  C   UNL     1       1.980  10.269  19.382  0.00  0.00    +0.000 A 
ATOM     22  C   UNL     1       1.770   9.501  18.245  0.00  0.00    +0.000 A 
ATOM     23  O   UNL     1       0.447   9.634  17.891  0.00  0.00    +0.000 OA
BRANCH  19  29
ATOM     24  C   UNL     1      -2.347  11.647  19.285  0.00  0.00    +0.000 A 
ATOM     25  C   UNL     1      -3.704  11.852  18.990  0.00  0.00    +0.000 A 
ATOM     26  C   UNL     1      -4.321  11.116  17.974  0.00  0.00    +0.000 A 
ATOM     27  C   UNL     1      -3.582  10.221  17.198  0.00  0.00    +0.000 A 
ATOM     28  C   UNL     1      -2.219  10.055  17.462  0.00  0.00    +0.000 A 
ATOM     29  C   UNL     1      -1.582  10.748  18.512  0.00  0.00    +0.000 A 
BRANCH  26  30
ATOM     30  N   UNL     1      -5.765  11.264  17.755  0.00  0.00    +0.000 N 
ATOM     31  O   UNL     1      -6.524  10.518  18.387  0.00  0.00    +0.000 OA
ATOM     32  O   UNL     1      -6.139  12.114  16.931  0.00  0.00    +0.000 OA
ENDBRANCH  26  30
BRANCH  24  34
ATOM     33  C   UNL     1      -2.094  13.689  20.444  0.00  0.00    +0.000 C 
ATOM     34  O   UNL     1      -1.729  12.315  20.316  0.00  0.00    +0.000 OA
ENDBRANCH  24  34
ENDBRANCH  19  29
ENDBRANCH   1  22
TORSDOF 7
ENDMDL
MODEL 9
REMARK VINA RESULT:      -7.2      3.740     11.517
REMARK  Name = 
REMARK  9 active torsions:
REMARK  status: ('A' for Active; 'I' for Inactive)
REMARK    1  A    between atoms: C_1  and  O_2
REMARK    2  A    between atoms: O_2  and  C_3
REMARK    3  A    between atoms: C_5  and  N_6
REMARK    4  A    between atoms: C_11  and  C_12
REMARK    5  A    between atoms: C_15  and  C_16
REMARK    6  A    between atoms: N_20  and  C_21
REMARK    7  A    between atoms: C_25  and  C_26
REMARK    8  A    between atoms: C_26  and  O_28
REMARK    9  A    between atoms: C_31  and  C_32
REMARK                            x       y       z     vdW  Elec       q    Type
REMARK                         _______ _______ _______ _____ _____    ______ ____
ROOT
ATOM      1  C   UNL     1      -0.658  10.206  17.590  0.00  0.00    +0.000 C 
ATOM      2  C   UNL     1      -1.331  10.930  18.494  0.00  0.00    +0.000 C 
ATOM      3  C   UNL     1      -0.880  11.320  19.848  0.00  0.00    +0.000 C 
ATOM      4  O   UNL     1       0.233  11.157  20.313  0.00  0.00    +0.000 OA
ATOM      5  N   UNL     1      -2.013  11.952  20.384  0.00  0.00    +0.000 N 
ATOM      6  N   UNL     1      -3.081  12.064  19.495  0.00  0.00    +0.000 NA
ATOM      7  C   UNL     1      -2.695  11.480  18.390  0.00  0.00    +0.000 C 
ATOM      8  C   UNL     1      -3.546  11.393  17.165  0.00  0.00    +0.000 C 
ENDROOT
BRANCH   5   9
ATOM      9  C   UNL     1      -2.111  12.536  21.668  0.00  0.00    +0.000 A 
ATOM     10  C   UNL     1      -1.168  13.480  22.106  0.00  0.00    +0.000 A 
ATOM     11  C   UNL     1      -1.302  14.124  23.335  0.00  0.00    +0.000 A 
ATOM     12  C   UNL     1      -2.378  13.818  24.159  0.00  0.00    +0.000 A 
ATOM     13  C   UNL     1      -3.306  12.847  23.768  0.00  0.00    +0.000 A 
ATOM     14  C   UNL     1      -3.173  12.208  22.524  0.00  0.00    +0.000 A 
BRANCH  13  15
ATOM     15  C   UNL     1      -4.451  12.582  24.673  0.00  0.00    +0.000 C 
ATOM     16  O   UNL     1      -5.573  12.336  24.262  0.00  0.00    +0.000 OA
BRANCH  15  17
ATOM     17  O   UNL     1      -4.153  12.683  25.984  0.00  0.00    +0.000 OA
ATOM     18  H   UNL     1      -4.643  12.078  26.569  0.00  0.00    +0.000 HD
ENDBRANCH  15  17
ENDBRANCH  13  15
ENDBRANCH   5   9
BRANCH   1  22
ATOM     19  C   UNL     1       2.083   8.129  18.620  0.00  0.00    +0.000 A 
ATOM     20  C   UNL     1       2.812   9.248  18.284  0.00  0.00    +0.000 A 
ATOM     21  C   UNL     1       1.879  10.216  17.831  0.00  0.00    +0.000 A 
ATOM     22  C   UNL     1       0.615   9.647  17.893  0.00  0.00    +0.000 A 
ATOM     23  O   UNL     1       0.759   8.365  18.369  0.00  0.00    +0.000 OA
BRANCH  19  29
ATOM     24  C   UNL     1       3.256   5.895  18.507  0.00  0.00    +0.000 A 
ATOM     25  C   UNL     1       3.511   4.636  19.071  0.00  0.00    +0.000 A 
ATOM     26  C   UNL     1       2.862   4.250  20.249  0.00  0.00    +0.000 A 
ATOM     27  C   UNL     1       2.008   5.134  20.910  0.00  0.00    +0.000 A 
ATOM     28  C   UNL     1       1.794   6.406  20.371  0.00  0.00    +0.000 A 
ATOM     29  C   UNL     1       2.397   6.805  19.160  0.00  0.00    +0.000 A 
BRANCH  26  30
ATOM     30  N   UNL     1       3.057   2.889  20.763  0.00  0.00    +0.000 N 
ATOM     31  O   UNL     1       2.730   2.663  21.936  0.00  0.00    +0.000 OA
ATOM     32  O   UNL     1       3.559   2.050  19.999  0.00  0.00    +0.000 OA
ENDBRANCH  26  30
BRANCH  24  34
ATOM     33  C   UNL     1       5.050   5.599  16.999  0.00  0.00    +0.000 C 
ATOM     34  O   UNL     1       3.836   6.279  17.321  0.00  0.00    +0.000 OA
ENDBRANCH  24  34
ENDBRANCH  19  29
ENDBRANCH   1  22
TORSDOF 7
ENDMDL
