MODEL 1
REMARK VINA RESULT:      -9.0      0.000      0.000
REMARK  Name = 
REMARK  5 active torsions:
REMARK  status: ('A' for Active; 'I' for Inactive)
REMARK    1  A    between atoms: C_5  and  C_6
REMARK    2  A    between atoms: N_17  and  C_18
REMARK    3  A    between atoms: N_25  and  C_26
REMARK    4  A    between atoms: C_26  and  C_27
REMARK    5  A    between atoms: C_27  and  N_28
REMARK                            x       y       z     vdW  Elec       q    Type
REMARK                         _______ _______ _______ _____ _____    ______ ____
ROOT
ATOM      1  O   UNL     1       1.268   8.548  21.877  0.00  0.00    +0.000 OA
ATOM      2  C   UNL     1       0.811   9.286  21.009  0.00  0.00    +0.000 A 
ATOM      3  C   UNL     1      -0.065  10.385  21.368  0.00  0.00    +0.000 A 
ATOM      4  C   UNL     1      -0.520  10.846  22.621  0.00  0.00    +0.000 A 
ATOM      5  C   UNL     1      -1.309  11.948  22.362  0.00  0.00    +0.000 A 
ATOM      6  O   UNL     1      -1.361  12.172  21.011  0.00  0.00    +0.000 OA
ATOM      7  C   UNL     1      -0.580  11.228  20.404  0.00  0.00    +0.000 A 
ATOM      8  C   UNL     1      -0.282  11.103  19.032  0.00  0.00    +0.000 A 
ATOM      9  C   UNL     1       0.561  10.116  18.691  0.00  0.00    +0.000 A 
ATOM     10  N   UNL     1       1.100   9.205  19.617  0.00  0.00    +0.000 N 
ENDROOT
BRANCH  10  11
ATOM     11  C   UNL     1       1.972   8.165  19.182  0.00  0.00    +0.000 A 
ATOM     12  C   UNL     1       2.082   6.983  19.926  0.00  0.00    +0.000 A 
ATOM     13  C   UNL     1       2.908   5.930  19.515  0.00  0.00    +0.000 A 
ATOM     14  C   UNL     1       3.651   6.112  18.337  0.00  0.00    +0.000 A 
ATOM     15  C   UNL     1       3.584   7.292  17.601  0.00  0.00    +0.000 A 
ATOM     16  C   UNL     1       4.513   7.113  16.555  0.00  0.00    +0.000 A 
ATOM     17  N   UNL     1       5.086   5.910  16.573  0.00  0.00    +0.000 NA
ATOM     18  N   UNL     1       4.537   5.308  17.652  0.00  0.00    +0.000 N 
ATOM     19  C   UNL     1       2.720   8.326  18.007  0.00  0.00    +0.000 A 
BRANCH  18  20
ATOM     20  C   UNL     1       4.957   3.952  17.984  0.00  0.00    +0.000 C 
BRANCH  20  21
ATOM     21  C   UNL     1       3.860   2.914  17.704  0.00  0.00    +0.000 C 
BRANCH  21  22
ATOM     22  N   UNL     1       3.675   1.878  18.745  0.00  0.00    +0.000 NA
ATOM     23  C   UNL     1       2.241   1.551  18.890  0.00  0.00    +0.000 C 
ATOM     24  C   UNL     1       1.706   2.601  19.847  0.00  0.00    +0.000 C 
ATOM     25  C   UNL     1       2.845   2.776  20.834  0.00  0.00    +0.000 C 
ATOM     26  C   UNL     1       4.090   2.292  20.096  0.00  0.00    +0.000 C 
ENDBRANCH  21  22
ENDBRANCH  20  21
ENDBRANCH  18  20
ENDBRANCH  10  11
BRANCH   5  27
ATOM     27  C   UNL     1      -2.013  12.897  23.219  0.00  0.00    +0.000 A 
ATOM     28  C   UNL     1      -3.352  12.700  23.589  0.00  0.00    +0.000 A 
ATOM     29  C   UNL     1      -4.025  13.645  24.368  0.00  0.00    +0.000 A 
ATOM     30  C   UNL     1      -3.368  14.802  24.784  0.00  0.00    +0.000 A 
ATOM     31  C   UNL     1      -2.037  15.001  24.432  0.00  0.00    +0.000 A 
ATOM     32 CL   UNL     1      -1.225  16.434  24.928  0.00  0.00    +0.000 Cl
ATOM     33  C   UNL     1      -1.358  14.055  23.664  0.00  0.00    +0.000 A 
ENDBRANCH   5  27
TORSDOF 5
ENDMDL
MODEL 2
REMARK VINA RESULT:      -9.0      1.497      1.934
REMARK  Name = 
REMARK  5 active torsions:
REMARK  status: ('A' for Active; 'I' for Inactive)
REMARK    1  A    between atoms: C_5  and  C_6
REMARK    2  A    between atoms: N_17  and  C_18
REMARK    3  A    between atoms: N_25  and  C_26
REMARK    4  A    between atoms: C_26  and  C_27
REMARK    5  A    between atoms: C_27  and  N_28
REMARK                            x       y       z     vdW  Elec       q    Type
REMARK                         _______ _______ _______ _____ _____    ______ ____
ROOT
ATOM      1  O   UNL     1       0.748  10.015  22.566  0.00  0.00    +0.000 OA
ATOM      2  C   UNL     1       0.036  10.451  21.668  0.00  0.00    +0.000 A 
ATOM      3  C   UNL     1      -0.888  11.540  21.926  0.00  0.00    +0.000 A 
ATOM      4  C   UNL     1      -1.141  12.292  23.092  0.00  0.00    +0.000 A 
ATOM      5  C   UNL     1      -2.103  13.221  22.748  0.00  0.00    +0.000 A 
ATOM      6  O   UNL     1      -2.451  13.060  21.433  0.00  0.00    +0.000 OA
ATOM      7  C   UNL     1      -1.689  12.046  20.923  0.00  0.00    +0.000 A 
ATOM      8  C   UNL     1      -1.656  11.571  19.597  0.00  0.00    +0.000 A 
ATOM      9  C   UNL     1      -0.776  10.593  19.333  0.00  0.00    +0.000 A 
ATOM     10  N   UNL     1       0.050  10.013  20.313  0.00  0.00    +0.000 N 
ENDROOT
BRANCH  10  11
ATOM     11  C   UNL     1       0.947   8.959  19.969  0.00  0.00    +0.000 A 
ATOM     12  C   UNL     1       1.129   7.879  20.840  0.00  0.00    +0.000 A 
ATOM     13  C   UNL     1       1.981   6.814  20.523  0.00  0.00    +0.000 A 
ATOM     14  C   UNL     1       2.675   6.881  19.304  0.00  0.00    +0.000 A 
ATOM     15  C   UNL     1       2.536   7.963  18.438  0.00  0.00    +0.000 A 
ATOM     16  C   UNL     1       3.435   7.694  17.385  0.00  0.00    +0.000 A 
ATOM     17  N   UNL     1       4.055   6.522  17.521  0.00  0.00    +0.000 NA
ATOM     18  N   UNL     1       3.568   6.033  18.683  0.00  0.00    +0.000 N 
ATOM     19  C   UNL     1       1.647   9.007  18.754  0.00  0.00    +0.000 A 
BRANCH  18  20
ATOM     20  C   UNL     1       4.052   4.741  19.156  0.00  0.00    +0.000 C 
BRANCH  20  21
ATOM     21  C   UNL     1       3.352   3.564  18.460  0.00  0.00    +0.000 C 
BRANCH  21  22
ATOM     22  N   UNL     1       2.913   2.463  19.347  0.00  0.00    +0.000 NA
ATOM     23  C   UNL     1       1.490   2.148  19.103  0.00  0.00    +0.000 C 
ATOM     24  C   UNL     1       0.727   3.139  19.963  0.00  0.00    +0.000 C 
ATOM     25  C   UNL     1       1.578   3.232  21.215  0.00  0.00    +0.000 C 
ATOM     26  C   UNL     1       2.972   2.780  20.785  0.00  0.00    +0.000 C 
ENDBRANCH  21  22
ENDBRANCH  20  21
ENDBRANCH  18  20
ENDBRANCH  10  11
BRANCH   5  27
ATOM     27  C   UNL     1      -2.741  14.314  23.475  0.00  0.00    +0.000 A 
ATOM     28  C   UNL     1      -2.036  15.085  24.410  0.00  0.00    +0.000 A 
ATOM     29  C   UNL     1      -2.676  16.094  25.134  0.00  0.00    +0.000 A 
ATOM     30  C   UNL     1      -4.033  16.344  24.933  0.00  0.00    +0.000 A 
ATOM     31  C   UNL     1      -4.739  15.592  23.999  0.00  0.00    +0.000 A 
ATOM     32 CL   UNL     1      -6.418  15.883  23.758  0.00  0.00    +0.000 Cl
ATOM     33  C   UNL     1      -4.101  14.592  23.267  0.00  0.00    +0.000 A 
ENDBRANCH   5  27
TORSDOF 5
ENDMDL
MODEL 3
REMARK VINA RESULT:      -8.9      0.984      1.272
REMARK  Name = 
REMARK  5 active torsions:
REMARK  status: ('A' for Active; 'I' for Inactive)
REMARK    1  A    between atoms: C_5  and  C_6
REMARK    2  A    between atoms: N_17  and  C_18
REMARK    3  A    between atoms: N_25  and  C_26
REMARK    4  A    between atoms: C_26  and  C_27
REMARK    5  A    between atoms: C_27  and  N_28
REMARK                            x       y       z     vdW  Elec       q    Type
REMARK                         _______ _______ _______ _____ _____    ______ ____
ROOT
ATOM      1  O   UNL     1       1.261   8.912  21.929  0.00  0.00    +0.000 OA
ATOM      2  C   UNL     1       0.717   9.532  21.021  0.00  0.00    +0.000 A 
ATOM      3  C   UNL     1      -0.190  10.625  21.318  0.00  0.00    +0.000 A 
ATOM      4  C   UNL     1      -0.591  11.197  22.543  0.00  0.00    +0.000 A 
ATOM      5  C   UNL     1      -1.448  12.230  22.221  0.00  0.00    +0.000 A 
ATOM      6  O   UNL     1      -1.591  12.305  20.861  0.00  0.00    +0.000 OA
ATOM      7  C   UNL     1      -0.802  11.336  20.307  0.00  0.00    +0.000 A 
ATOM      8  C   UNL     1      -0.581  11.076  18.939  0.00  0.00    +0.000 A 
ATOM      9  C   UNL     1       0.288  10.096  18.649  0.00  0.00    +0.000 A 
ATOM     10  N   UNL     1       0.926   9.315  19.629  0.00  0.00    +0.000 N 
ENDROOT
BRANCH  10  11
ATOM     11  C   UNL     1       1.821   8.272  19.250  0.00  0.00    +0.000 A 
ATOM     12  C   UNL     1       1.932   7.119  20.038  0.00  0.00    +0.000 A 
ATOM     13  C   UNL     1       2.780   6.064  19.682  0.00  0.00    +0.000 A 
ATOM     14  C   UNL     1       3.546   6.214  18.513  0.00  0.00    +0.000 A 
ATOM     15  C   UNL     1       3.478   7.366  17.734  0.00  0.00    +0.000 A 
ATOM     16  C   UNL     1       4.431   7.163  16.714  0.00  0.00    +0.000 A 
ATOM     17  N   UNL     1       5.020   5.971  16.788  0.00  0.00    +0.000 NA
ATOM     18  N   UNL     1       4.456   5.399  17.876  0.00  0.00    +0.000 N 
ATOM     19  C   UNL     1       2.592   8.402  18.085  0.00  0.00    +0.000 A 
BRANCH  18  20
ATOM     20  C   UNL     1       4.889   4.062  18.266  0.00  0.00    +0.000 C 
BRANCH  20  21
ATOM     21  C   UNL     1       3.872   2.981  17.870  0.00  0.00    +0.000 C 
BRANCH  21  22
ATOM     22  N   UNL     1       3.625   1.930  18.883  0.00  0.00    +0.000 NA
ATOM     23  C   UNL     1       2.179   1.636  18.970  0.00  0.00    +0.000 C 
ATOM     24  C   UNL     1       1.634   2.680  19.928  0.00  0.00    +0.000 C 
ATOM     25  C   UNL     1       2.740   2.810  20.958  0.00  0.00    +0.000 C 
ATOM     26  C   UNL     1       4.000   2.309  20.257  0.00  0.00    +0.000 C 
ENDBRANCH  21  22
ENDBRANCH  20  21
ENDBRANCH  18  20
ENDBRANCH  10  11
BRANCH   5  27
ATOM     27  C   UNL     1      -2.146  13.234  23.018  0.00  0.00    +0.000 A 
ATOM     28  C   UNL     1      -1.452  14.128  23.847  0.00  0.00    +0.000 A 
ATOM     29  C   UNL     1      -2.140  15.049  24.642  0.00  0.00    +0.000 A 
ATOM     30  C   UNL     1      -3.533  15.085  24.621  0.00  0.00    +0.000 A 
ATOM     31  C   UNL     1      -4.231  14.211  23.793  0.00  0.00    +0.000 A 
ATOM     32 CL   UNL     1      -5.951  14.238  23.774  0.00  0.00    +0.000 Cl
ATOM     33  C   UNL     1      -3.547  13.298  22.990  0.00  0.00    +0.000 A 
ENDBRANCH   5  27
TORSDOF 5
ENDMDL
MODEL 4
REMARK VINA RESULT:      -8.8      1.175      1.484
REMARK  Name = 
REMARK  5 active torsions:
REMARK  status: ('A' for Active; 'I' for Inactive)
REMARK    1  A    between atoms: C_5  and  C_6
REMARK    2  A    between atoms: N_17  and  C_18
REMARK    3  A    between atoms: N_25  and  C_26
REMARK    4  A    between atoms: C_26  and  C_27
REMARK    5  A    between atoms: C_27  and  N_28
REMARK                            x       y       z     vdW  Elec       q    Type
REMARK                         _______ _______ _______ _____ _____    ______ ____
ROOT
ATOM      1  O   UNL     1       0.813   9.957  22.561  0.00  0.00    +0.000 OA
ATOM      2  C   UNL     1       0.087  10.388  21.671  0.00  0.00    +0.000 A 
ATOM      3  C   UNL     1      -0.836  11.475  21.938  0.00  0.00    +0.000 A 
ATOM      4  C   UNL     1      -1.074  12.231  23.105  0.00  0.00    +0.000 A 
ATOM      5  C   UNL     1      -2.044  13.156  22.771  0.00  0.00    +0.000 A 
ATOM      6  O   UNL     1      -2.410  12.989  21.462  0.00  0.00    +0.000 OA
ATOM      7  C   UNL     1      -1.652  11.975  20.945  0.00  0.00    +0.000 A 
ATOM      8  C   UNL     1      -1.638  11.495  19.620  0.00  0.00    +0.000 A 
ATOM      9  C   UNL     1      -0.758  10.518  19.348  0.00  0.00    +0.000 A 
ATOM     10  N   UNL     1       0.084   9.944  20.318  0.00  0.00    +0.000 N 
ENDROOT
BRANCH  10  11
ATOM     11  C   UNL     1       0.978   8.892  19.965  0.00  0.00    +0.000 A 
ATOM     12  C   UNL     1       1.156   7.802  20.826  0.00  0.00    +0.000 A 
ATOM     13  C   UNL     1       2.005   6.738  20.500  0.00  0.00    +0.000 A 
ATOM     14  C   UNL     1       2.702   6.815  19.283  0.00  0.00    +0.000 A 
ATOM     15  C   UNL     1       2.567   7.906  18.428  0.00  0.00    +0.000 A 
ATOM     16  C   UNL     1       3.467   7.645  17.373  0.00  0.00    +0.000 A 
ATOM     17  N   UNL     1       4.084   6.471  17.499  0.00  0.00    +0.000 NA
ATOM     18  N   UNL     1       3.593   5.971  18.656  0.00  0.00    +0.000 N 
ATOM     19  C   UNL     1       1.680   8.949  18.752  0.00  0.00    +0.000 A 
BRANCH  18  20
ATOM     20  C   UNL     1       4.074   4.674  19.116  0.00  0.00    +0.000 C 
BRANCH  20  21
ATOM     21  C   UNL     1       3.371   3.506  18.409  0.00  0.00    +0.000 C 
BRANCH  21  22
ATOM     22  N   UNL     1       2.902   2.411  19.289  0.00  0.00    +0.000 NA
ATOM     23  C   UNL     1       1.465   2.150  19.058  0.00  0.00    +0.000 C 
ATOM     24  C   UNL     1       0.748   3.158  19.938  0.00  0.00    +0.000 C 
ATOM     25  C   UNL     1       1.617   3.206  21.181  0.00  0.00    +0.000 C 
ATOM     26  C   UNL     1       2.988   2.709  20.729  0.00  0.00    +0.000 C 
ENDBRANCH  21  22
ENDBRANCH  20  21
ENDBRANCH  18  20
ENDBRANCH  10  11
BRANCH   5  27
ATOM     27  C   UNL     1      -2.674  14.250  23.503  0.00  0.00    +0.000 A 
ATOM     28  C   UNL     1      -4.007  14.620  23.269  0.00  0.00    +0.000 A 
ATOM     29  C   UNL     1      -4.577  15.704  23.941  0.00  0.00    +0.000 A 
ATOM     30  C   UNL     1      -3.820  16.434  24.856  0.00  0.00    +0.000 A 
ATOM     31  C   UNL     1      -2.502  16.068  25.104  0.00  0.00    +0.000 A 
ATOM     32 CL   UNL     1      -1.556  16.975  26.219  0.00  0.00    +0.000 Cl
ATOM     33  C   UNL     1      -1.932  14.980  24.443  0.00  0.00    +0.000 A 
ENDBRANCH   5  27
TORSDOF 5
ENDMDL
MODEL 5
REMARK VINA RESULT:      -8.8      4.442     10.905
REMARK  Name = 
REMARK  5 active torsions:
REMARK  status: ('A' for Active; 'I' for Inactive)
REMARK    1  A    between atoms: C_5  and  C_6
REMARK    2  A    between atoms: N_17  and  C_18
REMARK    3  A    between atoms: N_25  and  C_26
REMARK    4  A    between atoms: C_26  and  C_27
REMARK    5  A    between atoms: C_27  and  N_28
REMARK                            x       y       z     vdW  Elec       q    Type
REMARK                         _______ _______ _______ _____ _____    ______ ____
ROOT
ATOM      1  O   UNL     1       1.474  10.052  18.023  0.00  0.00    +0.000 OA
ATOM      2  C   UNL     1       1.526   9.147  18.851  0.00  0.00    +0.000 A 
ATOM      3  C   UNL     1       2.417   8.020  18.651  0.00  0.00    +0.000 A 
ATOM      4  C   UNL     1       3.343   7.733  17.626  0.00  0.00    +0.000 A 
ATOM      5  C   UNL     1       3.936   6.534  17.969  0.00  0.00    +0.000 A 
ATOM      6  O   UNL     1       3.407   6.078  19.148  0.00  0.00    +0.000 OA
ATOM      7  C   UNL     1       2.493   7.001  19.577  0.00  0.00    +0.000 A 
ATOM      8  C   UNL     1       1.746   6.987  20.772  0.00  0.00    +0.000 A 
ATOM      9  C   UNL     1       0.950   8.045  20.991  0.00  0.00    +0.000 A 
ATOM     10  N   UNL     1       0.804   9.104  20.078  0.00  0.00    +0.000 N 
ENDROOT
BRANCH  10  11
ATOM     11  C   UNL     1      -0.080  10.186  20.363  0.00  0.00    +0.000 A 
ATOM     12  C   UNL     1      -1.016  10.600  19.407  0.00  0.00    +0.000 A 
ATOM     13  C   UNL     1      -1.916  11.641  19.663  0.00  0.00    +0.000 A 
ATOM     14  C   UNL     1      -1.828  12.281  20.910  0.00  0.00    +0.000 A 
ATOM     15  C   UNL     1      -0.882  11.910  21.861  0.00  0.00    +0.000 A 
ATOM     16  C   UNL     1      -1.066  12.822  22.922  0.00  0.00    +0.000 A 
ATOM     17  N   UNL     1      -2.073  13.667  22.707  0.00  0.00    +0.000 NA
ATOM     18  N   UNL     1      -2.538  13.312  21.488  0.00  0.00    +0.000 N 
ATOM     19  C   UNL     1      -0.009  10.837  21.603  0.00  0.00    +0.000 A 
BRANCH  18  20
ATOM     20  C   UNL     1      -3.657  14.056  20.924  0.00  0.00    +0.000 C 
BRANCH  20  21
ATOM     21  C   UNL     1      -4.972  13.793  21.674  0.00  0.00    +0.000 C 
BRANCH  21  22
ATOM     22  N   UNL     1      -5.542  12.436  21.514  0.00  0.00    +0.000 NA
ATOM     23  C   UNL     1      -5.735  12.129  20.082  0.00  0.00    +0.000 C 
ATOM     24  C   UNL     1      -7.086  12.732  19.740  0.00  0.00    +0.000 C 
ATOM     25  C   UNL     1      -7.906  12.463  20.988  0.00  0.00    +0.000 C 
ATOM     26  C   UNL     1      -6.882  12.267  22.103  0.00  0.00    +0.000 C 
ENDBRANCH  21  22
ENDBRANCH  20  21
ENDBRANCH  18  20
ENDBRANCH  10  11
BRANCH   5  27
ATOM     27  C   UNL     1       5.000   5.738  17.367  0.00  0.00    +0.000 A 
ATOM     28  C   UNL     1       6.185   5.449  18.061  0.00  0.00    +0.000 A 
ATOM     29  C   UNL     1       7.215   4.730  17.450  0.00  0.00    +0.000 A 
ATOM     30  C   UNL     1       7.075   4.291  16.134  0.00  0.00    +0.000 A 
ATOM     31  C   UNL     1       5.899   4.561  15.442  0.00  0.00    +0.000 A 
ATOM     32 CL   UNL     1       5.725   4.037  13.812  0.00  0.00    +0.000 Cl
ATOM     33  C   UNL     1       4.864   5.269  16.051  0.00  0.00    +0.000 A 
ENDBRANCH   5  27
TORSDOF 5
ENDMDL
MODEL 6
REMARK VINA RESULT:      -8.7      4.337     11.004
REMARK  Name = 
REMARK  5 active torsions:
REMARK  status: ('A' for Active; 'I' for Inactive)
REMARK    1  A    between atoms: C_5  and  C_6
REMARK    2  A    between atoms: N_17  and  C_18
REMARK    3  A    between atoms: N_25  and  C_26
REMARK    4  A    between atoms: C_26  and  C_27
REMARK    5  A    between atoms: C_27  and  N_28
REMARK                            x       y       z     vdW  Elec       q    Type
REMARK                         _______ _______ _______ _____ _____    ______ ____
ROOT
ATOM      1  O   UNL     1       1.623   9.815  18.226  0.00  0.00    +0.000 OA
ATOM      2  C   UNL     1       1.680   8.841  18.971  0.00  0.00    +0.000 A 
ATOM      3  C   UNL     1       2.560   7.730  18.660  0.00  0.00    +0.000 A 
ATOM      4  C   UNL     1       3.470   7.528  17.602  0.00  0.00    +0.000 A 
ATOM      5  C   UNL     1       4.059   6.300  17.831  0.00  0.00    +0.000 A 
ATOM      6  O   UNL     1       3.542   5.746  18.972  0.00  0.00    +0.000 OA
ATOM      7  C   UNL     1       2.640   6.633  19.492  0.00  0.00    +0.000 A 
ATOM      8  C   UNL     1       1.908   6.519  20.691  0.00  0.00    +0.000 A 
ATOM      9  C   UNL     1       1.123   7.558  21.013  0.00  0.00    +0.000 A 
ATOM     10  N   UNL     1       0.973   8.695  20.198  0.00  0.00    +0.000 N 
ENDROOT
BRANCH  10  11
ATOM     11  C   UNL     1       0.101   9.753  20.589  0.00  0.00    +0.000 A 
ATOM     12  C   UNL     1       0.007  10.126  21.935  0.00  0.00    +0.000 A 
ATOM     13  C   UNL     1      -0.819  11.178  22.350  0.00  0.00    +0.000 A 
ATOM     14  C   UNL     1      -1.579  11.832  21.367  0.00  0.00    +0.000 A 
ATOM     15  C   UNL     1      -1.528  11.454  20.028  0.00  0.00    +0.000 A 
ATOM     16  C   UNL     1      -2.471  12.286  19.387  0.00  0.00    +0.000 A 
ATOM     17  N   UNL     1      -3.037  13.160  20.218  0.00  0.00    +0.000 NA
ATOM     18  N   UNL     1      -2.469  12.883  21.414  0.00  0.00    +0.000 N 
ATOM     19  C   UNL     1      -0.665  10.420  19.621  0.00  0.00    +0.000 A 
BRANCH  18  20
ATOM     20  C   UNL     1      -2.878  13.660  22.578  0.00  0.00    +0.000 C 
BRANCH  20  21
ATOM     21  C   UNL     1      -4.397  13.879  22.631  0.00  0.00    +0.000 C 
BRANCH  21  22
ATOM     22  N   UNL     1      -5.211  12.673  22.903  0.00  0.00    +0.000 NA
ATOM     23  C   UNL     1      -6.362  12.613  21.978  0.00  0.00    +0.000 C 
ATOM     24  C   UNL     1      -7.426  13.473  22.635  0.00  0.00    +0.000 C 
ATOM     25  C   UNL     1      -7.252  13.165  24.110  0.00  0.00    +0.000 C 
ATOM     26  C   UNL     1      -5.824  12.643  24.243  0.00  0.00    +0.000 C 
ENDBRANCH  21  22
ENDBRANCH  20  21
ENDBRANCH  18  20
ENDBRANCH  10  11
BRANCH   5  27
ATOM     27  C   UNL     1       5.110   5.554  17.148  0.00  0.00    +0.000 A 
ATOM     28  C   UNL     1       6.348   5.302  17.757  0.00  0.00    +0.000 A 
ATOM     29  C   UNL     1       7.361   4.630  17.068  0.00  0.00    +0.000 A 
ATOM     30  C   UNL     1       7.150   4.203  15.758  0.00  0.00    +0.000 A 
ATOM     31  C   UNL     1       5.921   4.437  15.149  0.00  0.00    +0.000 A 
ATOM     32 CL   UNL     1       5.658   3.927  13.527  0.00  0.00    +0.000 Cl
ATOM     33  C   UNL     1       4.904   5.097  15.837  0.00  0.00    +0.000 A 
ENDBRANCH   5  27
TORSDOF 5
ENDMDL
MODEL 7
REMARK VINA RESULT:      -8.7      2.448      3.726
REMARK  Name = 
REMARK  5 active torsions:
REMARK  status: ('A' for Active; 'I' for Inactive)
REMARK    1  A    between atoms: C_5  and  C_6
REMARK    2  A    between atoms: N_17  and  C_18
REMARK    3  A    between atoms: N_25  and  C_26
REMARK    4  A    between atoms: C_26  and  C_27
REMARK    5  A    between atoms: C_27  and  N_28
REMARK                            x       y       z     vdW  Elec       q    Type
REMARK                         _______ _______ _______ _____ _____    ______ ____
ROOT
ATOM      1  O   UNL     1       1.502   7.694  20.969  0.00  0.00    +0.000 OA
ATOM      2  C   UNL     1       1.282   8.603  20.175  0.00  0.00    +0.000 A 
ATOM      3  C   UNL     1       0.502   9.758  20.579  0.00  0.00    +0.000 A 
ATOM      4  C   UNL     1      -0.084  10.102  21.814  0.00  0.00    +0.000 A 
ATOM      5  C   UNL     1      -0.681  11.333  21.627  0.00  0.00    +0.000 A 
ATOM      6  O   UNL     1      -0.492  11.745  20.334  0.00  0.00    +0.000 OA
ATOM      7  C   UNL     1       0.253  10.791  19.699  0.00  0.00    +0.000 A 
ATOM      8  C   UNL     1       0.745  10.814  18.378  0.00  0.00    +0.000 A 
ATOM      9  C   UNL     1       1.504   9.773  18.005  0.00  0.00    +0.000 A 
ATOM     10  N   UNL     1       1.774   8.674  18.840  0.00  0.00    +0.000 N 
ENDROOT
BRANCH  10  11
ATOM     11  C   UNL     1       2.568   7.588  18.370  0.00  0.00    +0.000 A 
ATOM     12  C   UNL     1       3.830   7.830  17.812  0.00  0.00    +0.000 A 
ATOM     13  C   UNL     1       4.648   6.785  17.364  0.00  0.00    +0.000 A 
ATOM     14  C   UNL     1       4.144   5.478  17.467  0.00  0.00    +0.000 A 
ATOM     15  C   UNL     1       2.878   5.218  17.986  0.00  0.00    +0.000 A 
ATOM     16  C   UNL     1       2.719   3.823  17.852  0.00  0.00    +0.000 A 
ATOM     17  N   UNL     1       3.798   3.225  17.350  0.00  0.00    +0.000 NA
ATOM     18  N   UNL     1       4.662   4.243  17.140  0.00  0.00    +0.000 N 
ATOM     19  C   UNL     1       2.084   6.275  18.467  0.00  0.00    +0.000 A 
BRANCH  18  20
ATOM     20  C   UNL     1       5.971   3.944  16.570  0.00  0.00    +0.000 C 
BRANCH  20  21
ATOM     21  C   UNL     1       5.873   3.383  15.144  0.00  0.00    +0.000 C 
BRANCH  21  22
ATOM     22  N   UNL     1       5.713   4.387  14.068  0.00  0.00    +0.000 NA
ATOM     23  C   UNL     1       4.969   3.805  12.932  0.00  0.00    +0.000 C 
ATOM     24  C   UNL     1       6.027   3.096  12.106  0.00  0.00    +0.000 C 
ATOM     25  C   UNL     1       7.221   4.027  12.208  0.00  0.00    +0.000 C 
ATOM     26  C   UNL     1       6.980   4.847  13.473  0.00  0.00    +0.000 C 
ENDBRANCH  21  22
ENDBRANCH  20  21
ENDBRANCH  18  20
ENDBRANCH  10  11
BRANCH   5  27
ATOM     27  C   UNL     1      -1.389  12.245  22.518  0.00  0.00    +0.000 A 
ATOM     28  C   UNL     1      -0.887  13.521  22.814  0.00  0.00    +0.000 A 
ATOM     29  C   UNL     1      -1.552  14.362  23.711  0.00  0.00    +0.000 A 
ATOM     30  C   UNL     1      -2.729  13.936  24.325  0.00  0.00    +0.000 A 
ATOM     31  C   UNL     1      -3.242  12.677  24.029  0.00  0.00    +0.000 A 
ATOM     32 CL   UNL     1      -4.684  12.138  24.796  0.00  0.00    +0.000 Cl
ATOM     33  C   UNL     1      -2.587  11.840  23.127  0.00  0.00    +0.000 A 
ENDBRANCH   5  27
TORSDOF 5
ENDMDL
MODEL 8
REMARK VINA RESULT:      -8.6      1.779      3.322
REMARK  Name = 
REMARK  5 active torsions:
REMARK  status: ('A' for Active; 'I' for Inactive)
REMARK    1  A    between atoms: C_5  and  C_6
REMARK    2  A    between atoms: N_17  and  C_18
REMARK    3  A    between atoms: N_25  and  C_26
REMARK    4  A    between atoms: C_26  and  C_27
REMARK    5  A    between atoms: C_27  and  N_28
REMARK                            x       y       z     vdW  Elec       q    Type
REMARK                         _______ _______ _______ _____ _____    ______ ____
ROOT
ATOM      1  O   UNL     1       0.043   9.964  18.888  0.00  0.00    +0.000 OA
ATOM      2  C   UNL     1       0.176   9.825  20.100  0.00  0.00    +0.000 A 
ATOM      3  C   UNL     1      -0.570  10.663  21.021  0.00  0.00    +0.000 A 
ATOM      4  C   UNL     1      -1.525  11.676  20.796  0.00  0.00    +0.000 A 
ATOM      5  C   UNL     1      -1.924  12.111  22.044  0.00  0.00    +0.000 A 
ATOM      6  O   UNL     1      -1.250  11.416  23.012  0.00  0.00    +0.000 OA
ATOM      7  C   UNL     1      -0.437  10.513  22.385  0.00  0.00    +0.000 A 
ATOM      8  C   UNL     1       0.395   9.542  22.977  0.00  0.00    +0.000 A 
ATOM      9  C   UNL     1       1.058   8.731  22.138  0.00  0.00    +0.000 A 
ATOM     10  N   UNL     1       0.991   8.846  20.738  0.00  0.00    +0.000 N 
ENDROOT
BRANCH  10  11
ATOM     11  C   UNL     1       1.741   7.967  19.904  0.00  0.00    +0.000 A 
ATOM     12  C   UNL     1       2.283   8.431  18.700  0.00  0.00    +0.000 A 
ATOM     13  C   UNL     1       3.048   7.602  17.870  0.00  0.00    +0.000 A 
ATOM     14  C   UNL     1       3.229   6.270  18.275  0.00  0.00    +0.000 A 
ATOM     15  C   UNL     1       2.669   5.777  19.451  0.00  0.00    +0.000 A 
ATOM     16  C   UNL     1       3.011   4.408  19.462  0.00  0.00    +0.000 A 
ATOM     17  N   UNL     1       3.770   4.057  18.424  0.00  0.00    +0.000 NA
ATOM     18  N   UNL     1       3.908   5.205  17.723  0.00  0.00    +0.000 N 
ATOM     19  C   UNL     1       1.935   6.633  20.293  0.00  0.00    +0.000 A 
BRANCH  18  20
ATOM     20  C   UNL     1       4.687   5.180  16.490  0.00  0.00    +0.000 C 
BRANCH  20  21
ATOM     21  C   UNL     1       5.565   6.430  16.329  0.00  0.00    +0.000 C 
BRANCH  21  22
ATOM     22  N   UNL     1       7.025   6.208  16.436  0.00  0.00    +0.000 NA
ATOM     23  C   UNL     1       7.298   4.921  17.108  0.00  0.00    +0.000 C 
ATOM     24  C   UNL     1       7.243   5.245  18.590  0.00  0.00    +0.000 C 
ATOM     25  C   UNL     1       7.880   6.620  18.664  0.00  0.00    +0.000 C 
ATOM     26  C   UNL     1       7.732   7.204  17.261  0.00  0.00    +0.000 C 
ENDBRANCH  21  22
ENDBRANCH  20  21
ENDBRANCH  18  20
ENDBRANCH  10  11
BRANCH   5  27
ATOM     27  C   UNL     1      -2.917  13.082  22.492  0.00  0.00    +0.000 A 
ATOM     28  C   UNL     1      -4.166  13.201  21.865  0.00  0.00    +0.000 A 
ATOM     29  C   UNL     1      -5.083  14.172  22.275  0.00  0.00    +0.000 A 
ATOM     30  C   UNL     1      -4.762  15.040  23.318  0.00  0.00    +0.000 A 
ATOM     31  C   UNL     1      -3.531  14.922  23.955  0.00  0.00    +0.000 A 
ATOM     32 CL   UNL     1      -3.120  16.000  25.232  0.00  0.00    +0.000 Cl
ATOM     33  C   UNL     1      -2.616  13.947  23.556  0.00  0.00    +0.000 A 
ENDBRANCH   5  27
TORSDOF 5
ENDMDL
MODEL 9
REMARK VINA RESULT:      -8.6      1.726      3.005
REMARK  Name = 
REMARK  5 active torsions:
REMARK  status: ('A' for Active; 'I' for Inactive)
REMARK    1  A    between atoms: C_5  and  C_6
REMARK    2  A    between atoms: N_17  and  C_18
REMARK    3  A    between atoms: N_25  and  C_26
REMARK    4  A    between atoms: C_26  and  C_27
REMARK    5  A    between atoms: C_27  and  N_28
REMARK                            x       y       z     vdW  Elec       q    Type
REMARK                         _______ _______ _______ _____ _____    ______ ____
ROOT
ATOM      1  O   UNL     1       0.748   9.507  22.120  0.00  0.00    +0.000 OA
ATOM      2  C   UNL     1       0.239  10.217  21.258  0.00  0.00    +0.000 A 
ATOM      3  C   UNL     1      -0.585  11.350  21.632  0.00  0.00    +0.000 A 
ATOM      4  C   UNL     1      -0.932  11.875  22.894  0.00  0.00    +0.000 A 
ATOM      5  C   UNL     1      -1.718  12.983  22.647  0.00  0.00    +0.000 A 
ATOM      6  O   UNL     1      -1.869  13.149  21.296  0.00  0.00    +0.000 OA
ATOM      7  C   UNL     1      -1.156  12.162  20.674  0.00  0.00    +0.000 A 
ATOM      8  C   UNL     1      -0.968  11.970  19.290  0.00  0.00    +0.000 A 
ATOM      9  C   UNL     1      -0.173  10.951  18.930  0.00  0.00    +0.000 A 
ATOM     10  N   UNL     1       0.418  10.069  19.853  0.00  0.00    +0.000 N 
ENDROOT
BRANCH  10  11
ATOM     11  C   UNL     1       1.233   8.991  19.400  0.00  0.00    +0.000 A 
ATOM     12  C   UNL     1       1.824   9.041  18.131  0.00  0.00    +0.000 A 
ATOM     13  C   UNL     1       2.651   8.012  17.665  0.00  0.00    +0.000 A 
ATOM     14  C   UNL     1       2.846   6.905  18.507  0.00  0.00    +0.000 A 
ATOM     15  C   UNL     1       2.239   6.818  19.757  0.00  0.00    +0.000 A 
ATOM     16  C   UNL     1       2.615   5.550  20.249  0.00  0.00    +0.000 A 
ATOM     17  N   UNL     1       3.435   4.899  19.424  0.00  0.00    +0.000 NA
ATOM     18  N   UNL     1       3.580   5.745  18.379  0.00  0.00    +0.000 N 
ATOM     19  C   UNL     1       1.441   7.878  20.227  0.00  0.00    +0.000 A 
BRANCH  18  20
ATOM     20  C   UNL     1       4.421   5.336  17.261  0.00  0.00    +0.000 C 
BRANCH  20  21
ATOM     21  C   UNL     1       5.567   4.412  17.698  0.00  0.00    +0.000 C 
BRANCH  21  22
ATOM     22  N   UNL     1       6.908   4.759  17.174  0.00  0.00    +0.000 NA
ATOM     23  C   UNL     1       7.908   4.716  18.261  0.00  0.00    +0.000 C 
ATOM     24  C   UNL     1       7.817   6.082  18.917  0.00  0.00    +0.000 C 
ATOM     25  C   UNL     1       7.589   7.012  17.740  0.00  0.00    +0.000 C 
ATOM     26  C   UNL     1       7.016   6.127  16.637  0.00  0.00    +0.000 C 
ENDBRANCH  21  22
ENDBRANCH  20  21
ENDBRANCH  18  20
ENDBRANCH  10  11
BRANCH   5  27
ATOM     27  C   UNL     1      -2.334  13.984  23.511  0.00  0.00    +0.000 A 
ATOM     28  C   UNL     1      -3.681  14.351  23.368  0.00  0.00    +0.000 A 
ATOM     29  C   UNL     1      -4.240  15.348  24.171  0.00  0.00    +0.000 A 
ATOM     30  C   UNL     1      -3.459  15.994  25.128  0.00  0.00    +0.000 A 
ATOM     31  C   UNL     1      -2.126  15.629  25.286  0.00  0.00    +0.000 A 
ATOM     32 CL   UNL     1      -1.150  16.433  26.454  0.00  0.00    +0.000 Cl
ATOM     33  C   UNL     1      -1.566  14.627  24.494  0.00  0.00    +0.000 A 
ENDBRANCH   5  27
TORSDOF 5
ENDMDL
