MODEL 1
REMARK VINA RESULT:      -7.3      0.000      0.000
REMARK  Name = 
REMARK  4 active torsions:
REMARK  status: ('A' for Active; 'I' for Inactive)
REMARK    1  A    between atoms: C_1  and  N_2
REMARK    2  A    between atoms: N_2  and  C_3
REMARK    3  A    between atoms: N_13  and  C_14
REMARK    4  A    between atoms: C_14  and  C_15
REMARK                            x       y       z     vdW  Elec       q    Type
REMARK                         _______ _______ _______ _____ _____    ______ ____
ROOT
ATOM      1  C   UNL     1       2.421   9.175  18.198  0.00  0.00    +0.000 C 
ATOM      2  N   UNL     1       1.825   8.624  19.396  0.00  0.00    +0.000 N 
ATOM      3  C   UNL     1       0.633   9.213  19.963  0.00  0.00    +0.000 C 
ATOM      4  C   UNL     1       2.082   7.299  19.690  0.00  0.00    +0.000 A 
ATOM      5  N   UNL     1       1.478   6.733  20.746  0.00  0.00    +0.000 NA
ATOM      6  C   UNL     1       1.750   5.439  21.002  0.00  0.00    +0.000 A 
ATOM      7  C   UNL     1       2.614   4.674  20.253  0.00  0.00    +0.000 A 
ATOM      8  C   UNL     1       3.250   5.343  19.228  0.00  0.00    +0.000 A 
ATOM      9  N   UNL     1       2.956   6.626  18.924  0.00  0.00    +0.000 NA
ATOM     10  C   UNL     1       4.338   4.653  18.415  0.00  0.00    +0.000 C 
ATOM     11  C   UNL     1       3.866   4.390  16.973  0.00  0.00    +0.000 C 
ATOM     12  C   UNL     1       4.560   5.477  16.160  0.00  0.00    +0.000 C 
ATOM     13  N   UNL     1       5.875   5.671  16.798  0.00  0.00    +0.000 NA
ATOM     14  C   UNL     1       5.569   5.579  18.240  0.00  0.00    +0.000 C 
ATOM     15  C   UNL     1       4.751   3.347  19.117  0.00  0.00    +0.000 C 
ATOM     16  O   UNL     1       3.595   2.595  19.498  0.00  0.00    +0.000 OA
ATOM     17  C   UNL     1       2.895   3.244  20.566  0.00  0.00    +0.000 C 
ENDROOT
BRANCH  13  18
ATOM     18  C   UNL     1       6.870   4.697  16.322  0.00  0.00    +0.000 C 
BRANCH  18  19
ATOM     19  C   UNL     1       6.957   4.586  14.816  0.00  0.00    +0.000 A 
ATOM     20  C   UNL     1       6.222   3.638  14.098  0.00  0.00    +0.000 A 
ATOM     21  C   UNL     1       6.313   3.588  12.708  0.00  0.00    +0.000 A 
ATOM     22  C   UNL     1       7.144   4.498  12.071  0.00  0.00    +0.000 A 
ATOM     23  N   UNL     1       7.893   5.411  12.729  0.00  0.00    +0.000 NA
ATOM     24  C   UNL     1       7.791   5.421  14.078  0.00  0.00    +0.000 A 
ENDBRANCH  18  19
ENDBRANCH  13  18
TORSDOF 2
ENDMDL
MODEL 2
REMARK VINA RESULT:      -6.9      1.953      3.483
REMARK  Name = 
REMARK  4 active torsions:
REMARK  status: ('A' for Active; 'I' for Inactive)
REMARK    1  A    between atoms: C_1  and  N_2
REMARK    2  A    between atoms: N_2  and  C_3
REMARK    3  A    between atoms: N_13  and  C_14
REMARK    4  A    between atoms: C_14  and  C_15
REMARK                            x       y       z     vdW  Elec       q    Type
REMARK                         _______ _______ _______ _____ _____    ______ ____
ROOT
ATOM      1  C   UNL     1       4.170   1.967  20.496  0.00  0.00    +0.000 C 
ATOM      2  N   UNL     1       2.953   2.704  20.758  0.00  0.00    +0.000 N 
ATOM      3  C   UNL     1       2.162   2.427  21.934  0.00  0.00    +0.000 C 
ATOM      4  C   UNL     1       2.825   3.955  20.185  0.00  0.00    +0.000 A 
ATOM      5  N   UNL     1       1.749   4.701  20.474  0.00  0.00    +0.000 NA
ATOM      6  C   UNL     1       1.658   5.916  19.900  0.00  0.00    +0.000 A 
ATOM      7  C   UNL     1       2.596   6.427  19.033  0.00  0.00    +0.000 A 
ATOM      8  C   UNL     1       3.638   5.576  18.730  0.00  0.00    +0.000 A 
ATOM      9  N   UNL     1       3.774   4.373  19.330  0.00  0.00    +0.000 NA
ATOM     10  C   UNL     1       4.665   5.961  17.673  0.00  0.00    +0.000 C 
ATOM     11  C   UNL     1       6.039   6.237  18.314  0.00  0.00    +0.000 C 
ATOM     12  C   UNL     1       6.842   4.978  18.007  0.00  0.00    +0.000 C 
ATOM     13  N   UNL     1       6.393   4.537  16.672  0.00  0.00    +0.000 NA
ATOM     14  C   UNL     1       4.936   4.778  16.708  0.00  0.00    +0.000 C 
ATOM     15  C   UNL     1       4.158   7.183  16.887  0.00  0.00    +0.000 C 
ATOM     16  O   UNL     1       3.680   8.192  17.782  0.00  0.00    +0.000 OA
ATOM     17  C   UNL     1       2.463   7.777  18.413  0.00  0.00    +0.000 C 
ENDROOT
BRANCH  13  18
ATOM     18  C   UNL     1       7.101   5.239  15.591  0.00  0.00    +0.000 C 
BRANCH  18  19
ATOM     19  C   UNL     1       6.858   4.660  14.215  0.00  0.00    +0.000 A 
ATOM     20  C   UNL     1       5.815   3.765  13.960  0.00  0.00    +0.000 A 
ATOM     21  C   UNL     1       5.611   3.276  12.671  0.00  0.00    +0.000 A 
ATOM     22  C   UNL     1       6.466   3.701  11.665  0.00  0.00    +0.000 A 
ATOM     23  N   UNL     1       7.504   4.543  11.874  0.00  0.00    +0.000 NA
ATOM     24  C   UNL     1       7.680   4.986  13.140  0.00  0.00    +0.000 A 
ENDBRANCH  18  19
ENDBRANCH  13  18
TORSDOF 2
ENDMDL
MODEL 3
REMARK VINA RESULT:      -6.7      5.238      8.990
REMARK  Name = 
REMARK  4 active torsions:
REMARK  status: ('A' for Active; 'I' for Inactive)
REMARK    1  A    between atoms: C_1  and  N_2
REMARK    2  A    between atoms: N_2  and  C_3
REMARK    3  A    between atoms: N_13  and  C_14
REMARK    4  A    between atoms: C_14  and  C_15
REMARK                            x       y       z     vdW  Elec       q    Type
REMARK                         _______ _______ _______ _____ _____    ______ ____
ROOT
ATOM      1  C   UNL     1      -2.718  13.284  22.689  0.00  0.00    +0.000 C 
ATOM      2  N   UNL     1      -4.046  13.103  22.143  0.00  0.00    +0.000 N 
ATOM      3  C   UNL     1      -5.173  13.820  22.694  0.00  0.00    +0.000 C 
ATOM      4  C   UNL     1      -4.148  12.662  20.838  0.00  0.00    +0.000 A 
ATOM      5  N   UNL     1      -5.360  12.564  20.272  0.00  0.00    +0.000 NA
ATOM      6  C   UNL     1      -5.423  12.134  18.998  0.00  0.00    +0.000 A 
ATOM      7  C   UNL     1      -4.322  11.782  18.252  0.00  0.00    +0.000 A 
ATOM      8  C   UNL     1      -3.118  11.842  18.922  0.00  0.00    +0.000 A 
ATOM      9  N   UNL     1      -3.027  12.316  20.184  0.00  0.00    +0.000 NA
ATOM     10  C   UNL     1      -1.840  11.342  18.259  0.00  0.00    +0.000 C 
ATOM     11  C   UNL     1      -0.889  12.511  17.941  0.00  0.00    +0.000 C 
ATOM     12  C   UNL     1       0.168  12.428  19.036  0.00  0.00    +0.000 C 
ATOM     13  N   UNL     1       0.351  10.988  19.301  0.00  0.00    +0.000 NA
ATOM     14  C   UNL     1      -1.024  10.453  19.232  0.00  0.00    +0.000 C 
ATOM     15  C   UNL     1      -2.200  10.549  16.989  0.00  0.00    +0.000 C 
ATOM     16  O   UNL     1      -3.148  11.273  16.198  0.00  0.00    +0.000 OA
ATOM     17  C   UNL     1      -4.426  11.306  16.843  0.00  0.00    +0.000 C 
ENDROOT
BRANCH  13  18
ATOM     18  C   UNL     1       1.296  10.368  18.359  0.00  0.00    +0.000 C 
BRANCH  18  19
ATOM     19  C   UNL     1       1.715   8.965  18.736  0.00  0.00    +0.000 A 
ATOM     20  C   UNL     1       2.290   8.088  17.811  0.00  0.00    +0.000 A 
ATOM     21  C   UNL     1       2.685   6.812  18.208  0.00  0.00    +0.000 A 
ATOM     22  C   UNL     1       2.490   6.447  19.532  0.00  0.00    +0.000 A 
ATOM     23  N   UNL     1       1.913   7.253  20.451  0.00  0.00    +0.000 NA
ATOM     24  C   UNL     1       1.528   8.479  20.027  0.00  0.00    +0.000 A 
ENDBRANCH  18  19
ENDBRANCH  13  18
TORSDOF 2
ENDMDL
MODEL 4
REMARK VINA RESULT:      -6.7      5.483      9.350
REMARK  Name = 
REMARK  4 active torsions:
REMARK  status: ('A' for Active; 'I' for Inactive)
REMARK    1  A    between atoms: C_1  and  N_2
REMARK    2  A    between atoms: N_2  and  C_3
REMARK    3  A    between atoms: N_13  and  C_14
REMARK    4  A    between atoms: C_14  and  C_15
REMARK                            x       y       z     vdW  Elec       q    Type
REMARK                         _______ _______ _______ _____ _____    ______ ____
ROOT
ATOM      1  C   UNL     1      -4.516  12.930  21.865  0.00  0.00    +0.000 C 
ATOM      2  N   UNL     1      -5.563  12.537  20.947  0.00  0.00    +0.000 N 
ATOM      3  C   UNL     1      -6.910  13.035  21.107  0.00  0.00    +0.000 C 
ATOM      4  C   UNL     1      -5.186  12.117  19.686  0.00  0.00    +0.000 A 
ATOM      5  N   UNL     1      -6.133  11.825  18.781  0.00  0.00    +0.000 NA
ATOM      6  C   UNL     1      -5.730  11.422  17.562  0.00  0.00    +0.000 A 
ATOM      7  C   UNL     1      -4.410  11.283  17.197  0.00  0.00    +0.000 A 
ATOM      8  C   UNL     1      -3.496  11.533  18.199  0.00  0.00    +0.000 A 
ATOM      9  N   UNL     1      -3.877  11.985  19.414  0.00  0.00    +0.000 NA
ATOM     10  C   UNL     1      -2.012  11.276  17.971  0.00  0.00    +0.000 C 
ATOM     11  C   UNL     1      -1.224  12.599  17.923  0.00  0.00    +0.000 C 
ATOM     12  C   UNL     1      -0.553  12.672  19.290  0.00  0.00    +0.000 C 
ATOM     13  N   UNL     1      -0.216  11.279  19.640  0.00  0.00    +0.000 NA
ATOM     14  C   UNL     1      -1.391  10.517  19.172  0.00  0.00    +0.000 C 
ATOM     15  C   UNL     1      -1.826  10.465  16.676  0.00  0.00    +0.000 C 
ATOM     16  O   UNL     1      -2.598  11.033  15.613  0.00  0.00    +0.000 OA
ATOM     17  C   UNL     1      -3.998  10.831  15.837  0.00  0.00    +0.000 C 
ENDROOT
BRANCH  13  18
ATOM     18  C   UNL     1       1.062  10.854  19.049  0.00  0.00    +0.000 C 
BRANCH  18  19
ATOM     19  C   UNL     1       1.412   9.405  19.306  0.00  0.00    +0.000 A 
ATOM     20  C   UNL     1       1.942   8.581  18.308  0.00  0.00    +0.000 A 
ATOM     21  C   UNL     1       2.274   7.258  18.596  0.00  0.00    +0.000 A 
ATOM     22  C   UNL     1       2.064   6.795  19.887  0.00  0.00    +0.000 A 
ATOM     23  N   UNL     1       1.528   7.550  20.873  0.00  0.00    +0.000 NA
ATOM     24  C   UNL     1       1.204   8.824  20.553  0.00  0.00    +0.000 A 
ENDBRANCH  18  19
ENDBRANCH  13  18
TORSDOF 2
ENDMDL
MODEL 5
REMARK VINA RESULT:      -6.1      5.838     10.431
REMARK  Name = 
REMARK  4 active torsions:
REMARK  status: ('A' for Active; 'I' for Inactive)
REMARK    1  A    between atoms: C_1  and  N_2
REMARK    2  A    between atoms: N_2  and  C_3
REMARK    3  A    between atoms: N_13  and  C_14
REMARK    4  A    between atoms: C_14  and  C_15
REMARK                            x       y       z     vdW  Elec       q    Type
REMARK                         _______ _______ _______ _____ _____    ______ ____
ROOT
ATOM      1  C   UNL     1       2.277   9.747  17.874  0.00  0.00    +0.000 C 
ATOM      2  N   UNL     1       1.710   8.807  18.816  0.00  0.00    +0.000 N 
ATOM      3  C   UNL     1       2.259   7.477  18.951  0.00  0.00    +0.000 C 
ATOM      4  C   UNL     1       1.012   9.319  19.893  0.00  0.00    +0.000 A 
ATOM      5  N   UNL     1       0.546   8.481  20.831  0.00  0.00    +0.000 NA
ATOM      6  C   UNL     1      -0.128   9.014  21.867  0.00  0.00    +0.000 A 
ATOM      7  C   UNL     1      -0.371  10.360  22.012  0.00  0.00    +0.000 A 
ATOM      8  C   UNL     1       0.076  11.151  20.975  0.00  0.00    +0.000 A 
ATOM      9  N   UNL     1       0.796  10.643  19.951  0.00  0.00    +0.000 NA
ATOM     10  C   UNL     1      -0.255  12.638  20.940  0.00  0.00    +0.000 C 
ATOM     11  C   UNL     1       1.007  13.490  21.169  0.00  0.00    +0.000 C 
ATOM     12  C   UNL     1       1.369  13.986  19.774  0.00  0.00    +0.000 C 
ATOM     13  N   UNL     1       0.083  14.207  19.086  0.00  0.00    +0.000 NA
ATOM     14  C   UNL     1      -0.740  13.063  19.530  0.00  0.00    +0.000 C 
ATOM     15  C   UNL     1      -1.338  12.945  21.990  0.00  0.00    +0.000 C 
ATOM     16  O   UNL     1      -1.005  12.344  23.245  0.00  0.00    +0.000 OA
ATOM     17  C   UNL     1      -1.124  10.919  23.172  0.00  0.00    +0.000 C 
ENDROOT
BRANCH  13  18
ATOM     18  C   UNL     1      -0.490  15.527  19.393  0.00  0.00    +0.000 C 
BRANCH  18  19
ATOM     19  C   UNL     1      -0.042  16.628  18.458  0.00  0.00    +0.000 A 
ATOM     20  C   UNL     1       1.300  16.808  18.112  0.00  0.00    +0.000 A 
ATOM     21  C   UNL     1       1.665  17.820  17.226  0.00  0.00    +0.000 A 
ATOM     22  C   UNL     1       0.666  18.631  16.708  0.00  0.00    +0.000 A 
ATOM     23  N   UNL     1      -0.640  18.509  17.038  0.00  0.00    +0.000 NA
ATOM     24  C   UNL     1      -0.955  17.525  17.911  0.00  0.00    +0.000 A 
ENDBRANCH  18  19
ENDBRANCH  13  18
TORSDOF 2
ENDMDL
MODEL 6
REMARK VINA RESULT:      -6.0      4.525      7.925
REMARK  Name = 
REMARK  4 active torsions:
REMARK  status: ('A' for Active; 'I' for Inactive)
REMARK    1  A    between atoms: C_1  and  N_2
REMARK    2  A    between atoms: N_2  and  C_3
REMARK    3  A    between atoms: N_13  and  C_14
REMARK    4  A    between atoms: C_14  and  C_15
REMARK                            x       y       z     vdW  Elec       q    Type
REMARK                         _______ _______ _______ _____ _____    ______ ____
ROOT
ATOM      1  C   UNL     1       2.745  13.331  18.239  0.00  0.00    +0.000 C 
ATOM      2  N   UNL     1       2.239  14.341  19.143  0.00  0.00    +0.000 N 
ATOM      3  C   UNL     1       2.212  15.732  18.752  0.00  0.00    +0.000 C 
ATOM      4  C   UNL     1       1.354  13.939  20.125  0.00  0.00    +0.000 A 
ATOM      5  N   UNL     1       0.800  14.861  20.926  0.00  0.00    +0.000 NA
ATOM      6  C   UNL     1      -0.059  14.433  21.870  0.00  0.00    +0.000 A 
ATOM      7  C   UNL     1      -0.391  13.112  22.064  0.00  0.00    +0.000 A 
ATOM      8  C   UNL     1       0.271  12.217  21.251  0.00  0.00    +0.000 A 
ATOM      9  N   UNL     1       1.100  12.627  20.265  0.00  0.00    +0.000 NA
ATOM     10  C   UNL     1       0.106  10.717  21.459  0.00  0.00    +0.000 C 
ATOM     11  C   UNL     1      -0.675  10.080  20.294  0.00  0.00    +0.000 C 
ATOM     12  C   UNL     1       0.406   9.402  19.461  0.00  0.00    +0.000 C 
ATOM     13  N   UNL     1       1.402   8.908  20.430  0.00  0.00    +0.000 NA
ATOM     14  C   UNL     1       1.480   9.999  21.422  0.00  0.00    +0.000 C 
ATOM     15  C   UNL     1      -0.592  10.462  22.808  0.00  0.00    +0.000 C 
ATOM     16  O   UNL     1      -1.738  11.307  22.947  0.00  0.00    +0.000 OA
ATOM     17  C   UNL     1      -1.345  12.672  23.122  0.00  0.00    +0.000 C 
ENDROOT
BRANCH  13  18
ATOM     18  C   UNL     1       1.029   7.599  20.989  0.00  0.00    +0.000 C 
BRANCH  18  19
ATOM     19  C   UNL     1       1.770   6.431  20.379  0.00  0.00    +0.000 A 
ATOM     20  C   UNL     1       1.518   5.110  20.762  0.00  0.00    +0.000 A 
ATOM     21  C   UNL     1       2.207   4.061  20.156  0.00  0.00    +0.000 A 
ATOM     22  C   UNL     1       3.137   4.368  19.173  0.00  0.00    +0.000 A 
ATOM     23  N   UNL     1       3.431   5.632  18.793  0.00  0.00    +0.000 NA
ATOM     24  C   UNL     1       2.754   6.626  19.413  0.00  0.00    +0.000 A 
ENDBRANCH  18  19
ENDBRANCH  13  18
TORSDOF 2
ENDMDL
MODEL 7
REMARK VINA RESULT:      -5.9      5.305      9.142
REMARK  Name = 
REMARK  4 active torsions:
REMARK  status: ('A' for Active; 'I' for Inactive)
REMARK    1  A    between atoms: C_1  and  N_2
REMARK    2  A    between atoms: N_2  and  C_3
REMARK    3  A    between atoms: N_13  and  C_14
REMARK    4  A    between atoms: C_14  and  C_15
REMARK                            x       y       z     vdW  Elec       q    Type
REMARK                         _______ _______ _______ _____ _____    ______ ____
ROOT
ATOM      1  C   UNL     1      -0.604  14.524  22.983  0.00  0.00    +0.000 C 
ATOM      2  N   UNL     1      -2.049  14.483  23.042  0.00  0.00    +0.000 N 
ATOM      3  C   UNL     1      -2.782  15.454  23.820  0.00  0.00    +0.000 C 
ATOM      4  C   UNL     1      -2.716  13.866  22.002  0.00  0.00    +0.000 A 
ATOM      5  N   UNL     1      -4.058  13.883  21.981  0.00  0.00    +0.000 NA
ATOM      6  C   UNL     1      -4.675  13.274  20.952  0.00  0.00    +0.000 A 
ATOM      7  C   UNL     1      -4.013  12.632  19.931  0.00  0.00    +0.000 A 
ATOM      8  C   UNL     1      -2.640  12.594  20.057  0.00  0.00    +0.000 A 
ATOM      9  N   UNL     1      -1.998  13.239  21.055  0.00  0.00    +0.000 NA
ATOM     10  C   UNL     1      -1.797  11.791  19.075  0.00  0.00    +0.000 C 
ATOM     11  C   UNL     1      -0.960  12.720  18.176  0.00  0.00    +0.000 C 
ATOM     12  C   UNL     1       0.441  12.635  18.771  0.00  0.00    +0.000 C 
ATOM     13  N   UNL     1       0.588  11.245  19.241  0.00  0.00    +0.000 NA
ATOM     14  C   UNL     1      -0.736  10.942  19.822  0.00  0.00    +0.000 C 
ATOM     15  C   UNL     1      -2.715  10.879  18.239  0.00  0.00    +0.000 C 
ATOM     16  O   UNL     1      -3.835  11.617  17.741  0.00  0.00    +0.000 OA
ATOM     17  C   UNL     1      -4.728  11.965  18.806  0.00  0.00    +0.000 C 
ENDROOT
BRANCH  13  18
ATOM     18  C   UNL     1       1.003  10.336  18.162  0.00  0.00    +0.000 C 
BRANCH  18  19
ATOM     19  C   UNL     1       1.543   9.008  18.644  0.00  0.00    +0.000 A 
ATOM     20  C   UNL     1       2.183   8.110  17.784  0.00  0.00    +0.000 A 
ATOM     21  C   UNL     1       2.688   6.908  18.276  0.00  0.00    +0.000 A 
ATOM     22  C   UNL     1       2.536   6.637  19.628  0.00  0.00    +0.000 A 
ATOM     23  N   UNL     1       1.899   7.463  20.488  0.00  0.00    +0.000 NA
ATOM     24  C   UNL     1       1.409   8.614  19.973  0.00  0.00    +0.000 A 
ENDBRANCH  18  19
ENDBRANCH  13  18
TORSDOF 2
ENDMDL
MODEL 8
REMARK VINA RESULT:      -5.8      4.589      8.099
REMARK  Name = 
REMARK  4 active torsions:
REMARK  status: ('A' for Active; 'I' for Inactive)
REMARK    1  A    between atoms: C_1  and  N_2
REMARK    2  A    between atoms: N_2  and  C_3
REMARK    3  A    between atoms: N_13  and  C_14
REMARK    4  A    between atoms: C_14  and  C_15
REMARK                            x       y       z     vdW  Elec       q    Type
REMARK                         _______ _______ _______ _____ _____    ______ ____
ROOT
ATOM      1  C   UNL     1       2.600  13.775  18.429  0.00  0.00    +0.000 C 
ATOM      2  N   UNL     1       2.052  14.721  19.376  0.00  0.00    +0.000 N 
ATOM      3  C   UNL     1       1.983  16.128  19.055  0.00  0.00    +0.000 C 
ATOM      4  C   UNL     1       1.173  14.241  20.327  0.00  0.00    +0.000 A 
ATOM      5  N   UNL     1       0.581  15.103  21.167  0.00  0.00    +0.000 NA
ATOM      6  C   UNL     1      -0.272  14.601  22.080  0.00  0.00    +0.000 A 
ATOM      7  C   UNL     1      -0.561  13.262  22.205  0.00  0.00    +0.000 A 
ATOM      8  C   UNL     1       0.138  12.430  21.355  0.00  0.00    +0.000 A 
ATOM      9  N   UNL     1       0.961  12.916  20.400  0.00  0.00    +0.000 NA
ATOM     10  C   UNL     1       0.021  10.918  21.487  0.00  0.00    +0.000 C 
ATOM     11  C   UNL     1      -0.728  10.314  20.283  0.00  0.00    +0.000 C 
ATOM     12  C   UNL     1       0.383   9.714  19.429  0.00  0.00    +0.000 C 
ATOM     13  N   UNL     1       1.386   9.205  20.383  0.00  0.00    +0.000 NA
ATOM     14  C   UNL     1       1.418  10.248  21.429  0.00  0.00    +0.000 C 
ATOM     15  C   UNL     1      -0.680  10.572  22.813  0.00  0.00    +0.000 C 
ATOM     16  O   UNL     1      -1.856  11.371  22.982  0.00  0.00    +0.000 OA
ATOM     17  C   UNL     1      -1.509  12.738  23.229  0.00  0.00    +0.000 C 
ENDROOT
BRANCH  13  18
ATOM     18  C   UNL     1       1.051   7.859  20.872  0.00  0.00    +0.000 C 
BRANCH  18  19
ATOM     19  C   UNL     1       1.844   6.749  20.220  0.00  0.00    +0.000 A 
ATOM     20  C   UNL     1       2.588   6.954  19.054  0.00  0.00    +0.000 A 
ATOM     21  C   UNL     1       3.324   5.908  18.500  0.00  0.00    +0.000 A 
ATOM     22  C   UNL     1       3.295   4.676  19.136  0.00  0.00    +0.000 A 
ATOM     23  N   UNL     1       2.567   4.427  20.248  0.00  0.00    +0.000 NA
ATOM     24  C   UNL     1       1.853   5.461  20.749  0.00  0.00    +0.000 A 
ENDBRANCH  18  19
ENDBRANCH  13  18
TORSDOF 2
ENDMDL
MODEL 9
REMARK VINA RESULT:      -5.8      8.480     10.142
REMARK  Name = 
REMARK  4 active torsions:
REMARK  status: ('A' for Active; 'I' for Inactive)
REMARK    1  A    between atoms: C_1  and  N_2
REMARK    2  A    between atoms: N_2  and  C_3
REMARK    3  A    between atoms: N_13  and  C_14
REMARK    4  A    between atoms: C_14  and  C_15
REMARK                            x       y       z     vdW  Elec       q    Type
REMARK                         _______ _______ _______ _____ _____    ______ ____
ROOT
ATOM      1  C   UNL     1      -4.785  14.366  21.085  0.00  0.00    +0.000 C 
ATOM      2  N   UNL     1      -5.650  13.418  20.418  0.00  0.00    +0.000 N 
ATOM      3  C   UNL     1      -7.052  13.708  20.225  0.00  0.00    +0.000 C 
ATOM      4  C   UNL     1      -5.064  12.510  19.556  0.00  0.00    +0.000 A 
ATOM      5  N   UNL     1      -5.843  11.672  18.857  0.00  0.00    +0.000 NA
ATOM      6  C   UNL     1      -5.239  10.803  18.025  0.00  0.00    +0.000 A 
ATOM      7  C   UNL     1      -3.876  10.720  17.861  0.00  0.00    +0.000 A 
ATOM      8  C   UNL     1      -3.137  11.563  18.664  0.00  0.00    +0.000 A 
ATOM      9  N   UNL     1      -3.724  12.476  19.469  0.00  0.00    +0.000 NA
ATOM     10  C   UNL     1      -1.617  11.471  18.688  0.00  0.00    +0.000 C 
ATOM     11  C   UNL     1      -0.978  12.715  18.041  0.00  0.00    +0.000 C 
ATOM     12  C   UNL     1      -0.508  13.542  19.232  0.00  0.00    +0.000 C 
ATOM     13  N   UNL     1      -0.071  12.564  20.246  0.00  0.00    +0.000 NA
ATOM     14  C   UNL     1      -1.084  11.494  20.143  0.00  0.00    +0.000 C 
ATOM     15  C   UNL     1      -1.172  10.179  17.978  0.00  0.00    +0.000 C 
ATOM     16  O   UNL     1      -1.851  10.035  16.727  0.00  0.00    +0.000 OA
ATOM     17  C   UNL     1      -3.238   9.743  16.932  0.00  0.00    +0.000 C 
ENDROOT
BRANCH  13  18
ATOM     18  C   UNL     1       1.313  12.119  20.025  0.00  0.00    +0.000 C 
BRANCH  18  19
ATOM     19  C   UNL     1       2.291  13.243  19.768  0.00  0.00    +0.000 A 
ATOM     20  C   UNL     1       2.870  13.451  18.512  0.00  0.00    +0.000 A 
ATOM     21  C   UNL     1       3.748  14.515  18.312  0.00  0.00    +0.000 A 
ATOM     22  C   UNL     1       4.023  15.349  19.386  0.00  0.00    +0.000 A 
ATOM     23  N   UNL     1       3.507  15.167  20.623  0.00  0.00    +0.000 NA
ATOM     24  C   UNL     1       2.672  14.116  20.784  0.00  0.00    +0.000 A 
ENDBRANCH  18  19
ENDBRANCH  13  18
TORSDOF 2
ENDMDL
