MODEL 1
REMARK VINA RESULT:      -7.1      0.000      0.000
REMARK  Name = 
REMARK  1 active torsions:
REMARK  status: ('A' for Active; 'I' for Inactive)
REMARK    1  A    between atoms: N_7  and  C_8
REMARK                            x       y       z     vdW  Elec       q    Type
REMARK                         _______ _______ _______ _____ _____    ______ ____
ROOT
ATOM      1  N   UNL     1       5.741   5.138  14.591  0.00  0.00    +0.000 NA
ATOM      2  C   UNL     1       6.964   5.082  14.985  0.00  0.00    +0.000 C 
ATOM      3  N   UNL     1       8.007   5.299  14.158  0.00  0.00    +0.000 N 
ATOM      4  N   UNL     1       7.254   4.797  16.292  0.00  0.00    +0.000 N 
ATOM      5  C   UNL     1       6.425   4.659  17.392  0.00  0.00    +0.000 C 
ATOM      6  O   UNL     1       6.941   4.494  18.494  0.00  0.00    +0.000 OA
ATOM      7  N   UNL     1       5.083   4.731  17.124  0.00  0.00    +0.000 N 
ATOM      8  H   UNL     1       5.725   5.395  13.599  0.00  0.00    +0.000 HD
ATOM      9  H   UNL     1       7.843   5.278  13.160  0.00  0.00    +0.000 HD
ATOM     10  H   UNL     1       8.924   4.971  14.429  0.00  0.00    +0.000 HD
ATOM     11  H   UNL     1       8.222   4.770  16.564  0.00  0.00    +0.000 HD
ATOM     12  H   UNL     1       4.877   4.752  16.122  0.00  0.00    +0.000 HD
ENDROOT
BRANCH   7  13
ATOM     13  C   UNL     1       4.018   4.745  18.039  0.00  0.00    +0.000 A 
ATOM     14  C   UNL     1       3.568   5.910  18.668  0.00  0.00    +0.000 A 
ATOM     15  C   UNL     1       2.493   5.860  19.557  0.00  0.00    +0.000 A 
ATOM     16 CL   UNL     1       1.941   7.315  20.297  0.00  0.00    +0.000 Cl
ATOM     17  C   UNL     1       1.869   4.647  19.833  0.00  0.00    +0.000 A 
ATOM     18  F   UNL     1       0.841   4.599  20.696  0.00  0.00    +0.000 F 
ATOM     19  C   UNL     1       2.309   3.484  19.205  0.00  0.00    +0.000 A 
ATOM     20 CL   UNL     1       1.554   1.972  19.541  0.00  0.00    +0.000 Cl
ATOM     21  C   UNL     1       3.373   3.531  18.300  0.00  0.00    +0.000 A 
ENDBRANCH   7  13
TORSDOF 1
ENDMDL
MODEL 2
REMARK VINA RESULT:      -7.1      4.383      6.248
REMARK  Name = 
REMARK  1 active torsions:
REMARK  status: ('A' for Active; 'I' for Inactive)
REMARK    1  A    between atoms: N_7  and  C_8
REMARK                            x       y       z     vdW  Elec       q    Type
REMARK                         _______ _______ _______ _____ _____    ______ ____
ROOT
ATOM      1  N   UNL     1       1.668   4.230  20.869  0.00  0.00    +0.000 NA
ATOM      2  C   UNL     1       1.869   3.088  21.425  0.00  0.00    +0.000 C 
ATOM      3  N   UNL     1       0.956   2.494  22.220  0.00  0.00    +0.000 N 
ATOM      4  N   UNL     1       3.046   2.421  21.219  0.00  0.00    +0.000 N 
ATOM      5  C   UNL     1       4.105   2.695  20.371  0.00  0.00    +0.000 C 
ATOM      6  O   UNL     1       5.020   1.881  20.298  0.00  0.00    +0.000 OA
ATOM      7  N   UNL     1       4.008   3.875  19.682  0.00  0.00    +0.000 N 
ATOM      8  H   UNL     1       0.726   4.554  21.111  0.00  0.00    +0.000 HD
ATOM      9  H   UNL     1       0.191   3.051  22.577  0.00  0.00    +0.000 HD
ATOM     10  H   UNL     1       1.257   1.760  22.849  0.00  0.00    +0.000 HD
ATOM     11  H   UNL     1       3.164   1.526  21.665  0.00  0.00    +0.000 HD
ATOM     12  H   UNL     1       3.221   4.453  19.987  0.00  0.00    +0.000 HD
ENDROOT
BRANCH   7  13
ATOM     13  C   UNL     1       4.858   4.360  18.674  0.00  0.00    +0.000 A 
ATOM     14  C   UNL     1       4.711   4.024  17.325  0.00  0.00    +0.000 A 
ATOM     15  C   UNL     1       5.580   4.552  16.368  0.00  0.00    +0.000 A 
ATOM     16 CL   UNL     1       5.358   4.142  14.709  0.00  0.00    +0.000 Cl
ATOM     17  C   UNL     1       6.606   5.408  16.753  0.00  0.00    +0.000 A 
ATOM     18  F   UNL     1       7.448   5.907  15.833  0.00  0.00    +0.000 F 
ATOM     19  C   UNL     1       6.755   5.752  18.094  0.00  0.00    +0.000 A 
ATOM     20 CL   UNL     1       8.026   6.804  18.590  0.00  0.00    +0.000 Cl
ATOM     21  C   UNL     1       5.877   5.241  19.054  0.00  0.00    +0.000 A 
ENDBRANCH   7  13
TORSDOF 1
ENDMDL
MODEL 3
REMARK VINA RESULT:      -7.1      0.215      2.268
REMARK  Name = 
REMARK  1 active torsions:
REMARK  status: ('A' for Active; 'I' for Inactive)
REMARK    1  A    between atoms: N_7  and  C_8
REMARK                            x       y       z     vdW  Elec       q    Type
REMARK                         _______ _______ _______ _____ _____    ______ ____
ROOT
ATOM      1  N   UNL     1       5.824   5.307  14.474  0.00  0.00    +0.000 NA
ATOM      2  C   UNL     1       7.044   5.206  14.868  0.00  0.00    +0.000 C 
ATOM      3  N   UNL     1       8.094   5.458  14.060  0.00  0.00    +0.000 N 
ATOM      4  N   UNL     1       7.322   4.834  16.155  0.00  0.00    +0.000 N 
ATOM      5  C   UNL     1       6.487   4.640  17.241  0.00  0.00    +0.000 C 
ATOM      6  O   UNL     1       6.994   4.396  18.332  0.00  0.00    +0.000 OA
ATOM      7  N   UNL     1       5.147   4.751  16.973  0.00  0.00    +0.000 N 
ATOM      8  H   UNL     1       5.817   5.627  13.501  0.00  0.00    +0.000 HD
ATOM      9  H   UNL     1       7.935   5.503  13.063  0.00  0.00    +0.000 HD
ATOM     10  H   UNL     1       9.005   5.098  14.314  0.00  0.00    +0.000 HD
ATOM     11  H   UNL     1       8.289   4.773  16.429  0.00  0.00    +0.000 HD
ATOM     12  H   UNL     1       4.946   4.839  15.974  0.00  0.00    +0.000 HD
ENDROOT
BRANCH   7  13
ATOM     13  C   UNL     1       4.078   4.725  17.883  0.00  0.00    +0.000 A 
ATOM     14  C   UNL     1       3.432   3.546  18.268  0.00  0.00    +0.000 A 
ATOM     15  C   UNL     1       2.385   3.585  19.190  0.00  0.00    +0.000 A 
ATOM     16 CL   UNL     1       1.625   2.114  19.667  0.00  0.00    +0.000 Cl
ATOM     17  C   UNL     1       1.968   4.800  19.724  0.00  0.00    +0.000 A 
ATOM     18  F   UNL     1       0.953   4.837  20.603  0.00  0.00    +0.000 F 
ATOM     19  C   UNL     1       2.611   5.978  19.350  0.00  0.00    +0.000 A 
ATOM     20 CL   UNL     1       2.103   7.493  19.994  0.00  0.00    +0.000 Cl
ATOM     21  C   UNL     1       3.672   5.943  18.441  0.00  0.00    +0.000 A 
ENDBRANCH   7  13
TORSDOF 1
ENDMDL
MODEL 4
REMARK VINA RESULT:      -7.0      4.388      5.985
REMARK  Name = 
REMARK  1 active torsions:
REMARK  status: ('A' for Active; 'I' for Inactive)
REMARK    1  A    between atoms: N_7  and  C_8
REMARK                            x       y       z     vdW  Elec       q    Type
REMARK                         _______ _______ _______ _____ _____    ______ ____
ROOT
ATOM      1  N   UNL     1       1.826   4.344  21.007  0.00  0.00    +0.000 NA
ATOM      2  C   UNL     1       1.951   3.134  21.427  0.00  0.00    +0.000 C 
ATOM      3  N   UNL     1       1.005   2.518  22.164  0.00  0.00    +0.000 N 
ATOM      4  N   UNL     1       3.076   2.416  21.128  0.00  0.00    +0.000 N 
ATOM      5  C   UNL     1       4.145   2.712  20.300  0.00  0.00    +0.000 C 
ATOM      6  O   UNL     1       5.000   1.850  20.120  0.00  0.00    +0.000 OA
ATOM      7  N   UNL     1       4.126   3.967  19.750  0.00  0.00    +0.000 N 
ATOM      8  H   UNL     1       0.911   4.702  21.299  0.00  0.00    +0.000 HD
ATOM      9  H   UNL     1       0.284   3.082  22.594  0.00  0.00    +0.000 HD
ATOM     10  H   UNL     1       1.259   1.699  22.701  0.00  0.00    +0.000 HD
ATOM     11  H   UNL     1       3.135   1.470  21.468  0.00  0.00    +0.000 HD
ATOM     12  H   UNL     1       3.383   4.559  20.131  0.00  0.00    +0.000 HD
ENDROOT
BRANCH   7  13
ATOM     13  C   UNL     1       4.999   4.503  18.789  0.00  0.00    +0.000 A 
ATOM     14  C   UNL     1       6.019   5.406  19.105  0.00  0.00    +0.000 A 
ATOM     15  C   UNL     1       6.864   5.891  18.106  0.00  0.00    +0.000 A 
ATOM     16 CL   UNL     1       8.131   6.980  18.529  0.00  0.00    +0.000 Cl
ATOM     17  C   UNL     1       6.690   5.489  16.786  0.00  0.00    +0.000 A 
ATOM     18  F   UNL     1       7.498   5.965  15.824  0.00  0.00    +0.000 F 
ATOM     19  C   UNL     1       5.679   4.586  16.465  0.00  0.00    +0.000 A 
ATOM     20 CL   UNL     1       5.443   4.084  14.834  0.00  0.00    +0.000 Cl
ATOM     21  C   UNL     1       4.842   4.082  17.464  0.00  0.00    +0.000 A 
ENDBRANCH   7  13
TORSDOF 1
ENDMDL
MODEL 5
REMARK VINA RESULT:      -6.8      4.366      6.341
REMARK  Name = 
REMARK  1 active torsions:
REMARK  status: ('A' for Active; 'I' for Inactive)
REMARK    1  A    between atoms: N_7  and  C_8
REMARK                            x       y       z     vdW  Elec       q    Type
REMARK                         _______ _______ _______ _____ _____    ______ ____
ROOT
ATOM      1  N   UNL     1       3.234   2.474  21.434  0.00  0.00    +0.000 NA
ATOM      2  C   UNL     1       2.003   2.825  21.313  0.00  0.00    +0.000 C 
ATOM      3  N   UNL     1       1.074   2.561  22.254  0.00  0.00    +0.000 N 
ATOM      4  N   UNL     1       1.587   3.499  20.197  0.00  0.00    +0.000 N 
ATOM      5  C   UNL     1       2.306   4.024  19.137  0.00  0.00    +0.000 C 
ATOM      6  O   UNL     1       1.704   4.678  18.291  0.00  0.00    +0.000 OA
ATOM      7  N   UNL     1       3.649   3.754  19.154  0.00  0.00    +0.000 N 
ATOM      8  H   UNL     1       3.359   2.015  22.342  0.00  0.00    +0.000 HD
ATOM      9  H   UNL     1       1.288   1.875  22.965  0.00  0.00    +0.000 HD
ATOM     10  H   UNL     1       0.095   2.595  22.000  0.00  0.00    +0.000 HD
ATOM     11  H   UNL     1       0.617   3.764  20.142  0.00  0.00    +0.000 HD
ATOM     12  H   UNL     1       3.914   3.091  19.886  0.00  0.00    +0.000 HD
ENDROOT
BRANCH   7  13
ATOM     13  C   UNL     1       4.640   4.245  18.289  0.00  0.00    +0.000 A 
ATOM     14  C   UNL     1       4.645   3.995  16.913  0.00  0.00    +0.000 A 
ATOM     15  C   UNL     1       5.652   4.526  16.104  0.00  0.00    +0.000 A 
ATOM     16 CL   UNL     1       5.617   4.225  14.408  0.00  0.00    +0.000 Cl
ATOM     17  C   UNL     1       6.664   5.298  16.664  0.00  0.00    +0.000 A 
ATOM     18  F   UNL     1       7.638   5.799  15.886  0.00  0.00    +0.000 F 
ATOM     19  C   UNL     1       6.662   5.556  18.032  0.00  0.00    +0.000 A 
ATOM     20 CL   UNL     1       7.913   6.503  18.744  0.00  0.00    +0.000 Cl
ATOM     21  C   UNL     1       5.647   5.043  18.845  0.00  0.00    +0.000 A 
ENDBRANCH   7  13
TORSDOF 1
ENDMDL
MODEL 6
REMARK VINA RESULT:      -6.7      1.536      1.694
REMARK  Name = 
REMARK  1 active torsions:
REMARK  status: ('A' for Active; 'I' for Inactive)
REMARK    1  A    between atoms: N_7  and  C_8
REMARK                            x       y       z     vdW  Elec       q    Type
REMARK                         _______ _______ _______ _____ _____    ______ ____
ROOT
ATOM      1  N   UNL     1       5.750   3.899  13.650  0.00  0.00    +0.000 NA
ATOM      2  C   UNL     1       6.840   4.571  13.525  0.00  0.00    +0.000 C 
ATOM      3  N   UNL     1       7.521   4.647  12.364  0.00  0.00    +0.000 N 
ATOM      4  N   UNL     1       7.354   5.251  14.596  0.00  0.00    +0.000 N 
ATOM      5  C   UNL     1       6.835   5.475  15.860  0.00  0.00    +0.000 C 
ATOM      6  O   UNL     1       7.455   6.208  16.624  0.00  0.00    +0.000 OA
ATOM      7  N   UNL     1       5.648   4.842  16.122  0.00  0.00    +0.000 N 
ATOM      8  H   UNL     1       5.508   3.492  12.741  0.00  0.00    +0.000 HD
ATOM      9  H   UNL     1       7.305   3.982  11.634  0.00  0.00    +0.000 HD
ATOM     10  H   UNL     1       8.491   4.935  12.383  0.00  0.00    +0.000 HD
ATOM     11  H   UNL     1       8.205   5.772  14.459  0.00  0.00    +0.000 HD
ATOM     12  H   UNL     1       5.373   4.186  15.386  0.00  0.00    +0.000 HD
ENDROOT
BRANCH   7  13
ATOM     13  C   UNL     1       4.832   4.972  17.258  0.00  0.00    +0.000 A 
ATOM     14  C   UNL     1       4.094   6.125  17.539  0.00  0.00    +0.000 A 
ATOM     15  C   UNL     1       3.288   6.186  18.677  0.00  0.00    +0.000 A 
ATOM     16 CL   UNL     1       2.367   7.610  18.984  0.00  0.00    +0.000 Cl
ATOM     17  C   UNL     1       3.223   5.102  19.547  0.00  0.00    +0.000 A 
ATOM     18  F   UNL     1       2.455   5.166  20.647  0.00  0.00    +0.000 F 
ATOM     19  C   UNL     1       3.951   3.948  19.270  0.00  0.00    +0.000 A 
ATOM     20 CL   UNL     1       3.890   2.599  20.340  0.00  0.00    +0.000 Cl
ATOM     21  C   UNL     1       4.745   3.874  18.122  0.00  0.00    +0.000 A 
ENDBRANCH   7  13
TORSDOF 1
ENDMDL
MODEL 7
REMARK VINA RESULT:      -6.6      1.401      2.668
REMARK  Name = 
REMARK  1 active torsions:
REMARK  status: ('A' for Active; 'I' for Inactive)
REMARK    1  A    between atoms: N_7  and  C_8
REMARK                            x       y       z     vdW  Elec       q    Type
REMARK                         _______ _______ _______ _____ _____    ______ ____
ROOT
ATOM      1  N   UNL     1       6.668   3.886  15.803  0.00  0.00    +0.000 NA
ATOM      2  C   UNL     1       6.836   5.014  15.209  0.00  0.00    +0.000 C 
ATOM      3  N   UNL     1       7.746   5.193  14.229  0.00  0.00    +0.000 N 
ATOM      4  N   UNL     1       6.075   6.097  15.559  0.00  0.00    +0.000 N 
ATOM      5  C   UNL     1       4.992   6.202  16.414  0.00  0.00    +0.000 C 
ATOM      6  O   UNL     1       4.411   7.280  16.490  0.00  0.00    +0.000 OA
ATOM      7  N   UNL     1       4.674   5.056  17.096  0.00  0.00    +0.000 N 
ATOM      8  H   UNL     1       7.298   3.195  15.385  0.00  0.00    +0.000 HD
ATOM      9  H   UNL     1       8.471   4.498  14.111  0.00  0.00    +0.000 HD
ATOM     10  H   UNL     1       8.038   6.134  13.998  0.00  0.00    +0.000 HD
ATOM     11  H   UNL     1       6.231   6.960  15.067  0.00  0.00    +0.000 HD
ATOM     12  H   UNL     1       5.365   4.312  16.970  0.00  0.00    +0.000 HD
ENDROOT
BRANCH   7  13
ATOM     13  C   UNL     1       3.569   4.826  17.932  0.00  0.00    +0.000 A 
ATOM     14  C   UNL     1       2.806   3.655  17.882  0.00  0.00    +0.000 A 
ATOM     15  C   UNL     1       1.728   3.480  18.752  0.00  0.00    +0.000 A 
ATOM     16 CL   UNL     1       0.822   2.016  18.688  0.00  0.00    +0.000 Cl
ATOM     17  C   UNL     1       1.399   4.475  19.667  0.00  0.00    +0.000 A 
ATOM     18  F   UNL     1       0.355   4.309  20.496  0.00  0.00    +0.000 F 
ATOM     19  C   UNL     1       2.159   5.640  19.726  0.00  0.00    +0.000 A 
ATOM     20 CL   UNL     1       1.761   6.887  20.846  0.00  0.00    +0.000 Cl
ATOM     21  C   UNL     1       3.250   5.814  18.870  0.00  0.00    +0.000 A 
ENDBRANCH   7  13
TORSDOF 1
ENDMDL
MODEL 8
REMARK VINA RESULT:      -6.6      4.243      6.206
REMARK  Name = 
REMARK  1 active torsions:
REMARK  status: ('A' for Active; 'I' for Inactive)
REMARK    1  A    between atoms: N_7  and  C_8
REMARK                            x       y       z     vdW  Elec       q    Type
REMARK                         _______ _______ _______ _____ _____    ______ ____
ROOT
ATOM      1  N   UNL     1       1.331   4.059  19.143  0.00  0.00    +0.000 NA
ATOM      2  C   UNL     1       1.637   3.233  20.080  0.00  0.00    +0.000 C 
ATOM      3  N   UNL     1       0.713   2.661  20.878  0.00  0.00    +0.000 N 
ATOM      4  N   UNL     1       2.946   2.897  20.300  0.00  0.00    +0.000 N 
ATOM      5  C   UNL     1       4.090   3.203  19.584  0.00  0.00    +0.000 C 
ATOM      6  O   UNL     1       5.152   2.697  19.936  0.00  0.00    +0.000 OA
ATOM      7  N   UNL     1       3.906   4.055  18.526  0.00  0.00    +0.000 N 
ATOM      8  H   UNL     1       0.311   4.159  19.111  0.00  0.00    +0.000 HD
ATOM      9  H   UNL     1      -0.217   3.057  20.901  0.00  0.00    +0.000 HD
ATOM     10  H   UNL     1       1.008   2.258  21.758  0.00  0.00    +0.000 HD
ATOM     11  H   UNL     1       3.146   2.242  21.037  0.00  0.00    +0.000 HD
ATOM     12  H   UNL     1       2.962   4.449  18.490  0.00  0.00    +0.000 HD
ENDROOT
BRANCH   7  13
ATOM     13  C   UNL     1       4.845   4.447  17.558  0.00  0.00    +0.000 A 
ATOM     14  C   UNL     1       4.899   3.888  16.278  0.00  0.00    +0.000 A 
ATOM     15  C   UNL     1       5.847   4.333  15.355  0.00  0.00    +0.000 A 
ATOM     16 CL   UNL     1       5.874   3.645  13.775  0.00  0.00    +0.000 Cl
ATOM     17  C   UNL     1       6.753   5.328  15.707  0.00  0.00    +0.000 A 
ATOM     18  F   UNL     1       7.671   5.748  14.821  0.00  0.00    +0.000 F 
ATOM     19  C   UNL     1       6.700   5.894  16.978  0.00  0.00    +0.000 A 
ATOM     20 CL   UNL     1       7.819   7.122  17.435  0.00  0.00    +0.000 Cl
ATOM     21  C   UNL     1       5.741   5.466  17.901  0.00  0.00    +0.000 A 
ENDBRANCH   7  13
TORSDOF 1
ENDMDL
MODEL 9
REMARK VINA RESULT:      -6.6      4.338      6.061
REMARK  Name = 
REMARK  1 active torsions:
REMARK  status: ('A' for Active; 'I' for Inactive)
REMARK    1  A    between atoms: N_7  and  C_8
REMARK                            x       y       z     vdW  Elec       q    Type
REMARK                         _______ _______ _______ _____ _____    ______ ____
ROOT
ATOM      1  N   UNL     1       3.223   2.235  20.970  0.00  0.00    +0.000 NA
ATOM      2  C   UNL     1       2.232   2.968  21.338  0.00  0.00    +0.000 C 
ATOM      3  N   UNL     1       1.403   2.622  22.344  0.00  0.00    +0.000 N 
ATOM      4  N   UNL     1       1.985   4.156  20.706  0.00  0.00    +0.000 N 
ATOM      5  C   UNL     1       2.713   4.840  19.748  0.00  0.00    +0.000 C 
ATOM      6  O   UNL     1       2.323   5.951  19.402  0.00  0.00    +0.000 OA
ATOM      7  N   UNL     1       3.825   4.187  19.285  0.00  0.00    +0.000 N 
ATOM      8  H   UNL     1       3.266   1.410  21.577  0.00  0.00    +0.000 HD
ATOM      9  H   UNL     1       1.412   1.664  22.668  0.00  0.00    +0.000 HD
ATOM     10  H   UNL     1       0.497   3.068  22.407  0.00  0.00    +0.000 HD
ATOM     11  H   UNL     1       1.205   4.707  21.027  0.00  0.00    +0.000 HD
ATOM     12  H   UNL     1       3.891   3.223  19.623  0.00  0.00    +0.000 HD
ENDROOT
BRANCH   7  13
ATOM     13  C   UNL     1       4.811   4.671  18.411  0.00  0.00    +0.000 A 
ATOM     14  C   UNL     1       5.830   5.538  18.817  0.00  0.00    +0.000 A 
ATOM     15  C   UNL     1       6.792   5.972  17.902  0.00  0.00    +0.000 A 
ATOM     16 CL   UNL     1       8.053   7.018  18.436  0.00  0.00    +0.000 Cl
ATOM     17  C   UNL     1       6.735   5.554  16.577  0.00  0.00    +0.000 A 
ATOM     18  F   UNL     1       7.655   5.981  15.695  0.00  0.00    +0.000 F 
ATOM     19  C   UNL     1       5.726   4.686  16.167  0.00  0.00    +0.000 A 
ATOM     20 CL   UNL     1       5.635   4.165  14.528  0.00  0.00    +0.000 Cl
ATOM     21  C   UNL     1       4.772   4.234  17.082  0.00  0.00    +0.000 A 
ENDBRANCH   7  13
TORSDOF 1
ENDMDL
