MODEL 1
REMARK VINA RESULT:      -7.4      0.000      0.000
REMARK  Name = 
REMARK  5 active torsions:
REMARK  status: ('A' for Active; 'I' for Inactive)
REMARK    1  A    between atoms: C_1  and  C_2
REMARK    2  A    between atoms: C_5  and  S_6
REMARK    3  A    between atoms: S_6  and  N_9
REMARK    4  A    between atoms: N_9  and  C_10
REMARK    5  A    between atoms: C_10  and  C_11
REMARK                            x       y       z     vdW  Elec       q    Type
REMARK                         _______ _______ _______ _____ _____    ______ ____
ROOT
ATOM      1  C   UNL     1      -2.578  10.306  17.554  0.00  0.00    +0.000 C 
ATOM      2  O   UNL     1      -3.029   9.543  16.695  0.00  0.00    +0.000 OA
ATOM      3  N   UNL     1      -3.263  11.453  17.973  0.00  0.00    +0.000 N 
ATOM      4  C   UNL     1      -2.710  12.398  18.952  0.00  0.00    +0.000 C 
ATOM      5  C   UNL     1      -2.643  11.851  20.378  0.00  0.00    +0.000 C 
ATOM      6  O   UNL     1      -1.873  12.743  21.176  0.00  0.00    +0.000 OA
ATOM      7  C   UNL     1      -1.498  12.173  22.434  0.00  0.00    +0.000 C 
ATOM      8  C   UNL     1      -2.686  11.967  23.373  0.00  0.00    +0.000 C 
ATOM      9  O   UNL     1      -3.216  13.235  23.769  0.00  0.00    +0.000 OA
ATOM     10  C   UNL     1      -4.463  13.102  24.454  0.00  0.00    +0.000 C 
ATOM     11  C   UNL     1      -5.643  13.354  23.516  0.00  0.00    +0.000 C 
ATOM     12  O   UNL     1      -5.735  12.304  22.547  0.00  0.00    +0.000 OA
ATOM     13  C   UNL     1      -6.893  12.447  21.718  0.00  0.00    +0.000 C 
ATOM     14  C   UNL     1      -6.789  11.491  20.529  0.00  0.00    +0.000 C 
ATOM     15  O   UNL     1      -5.835  12.002  19.588  0.00  0.00    +0.000 OA
ATOM     16  C   UNL     1      -5.720  11.169  18.429  0.00  0.00    +0.000 C 
ATOM     17  C   UNL     1      -4.631  11.721  17.493  0.00  0.00    +0.000 C 
ENDROOT
BRANCH   1  18
ATOM     18  C   UNL     1      -1.293   9.958  18.307  0.00  0.00    +0.000 C 
BRANCH  18  19
ATOM     19  N   UNL     1      -0.036  10.323  17.660  0.00  0.00    +0.000 NA
ATOM     20  H   UNL     1       0.170   9.797  16.811  0.00  0.00    +0.000 HD
BRANCH  19  21
ATOM     21  S   UNL     1       1.282  10.498  18.702  0.00  0.00    +0.000 S 
ATOM     22  O   UNL     1       0.804  11.131  19.919  0.00  0.00    +0.000 OA
ATOM     23  O   UNL     1       2.368  11.061  17.926  0.00  0.00    +0.000 OA
BRANCH  21  28
ATOM     24  C   UNL     1       2.589   4.726  20.085  0.00  0.00    +0.000 C 
ATOM     25  C   UNL     1       2.311   6.163  19.749  0.00  0.00    +0.000 A 
ATOM     26  C   UNL     1       1.729   7.016  20.697  0.00  0.00    +0.000 A 
ATOM     27  C   UNL     1       1.438   8.343  20.374  0.00  0.00    +0.000 A 
ATOM     28  C   UNL     1       1.737   8.826  19.099  0.00  0.00    +0.000 A 
ATOM     29  C   UNL     1       2.325   7.992  18.142  0.00  0.00    +0.000 A 
ATOM     30  C   UNL     1       2.606   6.661  18.471  0.00  0.00    +0.000 A 
ENDBRANCH  21  28
ENDBRANCH  19  21
ENDBRANCH  18  19
ENDBRANCH   1  18
TORSDOF 4
ENDMDL
MODEL 2
REMARK VINA RESULT:      -7.4      1.741      2.349
REMARK  Name = 
REMARK  5 active torsions:
REMARK  status: ('A' for Active; 'I' for Inactive)
REMARK    1  A    between atoms: C_1  and  C_2
REMARK    2  A    between atoms: C_5  and  S_6
REMARK    3  A    between atoms: S_6  and  N_9
REMARK    4  A    between atoms: N_9  and  C_10
REMARK    5  A    between atoms: C_10  and  C_11
REMARK                            x       y       z     vdW  Elec       q    Type
REMARK                         _______ _______ _______ _____ _____    ______ ____
ROOT
ATOM      1  C   UNL     1      -1.408  10.984  19.335  0.00  0.00    +0.000 C 
ATOM      2  O   UNL     1      -1.166  10.102  18.507  0.00  0.00    +0.000 OA
ATOM      3  N   UNL     1      -2.460  11.895  19.176  0.00  0.00    +0.000 N 
ATOM      4  C   UNL     1      -2.723  12.983  20.125  0.00  0.00    +0.000 C 
ATOM      5  C   UNL     1      -3.261  12.515  21.477  0.00  0.00    +0.000 C 
ATOM      6  O   UNL     1      -3.240  13.611  22.385  0.00  0.00    +0.000 OA
ATOM      7  C   UNL     1      -3.433  13.206  23.743  0.00  0.00    +0.000 C 
ATOM      8  C   UNL     1      -4.844  12.689  24.017  0.00  0.00    +0.000 C 
ATOM      9  O   UNL     1      -5.785  13.760  23.891  0.00  0.00    +0.000 OA
ATOM     10  C   UNL     1      -7.135  13.290  23.905  0.00  0.00    +0.000 C 
ATOM     11  C   UNL     1      -7.695  13.166  22.488  0.00  0.00    +0.000 C 
ATOM     12  O   UNL     1      -7.031  12.111  21.786  0.00  0.00    +0.000 OA
ATOM     13  C   UNL     1      -7.604  11.893  20.493  0.00  0.00    +0.000 C 
ATOM     14  C   UNL     1      -6.688  10.978  19.679  0.00  0.00    +0.000 C 
ATOM     15  O   UNL     1      -5.541  11.718  19.240  0.00  0.00    +0.000 OA
ATOM     16  C   UNL     1      -4.660  10.925  18.437  0.00  0.00    +0.000 C 
ATOM     17  C   UNL     1      -3.414  11.744  18.061  0.00  0.00    +0.000 C 
ENDROOT
BRANCH   1  18
ATOM     18  C   UNL     1      -0.644  11.040  20.658  0.00  0.00    +0.000 C 
BRANCH  18  19
ATOM     19  N   UNL     1       0.692  10.451  20.668  0.00  0.00    +0.000 NA
ATOM     20  H   UNL     1       1.157  10.444  19.761  0.00  0.00    +0.000 HD
BRANCH  19  21
ATOM     21  S   UNL     1       0.831   9.003  21.527  0.00  0.00    +0.000 S 
ATOM     22  O   UNL     1      -0.512   8.527  21.815  0.00  0.00    +0.000 OA
ATOM     23  O   UNL     1       1.803   9.221  22.578  0.00  0.00    +0.000 OA
BRANCH  21  28
ATOM     24  C   UNL     1       3.566   5.307  17.552  0.00  0.00    +0.000 C 
ATOM     25  C   UNL     1       2.849   6.202  18.523  0.00  0.00    +0.000 A 
ATOM     26  C   UNL     1       2.607   7.545  18.206  0.00  0.00    +0.000 A 
ATOM     27  C   UNL     1       1.971   8.386  19.122  0.00  0.00    +0.000 A 
ATOM     28  C   UNL     1       1.567   7.883  20.359  0.00  0.00    +0.000 A 
ATOM     29  C   UNL     1       1.794   6.542  20.690  0.00  0.00    +0.000 A 
ATOM     30  C   UNL     1       2.438   5.708  19.770  0.00  0.00    +0.000 A 
ENDBRANCH  21  28
ENDBRANCH  19  21
ENDBRANCH  18  19
ENDBRANCH   1  18
TORSDOF 4
ENDMDL
MODEL 3
REMARK VINA RESULT:      -7.2      1.698      2.220
REMARK  Name = 
REMARK  5 active torsions:
REMARK  status: ('A' for Active; 'I' for Inactive)
REMARK    1  A    between atoms: C_1  and  C_2
REMARK    2  A    between atoms: C_5  and  S_6
REMARK    3  A    between atoms: S_6  and  N_9
REMARK    4  A    between atoms: N_9  and  C_10
REMARK    5  A    between atoms: C_10  and  C_11
REMARK                            x       y       z     vdW  Elec       q    Type
REMARK                         _______ _______ _______ _____ _____    ______ ____
ROOT
ATOM      1  C   UNL     1      -1.023  10.997  18.869  0.00  0.00    +0.000 C 
ATOM      2  O   UNL     1      -0.669  10.098  18.103  0.00  0.00    +0.000 OA
ATOM      3  N   UNL     1      -2.162  11.778  18.637  0.00  0.00    +0.000 N 
ATOM      4  C   UNL     1      -2.560  12.887  19.511  0.00  0.00    +0.000 C 
ATOM      5  C   UNL     1      -3.074  12.448  20.882  0.00  0.00    +0.000 C 
ATOM      6  O   UNL     1      -3.190  13.594  21.719  0.00  0.00    +0.000 OA
ATOM      7  C   UNL     1      -3.367  13.254  23.097  0.00  0.00    +0.000 C 
ATOM      8  C   UNL     1      -4.721  12.606  23.382  0.00  0.00    +0.000 C 
ATOM      9  O   UNL     1      -5.768  13.558  23.175  0.00  0.00    +0.000 OA
ATOM     10  C   UNL     1      -7.060  12.948  23.199  0.00  0.00    +0.000 C 
ATOM     11  C   UNL     1      -7.573  12.677  21.784  0.00  0.00    +0.000 C 
ATOM     12  O   UNL     1      -6.785  11.659  21.160  0.00  0.00    +0.000 OA
ATOM     13  C   UNL     1      -7.303  11.301  19.875  0.00  0.00    +0.000 C 
ATOM     14  C   UNL     1      -6.278  10.442  19.134  0.00  0.00    +0.000 C 
ATOM     15  O   UNL     1      -5.207  11.274  18.666  0.00  0.00    +0.000 OA
ATOM     16  C   UNL     1      -4.229  10.532  17.928  0.00  0.00    +0.000 C 
ATOM     17  C   UNL     1      -3.070  11.456  17.520  0.00  0.00    +0.000 C 
ENDROOT
BRANCH   1  18
ATOM     18  C   UNL     1      -0.297  11.217  20.197  0.00  0.00    +0.000 C 
BRANCH  18  19
ATOM     19  N   UNL     1       0.974  10.520  20.372  0.00  0.00    +0.000 NA
ATOM     20  H   UNL     1       1.516  10.410  19.515  0.00  0.00    +0.000 HD
BRANCH  19  21
ATOM     21  S   UNL     1       0.904   9.131  21.330  0.00  0.00    +0.000 S 
ATOM     22  O   UNL     1      -0.496   8.797  21.527  0.00  0.00    +0.000 OA
ATOM     23  O   UNL     1       1.802   9.337  22.447  0.00  0.00    +0.000 OA
BRANCH  21  28
ATOM     24  C   UNL     1       3.145   4.709  17.814  0.00  0.00    +0.000 C 
ATOM     25  C   UNL     1       2.635   5.815  18.692  0.00  0.00    +0.000 A 
ATOM     26  C   UNL     1       2.168   5.539  19.985  0.00  0.00    +0.000 A 
ATOM     27  C   UNL     1       1.661   6.561  20.789  0.00  0.00    +0.000 A 
ATOM     28  C   UNL     1       1.627   7.870  20.306  0.00  0.00    +0.000 A 
ATOM     29  C   UNL     1       2.096   8.166  19.021  0.00  0.00    +0.000 A 
ATOM     30  C   UNL     1       2.595   7.134  18.218  0.00  0.00    +0.000 A 
ENDBRANCH  21  28
ENDBRANCH  19  21
ENDBRANCH  18  19
ENDBRANCH   1  18
TORSDOF 4
ENDMDL
MODEL 4
REMARK VINA RESULT:      -7.1      0.660      1.141
REMARK  Name = 
REMARK  5 active torsions:
REMARK  status: ('A' for Active; 'I' for Inactive)
REMARK    1  A    between atoms: C_1  and  C_2
REMARK    2  A    between atoms: C_5  and  S_6
REMARK    3  A    between atoms: S_6  and  N_9
REMARK    4  A    between atoms: N_9  and  C_10
REMARK    5  A    between atoms: C_10  and  C_11
REMARK                            x       y       z     vdW  Elec       q    Type
REMARK                         _______ _______ _______ _____ _____    ______ ____
ROOT
ATOM      1  C   UNL     1      -2.305  10.303  17.530  0.00  0.00    +0.000 C 
ATOM      2  O   UNL     1      -2.766   9.582  16.641  0.00  0.00    +0.000 OA
ATOM      3  N   UNL     1      -2.948  11.472  17.957  0.00  0.00    +0.000 N 
ATOM      4  C   UNL     1      -2.381  12.367  18.972  0.00  0.00    +0.000 C 
ATOM      5  C   UNL     1      -2.380  11.786  20.386  0.00  0.00    +0.000 C 
ATOM      6  O   UNL     1      -1.594  12.623  21.227  0.00  0.00    +0.000 OA
ATOM      7  C   UNL     1      -1.282  12.009  22.480  0.00  0.00    +0.000 C 
ATOM      8  C   UNL     1      -2.504  11.838  23.381  0.00  0.00    +0.000 C 
ATOM      9  O   UNL     1      -2.987  13.120  23.792  0.00  0.00    +0.000 OA
ATOM     10  C   UNL     1      -4.258  13.031  24.439  0.00  0.00    +0.000 C 
ATOM     11  C   UNL     1      -5.397  13.359  23.474  0.00  0.00    +0.000 C 
ATOM     12  O   UNL     1      -5.509  12.336  22.479  0.00  0.00    +0.000 OA
ATOM     13  C   UNL     1      -6.635  12.552  21.622  0.00  0.00    +0.000 C 
ATOM     14  C   UNL     1      -6.541  11.619  20.414  0.00  0.00    +0.000 C 
ATOM     15  O   UNL     1      -5.538  12.105  19.511  0.00  0.00    +0.000 OA
ATOM     16  C   UNL     1      -5.428  11.294  18.337  0.00  0.00    +0.000 C 
ATOM     17  C   UNL     1      -4.288  11.814  17.445  0.00  0.00    +0.000 C 
ENDROOT
BRANCH   1  18
ATOM     18  C   UNL     1      -1.061   9.878  18.310  0.00  0.00    +0.000 C 
BRANCH  18  19
ATOM     19  N   UNL     1       0.176   9.741  17.545  0.00  0.00    +0.000 NA
ATOM     20  H   UNL     1       0.198   8.934  16.921  0.00  0.00    +0.000 HD
BRANCH  19  21
ATOM     21  S   UNL     1       1.596   9.971  18.430  0.00  0.00    +0.000 S 
ATOM     22  O   UNL     1       1.223  10.445  19.752  0.00  0.00    +0.000 OA
ATOM     23  O   UNL     1       2.510  10.710  17.586  0.00  0.00    +0.000 OA
BRANCH  21  28
ATOM     24  C   UNL     1       4.094   4.466  19.061  0.00  0.00    +0.000 C 
ATOM     25  C   UNL     1       3.437   5.806  18.891  0.00  0.00    +0.000 A 
ATOM     26  C   UNL     1       3.734   6.607  17.779  0.00  0.00    +0.000 A 
ATOM     27  C   UNL     1       3.151   7.868  17.638  0.00  0.00    +0.000 A 
ATOM     28  C   UNL     1       2.259   8.331  18.607  0.00  0.00    +0.000 A 
ATOM     29  C   UNL     1       1.944   7.541  19.719  0.00  0.00    +0.000 A 
ATOM     30  C   UNL     1       2.539   6.282  19.857  0.00  0.00    +0.000 A 
ENDBRANCH  21  28
ENDBRANCH  19  21
ENDBRANCH  18  19
ENDBRANCH   1  18
TORSDOF 4
ENDMDL
MODEL 5
REMARK VINA RESULT:      -6.9      1.255      1.734
REMARK  Name = 
REMARK  5 active torsions:
REMARK  status: ('A' for Active; 'I' for Inactive)
REMARK    1  A    between atoms: C_1  and  C_2
REMARK    2  A    between atoms: C_5  and  S_6
REMARK    3  A    between atoms: S_6  and  N_9
REMARK    4  A    between atoms: N_9  and  C_10
REMARK    5  A    between atoms: C_10  and  C_11
REMARK                            x       y       z     vdW  Elec       q    Type
REMARK                         _______ _______ _______ _____ _____    ______ ____
ROOT
ATOM      1  C   UNL     1      -2.206  10.887  17.989  0.00  0.00    +0.000 C 
ATOM      2  O   UNL     1      -2.212  10.018  17.113  0.00  0.00    +0.000 OA
ATOM      3  N   UNL     1      -3.291  11.746  18.202  0.00  0.00    +0.000 N 
ATOM      4  C   UNL     1      -3.273  12.820  19.203  0.00  0.00    +0.000 C 
ATOM      5  C   UNL     1      -3.309  12.326  20.649  0.00  0.00    +0.000 C 
ATOM      6  O   UNL     1      -3.038  13.422  21.516  0.00  0.00    +0.000 OA
ATOM      7  C   UNL     1      -2.750  13.008  22.854  0.00  0.00    +0.000 C 
ATOM      8  C   UNL     1      -3.965  12.423  23.572  0.00  0.00    +0.000 C 
ATOM      9  O   UNL     1      -4.942  13.447  23.783  0.00  0.00    +0.000 OA
ATOM     10  C   UNL     1      -6.188  12.912  24.237  0.00  0.00    +0.000 C 
ATOM     11  C   UNL     1      -7.181  12.762  23.085  0.00  0.00    +0.000 C 
ATOM     12  O   UNL     1      -6.740  11.740  22.184  0.00  0.00    +0.000 OA
ATOM     13  C   UNL     1      -7.700  11.494  21.151  0.00  0.00    +0.000 C 
ATOM     14  C   UNL     1      -7.065  10.625  20.065  0.00  0.00    +0.000 C 
ATOM     15  O   UNL     1      -6.164  11.421  19.282  0.00  0.00    +0.000 OA
ATOM     16  C   UNL     1      -5.565  10.671  18.219  0.00  0.00    +0.000 C 
ATOM     17  C   UNL     1      -4.553  11.549  17.464  0.00  0.00    +0.000 C 
ENDROOT
BRANCH   1  18
ATOM     18  C   UNL     1      -1.049  10.981  18.984  0.00  0.00    +0.000 C 
BRANCH  18  19
ATOM     19  N   UNL     1      -0.867   9.846  19.886  0.00  0.00    +0.000 NA
ATOM     20  H   UNL     1      -1.663   9.662  20.496  0.00  0.00    +0.000 HD
BRANCH  19  21
ATOM     21  S   UNL     1       0.631   9.780  20.663  0.00  0.00    +0.000 S 
ATOM     22  O   UNL     1       0.418   9.234  21.993  0.00  0.00    +0.000 OA
ATOM     23  O   UNL     1       1.274  11.062  20.461  0.00  0.00    +0.000 OA
BRANCH  21  28
ATOM     24  C   UNL     1       3.961   5.842  17.447  0.00  0.00    +0.000 C 
ATOM     25  C   UNL     1       3.100   6.790  18.232  0.00  0.00    +0.000 A 
ATOM     26  C   UNL     1       2.724   8.026  17.688  0.00  0.00    +0.000 A 
ATOM     27  C   UNL     1       1.953   8.922  18.431  0.00  0.00    +0.000 A 
ATOM     28  C   UNL     1       1.547   8.582  19.722  0.00  0.00    +0.000 A 
ATOM     29  C   UNL     1       1.906   7.349  20.278  0.00  0.00    +0.000 A 
ATOM     30  C   UNL     1       2.685   6.460  19.531  0.00  0.00    +0.000 A 
ENDBRANCH  21  28
ENDBRANCH  19  21
ENDBRANCH  18  19
ENDBRANCH   1  18
TORSDOF 4
ENDMDL
MODEL 6
REMARK VINA RESULT:      -6.8      3.821      5.817
REMARK  Name = 
REMARK  5 active torsions:
REMARK  status: ('A' for Active; 'I' for Inactive)
REMARK    1  A    between atoms: C_1  and  C_2
REMARK    2  A    between atoms: C_5  and  S_6
REMARK    3  A    between atoms: S_6  and  N_9
REMARK    4  A    between atoms: N_9  and  C_10
REMARK    5  A    between atoms: C_10  and  C_11
REMARK                            x       y       z     vdW  Elec       q    Type
REMARK                         _______ _______ _______ _____ _____    ______ ____
ROOT
ATOM      1  C   UNL     1       1.829   6.622  19.306  0.00  0.00    +0.000 C 
ATOM      2  O   UNL     1       1.765   5.970  18.261  0.00  0.00    +0.000 OA
ATOM      3  N   UNL     1       2.065   8.002  19.317  0.00  0.00    +0.000 N 
ATOM      4  C   UNL     1       2.200   8.777  20.557  0.00  0.00    +0.000 C 
ATOM      5  C   UNL     1       0.894   8.940  21.335  0.00  0.00    +0.000 C 
ATOM      6  O   UNL     1       1.189   9.482  22.618  0.00  0.00    +0.000 OA
ATOM      7  C   UNL     1       0.086   9.386  23.524  0.00  0.00    +0.000 C 
ATOM      8  C   UNL     1      -1.082  10.293  23.138  0.00  0.00    +0.000 C 
ATOM      9  O   UNL     1      -0.700  11.664  23.282  0.00  0.00    +0.000 OA
ATOM     10  C   UNL     1      -1.667  12.551  22.716  0.00  0.00    +0.000 C 
ATOM     11  C   UNL     1      -1.255  13.001  21.314  0.00  0.00    +0.000 C 
ATOM     12  O   UNL     1      -1.312  11.896  20.405  0.00  0.00    +0.000 OA
ATOM     13  C   UNL     1      -1.039  12.302  19.060  0.00  0.00    +0.000 C 
ATOM     14  C   UNL     1      -0.820  11.064  18.190  0.00  0.00    +0.000 C 
ATOM     15  O   UNL     1       0.472  10.505  18.470  0.00  0.00    +0.000 OA
ATOM     16  C   UNL     1       0.754   9.362  17.657  0.00  0.00    +0.000 C 
ATOM     17  C   UNL     1       2.113   8.760  18.053  0.00  0.00    +0.000 C 
ENDROOT
BRANCH   1  18
ATOM     18  C   UNL     1       1.515   5.967  20.652  0.00  0.00    +0.000 C 
BRANCH  18  19
ATOM     19  N   UNL     1       2.537   5.081  21.202  0.00  0.00    +0.000 NA
ATOM     20  H   UNL     1       3.463   5.501  21.281  0.00  0.00    +0.000 HD
BRANCH  19  21
ATOM     21  S   UNL     1       2.541   3.513  20.573  0.00  0.00    +0.000 S 
ATOM     22  O   UNL     1       1.205   3.229  20.079  0.00  0.00    +0.000 OA
ATOM     23  O   UNL     1       3.189   2.662  21.550  0.00  0.00    +0.000 OA
BRANCH  21  28
ATOM     24  C   UNL     1       6.083   4.013  15.659  0.00  0.00    +0.000 C 
ATOM     25  C   UNL     1       5.236   3.857  16.890  0.00  0.00    +0.000 A 
ATOM     26  C   UNL     1       4.037   3.133  16.841  0.00  0.00    +0.000 A 
ATOM     27  C   UNL     1       3.232   3.017  17.976  0.00  0.00    +0.000 A 
ATOM     28  C   UNL     1       3.629   3.619  19.171  0.00  0.00    +0.000 A 
ATOM     29  C   UNL     1       4.828   4.338  19.241  0.00  0.00    +0.000 A 
ATOM     30  C   UNL     1       5.625   4.456  18.097  0.00  0.00    +0.000 A 
ENDBRANCH  21  28
ENDBRANCH  19  21
ENDBRANCH  18  19
ENDBRANCH   1  18
TORSDOF 4
ENDMDL
MODEL 7
REMARK VINA RESULT:      -6.7      1.073      1.339
REMARK  Name = 
REMARK  5 active torsions:
REMARK  status: ('A' for Active; 'I' for Inactive)
REMARK    1  A    between atoms: C_1  and  C_2
REMARK    2  A    between atoms: C_5  and  S_6
REMARK    3  A    between atoms: S_6  and  N_9
REMARK    4  A    between atoms: N_9  and  C_10
REMARK    5  A    between atoms: C_10  and  C_11
REMARK                            x       y       z     vdW  Elec       q    Type
REMARK                         _______ _______ _______ _____ _____    ______ ____
ROOT
ATOM      1  C   UNL     1      -1.997  10.430  17.393  0.00  0.00    +0.000 C 
ATOM      2  O   UNL     1      -2.327   9.634  16.510  0.00  0.00    +0.000 OA
ATOM      3  N   UNL     1      -2.807  11.507  17.774  0.00  0.00    +0.000 N 
ATOM      4  C   UNL     1      -2.399  12.493  18.782  0.00  0.00    +0.000 C 
ATOM      5  C   UNL     1      -2.362  11.946  20.209  0.00  0.00    +0.000 C 
ATOM      6  O   UNL     1      -1.724  12.901  21.051  0.00  0.00    +0.000 OA
ATOM      7  C   UNL     1      -1.370  12.361  22.327  0.00  0.00    +0.000 C 
ATOM      8  C   UNL     1      -2.584  12.042  23.197  0.00  0.00    +0.000 C 
ATOM      9  O   UNL     1      -3.251  13.253  23.564  0.00  0.00    +0.000 OA
ATOM     10  C   UNL     1      -4.517  13.003  24.177  0.00  0.00    +0.000 C 
ATOM     11  C   UNL     1      -5.660  13.151  23.173  0.00  0.00    +0.000 C 
ATOM     12  O   UNL     1      -5.600  12.103  22.200  0.00  0.00    +0.000 OA
ATOM     13  C   UNL     1      -6.718  12.144  21.308  0.00  0.00    +0.000 C 
ATOM     14  C   UNL     1      -6.460  11.208  20.126  0.00  0.00    +0.000 C 
ATOM     15  O   UNL     1      -5.505  11.809  19.240  0.00  0.00    +0.000 OA
ATOM     16  C   UNL     1      -5.249  10.997  18.090  0.00  0.00    +0.000 C 
ATOM     17  C   UNL     1      -4.165  11.651  17.217  0.00  0.00    +0.000 C 
ENDROOT
BRANCH   1  18
ATOM     18  C   UNL     1      -0.730  10.197  18.217  0.00  0.00    +0.000 C 
BRANCH  18  19
ATOM     19  N   UNL     1       0.328   9.414  17.585  0.00  0.00    +0.000 NA
ATOM     20  H   UNL     1       0.049   8.471  17.312  0.00  0.00    +0.000 HD
BRANCH  19  21
ATOM     21  S   UNL     1       1.834   9.497  18.345  0.00  0.00    +0.000 S 
ATOM     22  O   UNL     1       1.604   9.646  19.772  0.00  0.00    +0.000 OA
ATOM     23  O   UNL     1       2.637  10.444  17.600  0.00  0.00    +0.000 OA
BRANCH  21  28
ATOM     24  C   UNL     1       4.047   3.941  17.260  0.00  0.00    +0.000 C 
ATOM     25  C   UNL     1       3.530   5.319  17.562  0.00  0.00    +0.000 A 
ATOM     26  C   UNL     1       2.331   5.489  18.266  0.00  0.00    +0.000 A 
ATOM     27  C   UNL     1       1.832   6.769  18.518  0.00  0.00    +0.000 A 
ATOM     28  C   UNL     1       2.539   7.888  18.072  0.00  0.00    +0.000 A 
ATOM     29  C   UNL     1       3.743   7.736  17.374  0.00  0.00    +0.000 A 
ATOM     30  C   UNL     1       4.231   6.450  17.120  0.00  0.00    +0.000 A 
ENDBRANCH  21  28
ENDBRANCH  19  21
ENDBRANCH  18  19
ENDBRANCH   1  18
TORSDOF 4
ENDMDL
MODEL 8
REMARK VINA RESULT:      -6.7      3.275      5.279
REMARK  Name = 
REMARK  5 active torsions:
REMARK  status: ('A' for Active; 'I' for Inactive)
REMARK    1  A    between atoms: C_1  and  C_2
REMARK    2  A    between atoms: C_5  and  S_6
REMARK    3  A    between atoms: S_6  and  N_9
REMARK    4  A    between atoms: N_9  and  C_10
REMARK    5  A    between atoms: C_10  and  C_11
REMARK                            x       y       z     vdW  Elec       q    Type
REMARK                         _______ _______ _______ _____ _____    ______ ____
ROOT
ATOM      1  C   UNL     1       2.010  14.007  19.195  0.00  0.00    +0.000 C 
ATOM      2  O   UNL     1       2.369  14.488  18.117  0.00  0.00    +0.000 OA
ATOM      3  N   UNL     1       1.553  14.800  20.256  0.00  0.00    +0.000 N 
ATOM      4  C   UNL     1       1.177  14.244  21.562  0.00  0.00    +0.000 C 
ATOM      5  C   UNL     1      -0.114  13.427  21.544  0.00  0.00    +0.000 C 
ATOM      6  O   UNL     1      -0.242  12.742  22.785  0.00  0.00    +0.000 OA
ATOM      7  C   UNL     1      -1.246  11.723  22.752  0.00  0.00    +0.000 C 
ATOM      8  C   UNL     1      -2.662  12.285  22.636  0.00  0.00    +0.000 C 
ATOM      9  O   UNL     1      -3.001  12.996  23.831  0.00  0.00    +0.000 OA
ATOM     10  C   UNL     1      -4.214  13.736  23.687  0.00  0.00    +0.000 C 
ATOM     11  C   UNL     1      -3.936  15.205  23.372  0.00  0.00    +0.000 C 
ATOM     12  O   UNL     1      -3.367  15.330  22.064  0.00  0.00    +0.000 OA
ATOM     13  C   UNL     1      -3.193  16.700  21.690  0.00  0.00    +0.000 C 
ATOM     14  C   UNL     1      -2.323  16.779  20.435  0.00  0.00    +0.000 C 
ATOM     15  O   UNL     1      -0.956  16.517  20.784  0.00  0.00    +0.000 OA
ATOM     16  C   UNL     1      -0.082  16.614  19.655  0.00  0.00    +0.000 C 
ATOM     17  C   UNL     1       1.353  16.249  20.070  0.00  0.00    +0.000 C 
ENDROOT
BRANCH   1  18
ATOM     18  C   UNL     1       1.921  12.492  19.381  0.00  0.00    +0.000 C 
BRANCH  18  19
ATOM     19  N   UNL     1       1.341  11.731  18.278  0.00  0.00    +0.000 NA
ATOM     20  H   UNL     1       0.809  12.291  17.612  0.00  0.00    +0.000 HD
BRANCH  19  21
ATOM     21  S   UNL     1       0.589  10.285  18.722  0.00  0.00    +0.000 S 
ATOM     22  O   UNL     1       0.674  10.166  20.167  0.00  0.00    +0.000 OA
ATOM     23  O   UNL     1       1.094   9.253  17.841  0.00  0.00    +0.000 OA
BRANCH  21  28
ATOM     24  C   UNL     1      -5.188  11.412  17.206  0.00  0.00    +0.000 C 
ATOM     25  C   UNL     1      -3.774  11.094  17.600  0.00  0.00    +0.000 A 
ATOM     26  C   UNL     1      -3.180  11.738  18.694  0.00  0.00    +0.000 A 
ATOM     27  C   UNL     1      -1.854  11.468  19.040  0.00  0.00    +0.000 A 
ATOM     28  C   UNL     1      -1.118  10.545  18.297  0.00  0.00    +0.000 A 
ATOM     29  C   UNL     1      -1.698   9.886  17.206  0.00  0.00    +0.000 A 
ATOM     30  C   UNL     1      -3.024  10.167  16.861  0.00  0.00    +0.000 A 
ENDBRANCH  21  28
ENDBRANCH  19  21
ENDBRANCH  18  19
ENDBRANCH   1  18
TORSDOF 4
ENDMDL
MODEL 9
REMARK VINA RESULT:      -6.7      2.445      3.406
REMARK  Name = 
REMARK  5 active torsions:
REMARK  status: ('A' for Active; 'I' for Inactive)
REMARK    1  A    between atoms: C_1  and  C_2
REMARK    2  A    between atoms: C_5  and  S_6
REMARK    3  A    between atoms: S_6  and  N_9
REMARK    4  A    between atoms: N_9  and  C_10
REMARK    5  A    between atoms: C_10  and  C_11
REMARK                            x       y       z     vdW  Elec       q    Type
REMARK                         _______ _______ _______ _____ _____    ______ ____
ROOT
ATOM      1  C   UNL     1      -2.648  10.415  17.583  0.00  0.00    +0.000 C 
ATOM      2  O   UNL     1      -3.001   9.590  16.737  0.00  0.00    +0.000 OA
ATOM      3  N   UNL     1      -3.459  11.489  17.969  0.00  0.00    +0.000 N 
ATOM      4  C   UNL     1      -3.026  12.509  18.932  0.00  0.00    +0.000 C 
ATOM      5  C   UNL     1      -2.919  12.003  20.370  0.00  0.00    +0.000 C 
ATOM      6  O   UNL     1      -2.262  12.991  21.157  0.00  0.00    +0.000 OA
ATOM      7  C   UNL     1      -1.844  12.492  22.431  0.00  0.00    +0.000 C 
ATOM      8  C   UNL     1      -3.014  12.177  23.362  0.00  0.00    +0.000 C 
ATOM      9  O   UNL     1      -3.685  13.387  23.724  0.00  0.00    +0.000 OA
ATOM     10  C   UNL     1      -4.919  13.134  24.398  0.00  0.00    +0.000 C 
ATOM     11  C   UNL     1      -6.107  13.235  23.441  0.00  0.00    +0.000 C 
ATOM     12  O   UNL     1      -6.070  12.162  22.495  0.00  0.00    +0.000 OA
ATOM     13  C   UNL     1      -7.226  12.160  21.651  0.00  0.00    +0.000 C 
ATOM     14  C   UNL     1      -7.003  11.196  20.485  0.00  0.00    +0.000 C 
ATOM     15  O   UNL     1      -6.098  11.788  19.542  0.00  0.00    +0.000 OA
ATOM     16  C   UNL     1      -5.877  10.948  18.404  0.00  0.00    +0.000 C 
ATOM     17  C   UNL     1      -4.842  11.596  17.468  0.00  0.00    +0.000 C 
ENDROOT
BRANCH   1  18
ATOM     18  C   UNL     1      -1.343  10.225  18.358  0.00  0.00    +0.000 C 
BRANCH  18  19
ATOM     19  N   UNL     1      -0.129  10.059  17.564  0.00  0.00    +0.000 NA
ATOM     20  H   UNL     1      -0.210   9.383  16.805  0.00  0.00    +0.000 HD
BRANCH  19  21
ATOM     21  S   UNL     1       1.299   9.929  18.456  0.00  0.00    +0.000 S 
ATOM     22  O   UNL     1       2.341   9.453  17.562  0.00  0.00    +0.000 OA
ATOM     23  O   UNL     1       0.974   9.234  19.684  0.00  0.00    +0.000 OA
BRANCH  21  28
ATOM     24  C   UNL     1       2.743  15.585  20.151  0.00  0.00    +0.000 C 
ATOM     25  C   UNL     1       2.355  14.205  19.703  0.00  0.00    +0.000 A 
ATOM     26  C   UNL     1       1.528  13.404  20.503  0.00  0.00    +0.000 A 
ATOM     27  C   UNL     1       1.195  12.108  20.103  0.00  0.00    +0.000 A 
ATOM     28  C   UNL     1       1.683  11.609  18.894  0.00  0.00    +0.000 A 
ATOM     29  C   UNL     1       2.503  12.398  18.079  0.00  0.00    +0.000 A 
ATOM     30  C   UNL     1       2.838  13.692  18.490  0.00  0.00    +0.000 A 
ENDBRANCH  21  28
ENDBRANCH  19  21
ENDBRANCH  18  19
ENDBRANCH   1  18
TORSDOF 4
ENDMDL
