MODEL 1
REMARK VINA RESULT:      -7.3      0.000      0.000
REMARK  Name = 
REMARK  1 active torsions:
REMARK  status: ('A' for Active; 'I' for Inactive)
REMARK    1  A    between atoms: C_4  and  C_5
REMARK                            x       y       z     vdW  Elec       q    Type
REMARK                         _______ _______ _______ _____ _____    ______ ____
ROOT
ATOM      1  C   UNL     1       7.468   7.672  18.186  0.00  0.00    +0.000 C 
ATOM      2  C   UNL     1       6.977   7.094  16.848  0.00  0.00    +0.000 C 
ATOM      3  C   UNL     1       6.843   5.562  17.111  0.00  0.00    +0.000 C 
ATOM      4  C   UNL     1       5.486   4.969  16.882  0.00  0.00    +0.000 A 
ATOM      5  N   UNL     1       5.271   3.638  16.573  0.00  0.00    +0.000 N 
ATOM      6  C   UNL     1       4.070   3.234  17.143  0.00  0.00    +0.000 A 
ATOM      7  C   UNL     1       3.613   1.976  17.552  0.00  0.00    +0.000 A 
ATOM      8  C   UNL     1       2.337   1.913  18.130  0.00  0.00    +0.000 A 
ATOM      9  C   UNL     1       1.525   3.043  18.222  0.00  0.00    +0.000 A 
ATOM     10  C   UNL     1       2.025   4.298  17.879  0.00  0.00    +0.000 A 
ATOM     11  C   UNL     1       3.348   4.393  17.415  0.00  0.00    +0.000 A 
ATOM     12  C   UNL     1       4.368   5.358  17.596  0.00  0.00    +0.000 A 
ATOM     13  C   UNL     1       4.626   6.126  18.852  0.00  0.00    +0.000 C 
ATOM     14  C   UNL     1       5.952   5.505  19.449  0.00  0.00    +0.000 C 
ATOM     15  N   UNL     1       7.168   5.376  18.559  0.00  0.00    +0.000 NA
ATOM     16  C   UNL     1       8.129   6.455  18.826  0.00  0.00    +0.000 C 
ATOM     17  H   UNL     1       6.008   2.997  16.319  0.00  0.00    +0.000 HD
ENDROOT
BRANCH   1  21
ATOM     18  C   UNL     1       9.290  11.569  18.423  0.00  0.00    +0.000 A 
ATOM     19  C   UNL     1       8.312  11.290  17.471  0.00  0.00    +0.000 A 
ATOM     20  C   UNL     1       7.789  10.004  17.365  0.00  0.00    +0.000 A 
ATOM     21  C   UNL     1       8.225   8.974  18.214  0.00  0.00    +0.000 A 
ATOM     22  C   UNL     1       9.215   9.267  19.165  0.00  0.00    +0.000 A 
ATOM     23  C   UNL     1       9.742  10.556  19.265  0.00  0.00    +0.000 A 
ENDBRANCH   1  21
TORSDOF 1
ENDMDL
MODEL 2
REMARK VINA RESULT:      -7.1      3.510      5.212
REMARK  Name = 
REMARK  1 active torsions:
REMARK  status: ('A' for Active; 'I' for Inactive)
REMARK    1  A    between atoms: C_4  and  C_5
REMARK                            x       y       z     vdW  Elec       q    Type
REMARK                         _______ _______ _______ _____ _____    ______ ____
ROOT
ATOM      1  C   UNL     1       5.602   4.483  15.364  0.00  0.00    +0.000 C 
ATOM      2  C   UNL     1       5.879   3.264  16.261  0.00  0.00    +0.000 C 
ATOM      3  C   UNL     1       5.652   3.789  17.712  0.00  0.00    +0.000 C 
ATOM      4  C   UNL     1       4.615   3.068  18.520  0.00  0.00    +0.000 A 
ATOM      5  N   UNL     1       4.609   3.026  19.902  0.00  0.00    +0.000 N 
ATOM      6  C   UNL     1       3.292   3.004  20.345  0.00  0.00    +0.000 A 
ATOM      7  C   UNL     1       2.709   3.423  21.545  0.00  0.00    +0.000 A 
ATOM      8  C   UNL     1       1.319   3.287  21.666  0.00  0.00    +0.000 A 
ATOM      9  C   UNL     1       0.558   2.687  20.663  0.00  0.00    +0.000 A 
ATOM     10  C   UNL     1       1.144   2.345  19.445  0.00  0.00    +0.000 A 
ATOM     11  C   UNL     1       2.516   2.591  19.265  0.00  0.00    +0.000 A 
ATOM     12  C   UNL     1       3.283   3.014  18.153  0.00  0.00    +0.000 A 
ATOM     13  C   UNL     1       2.846   4.003  17.120  0.00  0.00    +0.000 C 
ATOM     14  C   UNL     1       3.685   5.309  17.421  0.00  0.00    +0.000 C 
ATOM     15  N   UNL     1       5.188   5.202  17.558  0.00  0.00    +0.000 NA
ATOM     16  C   UNL     1       5.857   5.640  16.325  0.00  0.00    +0.000 C 
ATOM     17  H   UNL     1       5.381   3.336  20.474  0.00  0.00    +0.000 HD
ENDROOT
BRANCH   1  21
ATOM     18  C   UNL     1       7.700   4.550  11.602  0.00  0.00    +0.000 A 
ATOM     19  C   UNL     1       8.043   5.424  12.630  0.00  0.00    +0.000 A 
ATOM     20  C   UNL     1       7.305   5.435  13.811  0.00  0.00    +0.000 A 
ATOM     21  C   UNL     1       6.217   4.566  13.991  0.00  0.00    +0.000 A 
ATOM     22  C   UNL     1       5.878   3.695  12.945  0.00  0.00    +0.000 A 
ATOM     23  C   UNL     1       6.616   3.690  11.758  0.00  0.00    +0.000 A 
ENDBRANCH   1  21
TORSDOF 1
ENDMDL
MODEL 3
REMARK VINA RESULT:      -6.9      3.487      5.124
REMARK  Name = 
REMARK  1 active torsions:
REMARK  status: ('A' for Active; 'I' for Inactive)
REMARK    1  A    between atoms: C_4  and  C_5
REMARK                            x       y       z     vdW  Elec       q    Type
REMARK                         _______ _______ _______ _____ _____    ______ ____
ROOT
ATOM      1  C   UNL     1       5.870   4.562  15.411  0.00  0.00    +0.000 C 
ATOM      2  C   UNL     1       6.304   3.597  16.528  0.00  0.00    +0.000 C 
ATOM      3  C   UNL     1       5.812   4.277  17.844  0.00  0.00    +0.000 C 
ATOM      4  C   UNL     1       4.874   3.474  18.692  0.00  0.00    +0.000 A 
ATOM      5  N   UNL     1       4.727   3.650  20.055  0.00  0.00    +0.000 N 
ATOM      6  C   UNL     1       3.406   3.394  20.401  0.00  0.00    +0.000 A 
ATOM      7  C   UNL     1       2.619   3.851  21.464  0.00  0.00    +0.000 A 
ATOM      8  C   UNL     1       1.286   3.418  21.509  0.00  0.00    +0.000 A 
ATOM      9  C   UNL     1       0.787   2.507  20.578  0.00  0.00    +0.000 A 
ATOM     10  C   UNL     1       1.562   2.122  19.485  0.00  0.00    +0.000 A 
ATOM     11  C   UNL     1       2.859   2.648  19.360  0.00  0.00    +0.000 A 
ATOM     12  C   UNL     1       3.633   3.055  18.248  0.00  0.00    +0.000 A 
ATOM     13  C   UNL     1       3.108   3.741  17.027  0.00  0.00    +0.000 C 
ATOM     14  C   UNL     1       3.607   5.236  17.148  0.00  0.00    +0.000 C 
ATOM     15  N   UNL     1       5.074   5.503  17.407  0.00  0.00    +0.000 NA
ATOM     16  C   UNL     1       5.763   5.883  16.167  0.00  0.00    +0.000 C 
ATOM     17  H   UNL     1       5.347   4.217  20.615  0.00  0.00    +0.000 HD
ENDROOT
BRANCH   1  21
ATOM     18  C   UNL     1       7.602   4.721  11.470  0.00  0.00    +0.000 A 
ATOM     19  C   UNL     1       6.651   3.758  11.797  0.00  0.00    +0.000 A 
ATOM     20  C   UNL     1       6.158   3.679  13.097  0.00  0.00    +0.000 A 
ATOM     21  C   UNL     1       6.598   4.567  14.092  0.00  0.00    +0.000 A 
ATOM     22  C   UNL     1       7.561   5.528  13.751  0.00  0.00    +0.000 A 
ATOM     23  C   UNL     1       8.059   5.601  12.448  0.00  0.00    +0.000 A 
ENDBRANCH   1  21
TORSDOF 1
ENDMDL
MODEL 4
REMARK VINA RESULT:      -6.9      3.268      5.665
REMARK  Name = 
REMARK  1 active torsions:
REMARK  status: ('A' for Active; 'I' for Inactive)
REMARK    1  A    between atoms: C_4  and  C_5
REMARK                            x       y       z     vdW  Elec       q    Type
REMARK                         _______ _______ _______ _____ _____    ______ ____
ROOT
ATOM      1  C   UNL     1       5.610   4.963  15.612  0.00  0.00    +0.000 C 
ATOM      2  C   UNL     1       4.195   4.450  15.933  0.00  0.00    +0.000 C 
ATOM      3  C   UNL     1       4.095   4.530  17.488  0.00  0.00    +0.000 C 
ATOM      4  C   UNL     1       2.983   5.372  18.035  0.00  0.00    +0.000 A 
ATOM      5  N   UNL     1       2.422   5.188  19.285  0.00  0.00    +0.000 N 
ATOM      6  C   UNL     1       2.047   6.424  19.796  0.00  0.00    +0.000 A 
ATOM      7  C   UNL     1       1.894   6.879  21.110  0.00  0.00    +0.000 A 
ATOM      8  C   UNL     1       1.525   8.220  21.288  0.00  0.00    +0.000 A 
ATOM      9  C   UNL     1       1.245   9.046  20.199  0.00  0.00    +0.000 A 
ATOM     10  C   UNL     1       1.476   8.598  18.899  0.00  0.00    +0.000 A 
ATOM     11  C   UNL     1       1.965   7.295  18.712  0.00  0.00    +0.000 A 
ATOM     12  C   UNL     1       2.881   6.730  17.793  0.00  0.00    +0.000 A 
ATOM     13  C   UNL     1       4.114   7.397  17.271  0.00  0.00    +0.000 C 
ATOM     14  C   UNL     1       5.315   6.658  17.985  0.00  0.00    +0.000 C 
ATOM     15  N   UNL     1       5.380   5.147  17.939  0.00  0.00    +0.000 NA
ATOM     16  C   UNL     1       6.341   4.696  16.924  0.00  0.00    +0.000 C 
ATOM     17  H   UNL     1       2.601   4.380  19.865  0.00  0.00    +0.000 HD
ENDROOT
BRANCH   1  21
ATOM     18  C   UNL     1       7.246   3.966  11.754  0.00  0.00    +0.000 A 
ATOM     19  C   UNL     1       6.114   3.318  12.242  0.00  0.00    +0.000 A 
ATOM     20  C   UNL     1       5.645   3.605  13.522  0.00  0.00    +0.000 A 
ATOM     21  C   UNL     1       6.291   4.551  14.333  0.00  0.00    +0.000 A 
ATOM     22  C   UNL     1       7.434   5.191  13.832  0.00  0.00    +0.000 A 
ATOM     23  C   UNL     1       7.907   4.897  12.551  0.00  0.00    +0.000 A 
ENDBRANCH   1  21
TORSDOF 1
ENDMDL
MODEL 5
REMARK VINA RESULT:      -6.5      7.242     10.066
REMARK  Name = 
REMARK  1 active torsions:
REMARK  status: ('A' for Active; 'I' for Inactive)
REMARK    1  A    between atoms: C_4  and  C_5
REMARK                            x       y       z     vdW  Elec       q    Type
REMARK                         _______ _______ _______ _____ _____    ______ ____
ROOT
ATOM      1  C   UNL     1       1.269   9.468  19.621  0.00  0.00    +0.000 C 
ATOM      2  C   UNL     1       0.883  10.218  18.335  0.00  0.00    +0.000 C 
ATOM      3  C   UNL     1      -0.156  11.284  18.803  0.00  0.00    +0.000 C 
ATOM      4  C   UNL     1       0.186  12.713  18.511  0.00  0.00    +0.000 A 
ATOM      5  N   UNL     1      -0.754  13.717  18.378  0.00  0.00    +0.000 N 
ATOM      6  C   UNL     1      -0.216  14.903  18.862  0.00  0.00    +0.000 A 
ATOM      7  C   UNL     1      -0.819  16.047  19.396  0.00  0.00    +0.000 A 
ATOM      8  C   UNL     1       0.028  17.078  19.828  0.00  0.00    +0.000 A 
ATOM      9  C   UNL     1       1.411  17.000  19.660  0.00  0.00    +0.000 A 
ATOM     10  C   UNL     1       1.998  15.823  19.197  0.00  0.00    +0.000 A 
ATOM     11  C   UNL     1       1.167  14.736  18.877  0.00  0.00    +0.000 A 
ATOM     12  C   UNL     1       1.307  13.336  19.028  0.00  0.00    +0.000 A 
ATOM     13  C   UNL     1       1.967  12.647  20.180  0.00  0.00    +0.000 C 
ATOM     14  C   UNL     1       0.785  12.004  21.008  0.00  0.00    +0.000 C 
ATOM     15  N   UNL     1      -0.231  11.142  20.290  0.00  0.00    +0.000 NA
ATOM     16  C   UNL     1       0.050   9.716  20.503  0.00  0.00    +0.000 C 
ATOM     17  H   UNL     1      -1.747  13.548  18.307  0.00  0.00    +0.000 HD
ENDROOT
BRANCH   1  21
ATOM     18  C   UNL     1       2.401   5.318  19.383  0.00  0.00    +0.000 A 
ATOM     19  C   UNL     1       1.837   5.842  20.543  0.00  0.00    +0.000 A 
ATOM     20  C   UNL     1       1.546   7.202  20.624  0.00  0.00    +0.000 A 
ATOM     21  C   UNL     1       1.803   8.060  19.543  0.00  0.00    +0.000 A 
ATOM     22  C   UNL     1       2.376   7.520  18.382  0.00  0.00    +0.000 A 
ATOM     23  C   UNL     1       2.674   6.158  18.307  0.00  0.00    +0.000 A 
ENDBRANCH   1  21
TORSDOF 1
ENDMDL
MODEL 6
REMARK VINA RESULT:      -6.3      7.289      9.666
REMARK  Name = 
REMARK  1 active torsions:
REMARK  status: ('A' for Active; 'I' for Inactive)
REMARK    1  A    between atoms: C_4  and  C_5
REMARK                            x       y       z     vdW  Elec       q    Type
REMARK                         _______ _______ _______ _____ _____    ______ ____
ROOT
ATOM      1  C   UNL     1       1.501   9.206  19.271  0.00  0.00    +0.000 C 
ATOM      2  C   UNL     1       0.584   9.886  18.240  0.00  0.00    +0.000 C 
ATOM      3  C   UNL     1      -0.382  10.763  19.096  0.00  0.00    +0.000 C 
ATOM      4  C   UNL     1      -0.386  12.230  18.791  0.00  0.00    +0.000 A 
ATOM      5  N   UNL     1      -1.458  13.065  19.045  0.00  0.00    +0.000 N 
ATOM      6  C   UNL     1      -0.976  14.322  19.388  0.00  0.00    +0.000 A 
ATOM      7  C   UNL     1      -1.528  15.348  20.163  0.00  0.00    +0.000 A 
ATOM      8  C   UNL     1      -0.754  16.504  20.343  0.00  0.00    +0.000 A 
ATOM      9  C   UNL     1       0.481  16.657  19.712  0.00  0.00    +0.000 A 
ATOM     10  C   UNL     1       1.046  15.595  19.007  0.00  0.00    +0.000 A 
ATOM     11  C   UNL     1       0.335  14.387  18.923  0.00  0.00    +0.000 A 
ATOM     12  C   UNL     1       0.734  13.029  18.934  0.00  0.00    +0.000 A 
ATOM     13  C   UNL     1       1.848  12.455  19.749  0.00  0.00    +0.000 C 
ATOM     14  C   UNL     1       1.138  11.622  20.889  0.00  0.00    +0.000 C 
ATOM     15  N   UNL     1       0.084  10.606  20.508  0.00  0.00    +0.000 NA
ATOM     16  C   UNL     1       0.638   9.245  20.528  0.00  0.00    +0.000 C 
ATOM     17  H   UNL     1      -2.376  12.733  19.305  0.00  0.00    +0.000 HD
ENDROOT
BRANCH   1  21
ATOM     18  C   UNL     1       3.817   5.685  18.376  0.00  0.00    +0.000 A 
ATOM     19  C   UNL     1       3.791   6.768  17.501  0.00  0.00    +0.000 A 
ATOM     20  C   UNL     1       2.979   7.866  17.775  0.00  0.00    +0.000 A 
ATOM     21  C   UNL     1       2.186   7.907  18.933  0.00  0.00    +0.000 A 
ATOM     22  C   UNL     1       2.217   6.806  19.803  0.00  0.00    +0.000 A 
ATOM     23  C   UNL     1       3.027   5.704  19.522  0.00  0.00    +0.000 A 
ENDBRANCH   1  21
TORSDOF 1
ENDMDL
MODEL 7
REMARK VINA RESULT:      -6.2      8.100      9.748
REMARK  Name = 
REMARK  1 active torsions:
REMARK  status: ('A' for Active; 'I' for Inactive)
REMARK    1  A    between atoms: C_4  and  C_5
REMARK                            x       y       z     vdW  Elec       q    Type
REMARK                         _______ _______ _______ _____ _____    ______ ____
ROOT
ATOM      1  C   UNL     1       8.603  12.891  21.492  0.00  0.00    +0.000 C 
ATOM      2  C   UNL     1       9.268  12.774  22.874  0.00  0.00    +0.000 C 
ATOM      3  C   UNL     1       8.388  13.662  23.807  0.00  0.00    +0.000 C 
ATOM      4  C   UNL     1       7.781  12.976  24.993  0.00  0.00    +0.000 A 
ATOM      5  N   UNL     1       7.417  13.629  26.156  0.00  0.00    +0.000 N 
ATOM      6  C   UNL     1       6.294  13.007  26.687  0.00  0.00    +0.000 A 
ATOM      7  C   UNL     1       5.271  13.485  27.513  0.00  0.00    +0.000 A 
ATOM      8  C   UNL     1       4.246  12.589  27.850  0.00  0.00    +0.000 A 
ATOM      9  C   UNL     1       4.286  11.255  27.445  0.00  0.00    +0.000 A 
ATOM     10  C   UNL     1       5.272  10.817  26.562  0.00  0.00    +0.000 A 
ATOM     11  C   UNL     1       6.235  11.737  26.116  0.00  0.00    +0.000 A 
ATOM     12  C   UNL     1       6.890  11.925  24.876  0.00  0.00    +0.000 A 
ATOM     13  C   UNL     1       6.272  11.736  23.528  0.00  0.00    +0.000 C 
ATOM     14  C   UNL     1       6.081  13.197  22.954  0.00  0.00    +0.000 C 
ATOM     15  N   UNL     1       7.261  14.145  22.950  0.00  0.00    +0.000 NA
ATOM     16  C   UNL     1       7.866  14.220  21.614  0.00  0.00    +0.000 C 
ATOM     17  H   UNL     1       7.673  14.583  26.365  0.00  0.00    +0.000 HD
ENDROOT
BRANCH   1  21
ATOM     18  C   UNL     1      10.830  11.797  17.971  0.00  0.00    +0.000 A 
ATOM     19  C   UNL     1      11.322  11.523  19.244  0.00  0.00    +0.000 A 
ATOM     20  C   UNL     1      10.620  11.950  20.369  0.00  0.00    +0.000 A 
ATOM     21  C   UNL     1       9.409  12.649  20.242  0.00  0.00    +0.000 A 
ATOM     22  C   UNL     1       8.928  12.923  18.953  0.00  0.00    +0.000 A 
ATOM     23  C   UNL     1       9.637  12.500  17.827  0.00  0.00    +0.000 A 
ENDBRANCH   1  21
TORSDOF 1
ENDMDL
MODEL 8
REMARK VINA RESULT:      -6.2     10.826     12.474
REMARK  Name = 
REMARK  1 active torsions:
REMARK  status: ('A' for Active; 'I' for Inactive)
REMARK    1  A    between atoms: C_4  and  C_5
REMARK                            x       y       z     vdW  Elec       q    Type
REMARK                         _______ _______ _______ _____ _____    ______ ____
ROOT
ATOM      1  C   UNL     1      -0.829  11.289  21.332  0.00  0.00    +0.000 C 
ATOM      2  C   UNL     1      -1.048  11.429  22.849  0.00  0.00    +0.000 C 
ATOM      3  C   UNL     1      -1.290  12.955  23.069  0.00  0.00    +0.000 C 
ATOM      4  C   UNL     1      -2.588  13.331  23.714  0.00  0.00    +0.000 A 
ATOM      5  N   UNL     1      -2.782  14.499  24.429  0.00  0.00    +0.000 N 
ATOM      6  C   UNL     1      -4.090  14.929  24.240  0.00  0.00    +0.000 A 
ATOM      7  C   UNL     1      -4.668  16.201  24.306  0.00  0.00    +0.000 A 
ATOM      8  C   UNL     1      -6.038  16.299  24.027  0.00  0.00    +0.000 A 
ATOM      9  C   UNL     1      -6.810  15.166  23.772  0.00  0.00    +0.000 A 
ATOM     10  C   UNL     1      -6.204  13.918  23.636  0.00  0.00    +0.000 A 
ATOM     11  C   UNL     1      -4.811  13.825  23.790  0.00  0.00    +0.000 A 
ATOM     12  C   UNL     1      -3.817  13.048  23.147  0.00  0.00    +0.000 A 
ATOM     13  C   UNL     1      -3.802  12.682  21.698  0.00  0.00    +0.000 C 
ATOM     14  C   UNL     1      -2.656  13.565  21.062  0.00  0.00    +0.000 C 
ATOM     15  N   UNL     1      -1.284  13.560  21.701  0.00  0.00    +0.000 NA
ATOM     16  C   UNL     1      -0.363  12.692  20.956  0.00  0.00    +0.000 C 
ATOM     17  H   UNL     1      -2.032  15.113  24.710  0.00  0.00    +0.000 HD
ENDROOT
BRANCH   1  21
ATOM     18  C   UNL     1       1.734   8.199  19.772  0.00  0.00    +0.000 A 
ATOM     19  C   UNL     1       1.348   9.277  18.981  0.00  0.00    +0.000 A 
ATOM     20  C   UNL     1       0.460  10.226  19.482  0.00  0.00    +0.000 A 
ATOM     21  C   UNL     1      -0.049  10.122  20.786  0.00  0.00    +0.000 A 
ATOM     22  C   UNL     1       0.344   9.027  21.571  0.00  0.00    +0.000 A 
ATOM     23  C   UNL     1       1.229   8.073  21.063  0.00  0.00    +0.000 A 
ENDBRANCH   1  21
TORSDOF 1
ENDMDL
MODEL 9
REMARK VINA RESULT:      -6.2      8.350     10.451
REMARK  Name = 
REMARK  1 active torsions:
REMARK  status: ('A' for Active; 'I' for Inactive)
REMARK    1  A    between atoms: C_4  and  C_5
REMARK                            x       y       z     vdW  Elec       q    Type
REMARK                         _______ _______ _______ _____ _____    ______ ____
ROOT
ATOM      1  C   UNL     1       5.436  15.983  19.027  0.00  0.00    +0.000 C 
ATOM      2  C   UNL     1       5.728  14.806  18.080  0.00  0.00    +0.000 C 
ATOM      3  C   UNL     1       7.215  15.008  17.655  0.00  0.00    +0.000 C 
ATOM      4  C   UNL     1       8.149  13.876  17.962  0.00  0.00    +0.000 A 
ATOM      5  N   UNL     1       9.317  13.632  17.263  0.00  0.00    +0.000 N 
ATOM      6  C   UNL     1      10.263  13.113  18.138  0.00  0.00    +0.000 A 
ATOM      7  C   UNL     1      11.662  13.136  18.114  0.00  0.00    +0.000 A 
ATOM      8  C   UNL     1      12.333  12.534  19.188  0.00  0.00    +0.000 A 
ATOM      9  C   UNL     1      11.637  11.870  20.198  0.00  0.00    +0.000 A 
ATOM     10  C   UNL     1      10.245  11.922  20.245  0.00  0.00    +0.000 A 
ATOM     11  C   UNL     1       9.563  12.630  19.241  0.00  0.00    +0.000 A 
ATOM     12  C   UNL     1       8.402  13.440  19.249  0.00  0.00    +0.000 A 
ATOM     13  C   UNL     1       7.998  14.370  20.348  0.00  0.00    +0.000 C 
ATOM     14  C   UNL     1       8.264  15.821  19.778  0.00  0.00    +0.000 C 
ATOM     15  N   UNL     1       7.693  16.196  18.428  0.00  0.00    +0.000 NA
ATOM     16  C   UNL     1       6.477  17.005  18.581  0.00  0.00    +0.000 C 
ATOM     17  H   UNL     1       9.557  14.092  16.397  0.00  0.00    +0.000 HD
ENDROOT
BRANCH   1  21
ATOM     18  C   UNL     1       1.267  16.979  19.466  0.00  0.00    +0.000 A 
ATOM     19  C   UNL     1       1.835  16.808  18.206  0.00  0.00    +0.000 A 
ATOM     20  C   UNL     1       3.200  16.559  18.085  0.00  0.00    +0.000 A 
ATOM     21  C   UNL     1       4.021  16.464  19.220  0.00  0.00    +0.000 A 
ATOM     22  C   UNL     1       3.437  16.643  20.483  0.00  0.00    +0.000 A 
ATOM     23  C   UNL     1       2.069  16.901  20.602  0.00  0.00    +0.000 A 
ENDBRANCH   1  21
TORSDOF 1
ENDMDL
