MODEL 1
REMARK VINA RESULT:      -7.4      0.000      0.000
REMARK  Name = 
REMARK  14 active torsions:
REMARK  status: ('A' for Active; 'I' for Inactive)
REMARK    1  A    between atoms: C_1  and  C_2
REMARK    2  A    between atoms: C_2  and  C_4
REMARK    3  A    between atoms: C_5  and  C_6
REMARK    4  A    between atoms: C_12  and  C_13
REMARK    5  A    between atoms: N_19  and  C_20
REMARK    6  A    between atoms: C_20  and  C_21
REMARK    7  A    between atoms: C_21  and  C_22
REMARK    8  A    between atoms: C_22  and  C_23
REMARK    9  A    between atoms: C_23  and  C_24
REMARK   10  A    between atoms: C_24  and  C_25
REMARK   11  A    between atoms: C_25  and  N_26
REMARK   12  A    between atoms: C_27  and  O_29
REMARK   13  A    between atoms: O_29  and  C_30
REMARK   14  A    between atoms: C_36  and  C_37
REMARK                            x       y       z     vdW  Elec       q    Type
REMARK                         _______ _______ _______ _____ _____    ______ ____
ROOT
ATOM      1  C   UNL     1      -5.116  11.932  18.740  0.00  0.00    +0.000 A 
ATOM      2  C   UNL     1      -4.782  12.655  19.939  0.00  0.00    +0.000 A 
ATOM      3  C   UNL     1      -3.373  12.732  20.020  0.00  0.00    +0.000 A 
ATOM      4  N   UNL     1      -2.872  12.077  18.862  0.00  0.00    +0.000 N 
ATOM      5  C   UNL     1      -3.928  11.610  18.090  0.00  0.00    +0.000 A 
ATOM      6  C   UNL     1      -3.850  10.913  16.769  0.00  0.00    +0.000 C 
ENDROOT
BRANCH   2   7
ATOM      7  C   UNL     1      -5.730  13.185  20.943  0.00  0.00    +0.000 A 
ATOM      8  C   UNL     1      -5.994  14.567  21.018  0.00  0.00    +0.000 A 
ATOM      9  C   UNL     1      -6.901  15.083  21.952  0.00  0.00    +0.000 A 
ATOM     10  C   UNL     1      -7.600  14.229  22.792  0.00  0.00    +0.000 A 
ATOM     11  C   UNL     1      -7.359  12.859  22.734  0.00  0.00    +0.000 A 
ATOM     12  C   UNL     1      -6.400  12.351  21.848  0.00  0.00    +0.000 A 
ENDBRANCH   2   7
BRANCH   3  13
ATOM     13  C   UNL     1      -2.505  13.334  21.096  0.00  0.00    +0.000 A 
ATOM     14  C   UNL     1      -1.854  14.567  20.902  0.00  0.00    +0.000 A 
ATOM     15  C   UNL     1      -0.952  15.086  21.849  0.00  0.00    +0.000 A 
ATOM     16  C   UNL     1      -0.758  14.436  23.060  0.00  0.00    +0.000 A 
ATOM     17  C   UNL     1      -1.418  13.241  23.301  0.00  0.00    +0.000 A 
ATOM     18  C   UNL     1      -2.235  12.676  22.309  0.00  0.00    +0.000 A 
ENDBRANCH   3  13
BRANCH   1  20
ATOM     19  C   UNL     1      -7.235  12.644  17.436  0.00  0.00    +0.000 C 
ATOM     20  C   UNL     1      -6.462  11.610  18.216  0.00  0.00    +0.000 C 
ATOM     21  O   UNL     1      -6.980  10.508  18.412  0.00  0.00    +0.000 OA
ENDBRANCH   1  20
BRANCH   4  22
ATOM     22  C   UNL     1      -1.433  11.927  18.604  0.00  0.00    +0.000 C 
BRANCH  22  23
ATOM     23  C   UNL     1      -0.693  10.643  18.984  0.00  0.00    +0.000 C 
BRANCH  23  24
ATOM     24  C   UNL     1       0.608  10.842  19.758  0.00  0.00    +0.000 C 
BRANCH  24  25
ATOM     25  C   UNL     1       0.409  10.705  21.259  0.00  0.00    +0.000 C 
BRANCH  25  26
ATOM     26  C   UNL     1       1.262   9.590  21.849  0.00  0.00    +0.000 C 
BRANCH  26  27
ATOM     27  C   UNL     1       0.737   8.244  21.352  0.00  0.00    +0.000 C 
BRANCH  27  28
ATOM     28  N   UNL     1       1.791   7.303  21.086  0.00  0.00    +0.000 N 
ATOM     29  C   UNL     1       2.277   7.098  19.825  0.00  0.00    +0.000 C 
ATOM     30  O   UNL     1       1.969   7.751  18.838  0.00  0.00    +0.000 OA
ATOM     31  H   UNL     1       2.017   6.589  21.763  0.00  0.00    +0.000 HD
BRANCH  29  32
ATOM     32  O   UNL     1       3.099   5.989  19.846  0.00  0.00    +0.000 OA
BRANCH  32  33
ATOM     33  C   UNL     1       2.479   4.780  19.513  0.00  0.00    +0.000 A 
ATOM     34  C   UNL     1       1.763   4.125  20.517  0.00  0.00    +0.000 A 
ATOM     35  C   UNL     1       1.012   2.997  20.187  0.00  0.00    +0.000 A 
ATOM     36  C   UNL     1       0.977   2.534  18.870  0.00  0.00    +0.000 A 
ATOM     37  C   UNL     1       1.693   3.195  17.872  0.00  0.00    +0.000 A 
ATOM     38  C   UNL     1       2.437   4.326  18.192  0.00  0.00    +0.000 A 
ENDBRANCH  32  33
ENDBRANCH  29  32
ENDBRANCH  27  28
ENDBRANCH  26  27
ENDBRANCH  25  26
ENDBRANCH  24  25
ENDBRANCH  23  24
ENDBRANCH  22  23
ENDBRANCH   4  22
TORSDOF 12
ENDMDL
MODEL 2
REMARK VINA RESULT:      -7.3      1.325      3.982
REMARK  Name = 
REMARK  14 active torsions:
REMARK  status: ('A' for Active; 'I' for Inactive)
REMARK    1  A    between atoms: C_1  and  C_2
REMARK    2  A    between atoms: C_2  and  C_4
REMARK    3  A    between atoms: C_5  and  C_6
REMARK    4  A    between atoms: C_12  and  C_13
REMARK    5  A    between atoms: N_19  and  C_20
REMARK    6  A    between atoms: C_20  and  C_21
REMARK    7  A    between atoms: C_21  and  C_22
REMARK    8  A    between atoms: C_22  and  C_23
REMARK    9  A    between atoms: C_23  and  C_24
REMARK   10  A    between atoms: C_24  and  C_25
REMARK   11  A    between atoms: C_25  and  N_26
REMARK   12  A    between atoms: C_27  and  O_29
REMARK   13  A    between atoms: O_29  and  C_30
REMARK   14  A    between atoms: C_36  and  C_37
REMARK                            x       y       z     vdW  Elec       q    Type
REMARK                         _______ _______ _______ _____ _____    ______ ____
ROOT
ATOM      1  C   UNL     1      -4.755  11.723  19.340  0.00  0.00    +0.000 A 
ATOM      2  C   UNL     1      -3.530  11.565  18.601  0.00  0.00    +0.000 A 
ATOM      3  C   UNL     1      -2.478  12.083  19.390  0.00  0.00    +0.000 A 
ATOM      4  N   UNL     1      -3.072  12.527  20.603  0.00  0.00    +0.000 N 
ATOM      5  C   UNL     1      -4.441  12.294  20.570  0.00  0.00    +0.000 A 
ATOM      6  C   UNL     1      -5.433  12.560  21.657  0.00  0.00    +0.000 C 
ENDROOT
BRANCH   2   7
ATOM      7  C   UNL     1      -3.388  11.007  17.238  0.00  0.00    +0.000 A 
ATOM      8  C   UNL     1      -4.046  11.609  16.148  0.00  0.00    +0.000 A 
ATOM      9  C   UNL     1      -3.909  11.103  14.849  0.00  0.00    +0.000 A 
ATOM     10  C   UNL     1      -3.075  10.022  14.605  0.00  0.00    +0.000 A 
ATOM     11  C   UNL     1      -2.411   9.414  15.666  0.00  0.00    +0.000 A 
ATOM     12  C   UNL     1      -2.604   9.876  16.974  0.00  0.00    +0.000 A 
ENDBRANCH   2   7
BRANCH   3  13
ATOM     13  C   UNL     1      -1.009  12.209  19.068  0.00  0.00    +0.000 A 
ATOM     14  C   UNL     1      -0.419  13.466  18.843  0.00  0.00    +0.000 A 
ATOM     15  C   UNL     1       0.921  13.593  18.432  0.00  0.00    +0.000 A 
ATOM     16  C   UNL     1       1.732  12.470  18.336  0.00  0.00    +0.000 A 
ATOM     17  C   UNL     1       1.192  11.220  18.594  0.00  0.00    +0.000 A 
ATOM     18  C   UNL     1      -0.171  11.092  18.902  0.00  0.00    +0.000 A 
ENDBRANCH   3  13
BRANCH   1  20
ATOM     19  C   UNL     1      -6.940  12.212  18.042  0.00  0.00    +0.000 C 
ATOM     20  C   UNL     1      -6.120  11.318  18.938  0.00  0.00    +0.000 C 
ATOM     21  O   UNL     1      -6.616  10.259  19.329  0.00  0.00    +0.000 OA
ENDBRANCH   1  20
BRANCH   4  22
ATOM     22  C   UNL     1      -2.291  13.159  21.675  0.00  0.00    +0.000 C 
BRANCH  22  23
ATOM     23  C   UNL     1      -1.670  12.324  22.796  0.00  0.00    +0.000 C 
BRANCH  23  24
ATOM     24  C   UNL     1      -0.511  11.422  22.377  0.00  0.00    +0.000 C 
BRANCH  24  25
ATOM     25  C   UNL     1      -0.442  10.153  23.211  0.00  0.00    +0.000 C 
BRANCH  25  26
ATOM     26  C   UNL     1      -0.472   8.899  22.346  0.00  0.00    +0.000 C 
BRANCH  26  27
ATOM     27  C   UNL     1       0.558   9.041  21.227  0.00  0.00    +0.000 C 
BRANCH  27  28
ATOM     28  N   UNL     1       1.523   7.976  21.226  0.00  0.00    +0.000 N 
ATOM     29  C   UNL     1       2.080   7.505  20.070  0.00  0.00    +0.000 C 
ATOM     30  O   UNL     1       1.919   7.996  18.961  0.00  0.00    +0.000 OA
ATOM     31  H   UNL     1       1.620   7.378  22.033  0.00  0.00    +0.000 HD
BRANCH  29  32
ATOM     32  O   UNL     1       2.776   6.348  20.357  0.00  0.00    +0.000 OA
BRANCH  32  33
ATOM     33  C   UNL     1       2.234   5.176  19.818  0.00  0.00    +0.000 A 
ATOM     34  C   UNL     1       1.373   4.433  20.627  0.00  0.00    +0.000 A 
ATOM     35  C   UNL     1       0.701   3.342  20.078  0.00  0.00    +0.000 A 
ATOM     36  C   UNL     1       0.887   3.002  18.736  0.00  0.00    +0.000 A 
ATOM     37  C   UNL     1       1.747   3.751  17.933  0.00  0.00    +0.000 A 
ATOM     38  C   UNL     1       2.414   4.846  18.472  0.00  0.00    +0.000 A 
ENDBRANCH  32  33
ENDBRANCH  29  32
ENDBRANCH  27  28
ENDBRANCH  26  27
ENDBRANCH  25  26
ENDBRANCH  24  25
ENDBRANCH  23  24
ENDBRANCH  22  23
ENDBRANCH   4  22
TORSDOF 12
ENDMDL
MODEL 3
REMARK VINA RESULT:      -7.1      1.106      1.779
REMARK  Name = 
REMARK  14 active torsions:
REMARK  status: ('A' for Active; 'I' for Inactive)
REMARK    1  A    between atoms: C_1  and  C_2
REMARK    2  A    between atoms: C_2  and  C_4
REMARK    3  A    between atoms: C_5  and  C_6
REMARK    4  A    between atoms: C_12  and  C_13
REMARK    5  A    between atoms: N_19  and  C_20
REMARK    6  A    between atoms: C_20  and  C_21
REMARK    7  A    between atoms: C_21  and  C_22
REMARK    8  A    between atoms: C_22  and  C_23
REMARK    9  A    between atoms: C_23  and  C_24
REMARK   10  A    between atoms: C_24  and  C_25
REMARK   11  A    between atoms: C_25  and  N_26
REMARK   12  A    between atoms: C_27  and  O_29
REMARK   13  A    between atoms: O_29  and  C_30
REMARK   14  A    between atoms: C_36  and  C_37
REMARK                            x       y       z     vdW  Elec       q    Type
REMARK                         _______ _______ _______ _____ _____    ______ ____
ROOT
ATOM      1  C   UNL     1      -5.022  11.905  18.966  0.00  0.00    +0.000 A 
ATOM      2  C   UNL     1      -4.789  12.735  20.118  0.00  0.00    +0.000 A 
ATOM      3  C   UNL     1      -3.393  12.806  20.327  0.00  0.00    +0.000 A 
ATOM      4  N   UNL     1      -2.797  12.038  19.289  0.00  0.00    +0.000 N 
ATOM      5  C   UNL     1      -3.784  11.510  18.466  0.00  0.00    +0.000 A 
ATOM      6  C   UNL     1      -3.594  10.690  17.231  0.00  0.00    +0.000 C 
ENDROOT
BRANCH   2   7
ATOM      7  C   UNL     1      -5.819  13.368  20.972  0.00  0.00    +0.000 A 
ATOM      8  C   UNL     1      -6.444  12.636  22.000  0.00  0.00    +0.000 A 
ATOM      9  C   UNL     1      -7.409  13.226  22.827  0.00  0.00    +0.000 A 
ATOM     10  C   UNL     1      -7.730  14.566  22.679  0.00  0.00    +0.000 A 
ATOM     11  C   UNL     1      -7.123  15.311  21.672  0.00  0.00    +0.000 A 
ATOM     12  C   UNL     1      -6.210  14.703  20.800  0.00  0.00    +0.000 A 
ENDBRANCH   2   7
BRANCH   3  13
ATOM     13  C   UNL     1      -2.620  13.499  21.421  0.00  0.00    +0.000 A 
ATOM     14  C   UNL     1      -2.253  12.818  22.596  0.00  0.00    +0.000 A 
ATOM     15  C   UNL     1      -1.632  13.479  23.672  0.00  0.00    +0.000 A 
ATOM     16  C   UNL     1      -1.270  14.815  23.558  0.00  0.00    +0.000 A 
ATOM     17  C   UNL     1      -1.578  15.502  22.395  0.00  0.00    +0.000 A 
ATOM     18  C   UNL     1      -2.290  14.865  21.368  0.00  0.00    +0.000 A 
ENDBRANCH   3  13
BRANCH   1  20
ATOM     19  C   UNL     1      -7.008  12.523  17.426  0.00  0.00    +0.000 C 
ATOM     20  C   UNL     1      -6.318  11.548  18.347  0.00  0.00    +0.000 C 
ATOM     21  O   UNL     1      -6.861  10.465  18.576  0.00  0.00    +0.000 OA
ENDBRANCH   1  20
BRANCH   4  22
ATOM     22  C   UNL     1      -1.343  11.850  19.186  0.00  0.00    +0.000 C 
BRANCH  22  23
ATOM     23  C   UNL     1      -0.641  10.712  19.929  0.00  0.00    +0.000 C 
BRANCH  23  24
ATOM     24  C   UNL     1       0.885  10.778  19.938  0.00  0.00    +0.000 C 
BRANCH  24  25
ATOM     25  C   UNL     1       1.477  10.540  18.558  0.00  0.00    +0.000 C 
BRANCH  25  26
ATOM     26  C   UNL     1       1.087   9.179  17.997  0.00  0.00    +0.000 C 
BRANCH  26  27
ATOM     27  C   UNL     1       2.350   8.443  17.553  0.00  0.00    +0.000 C 
BRANCH  27  28
ATOM     28  N   UNL     1       2.845   7.540  18.555  0.00  0.00    +0.000 N 
ATOM     29  C   UNL     1       3.750   6.559  18.262  0.00  0.00    +0.000 C 
ATOM     30  O   UNL     1       4.311   6.419  17.184  0.00  0.00    +0.000 OA
ATOM     31  H   UNL     1       2.353   7.433  19.431  0.00  0.00    +0.000 HD
BRANCH  29  32
ATOM     32  O   UNL     1       3.855   5.717  19.351  0.00  0.00    +0.000 OA
BRANCH  32  33
ATOM     33  C   UNL     1       2.888   4.708  19.422  0.00  0.00    +0.000 A 
ATOM     34  C   UNL     1       2.175   4.581  20.616  0.00  0.00    +0.000 A 
ATOM     35  C   UNL     1       1.107   3.688  20.674  0.00  0.00    +0.000 A 
ATOM     36  C   UNL     1       0.756   2.934  19.553  0.00  0.00    +0.000 A 
ATOM     37  C   UNL     1       1.471   3.068  18.363  0.00  0.00    +0.000 A 
ATOM     38  C   UNL     1       2.533   3.964  18.293  0.00  0.00    +0.000 A 
ENDBRANCH  32  33
ENDBRANCH  29  32
ENDBRANCH  27  28
ENDBRANCH  26  27
ENDBRANCH  25  26
ENDBRANCH  24  25
ENDBRANCH  23  24
ENDBRANCH  22  23
ENDBRANCH   4  22
TORSDOF 12
ENDMDL
MODEL 4
REMARK VINA RESULT:      -7.0      1.612      4.305
REMARK  Name = 
REMARK  14 active torsions:
REMARK  status: ('A' for Active; 'I' for Inactive)
REMARK    1  A    between atoms: C_1  and  C_2
REMARK    2  A    between atoms: C_2  and  C_4
REMARK    3  A    between atoms: C_5  and  C_6
REMARK    4  A    between atoms: C_12  and  C_13
REMARK    5  A    between atoms: N_19  and  C_20
REMARK    6  A    between atoms: C_20  and  C_21
REMARK    7  A    between atoms: C_21  and  C_22
REMARK    8  A    between atoms: C_22  and  C_23
REMARK    9  A    between atoms: C_23  and  C_24
REMARK   10  A    between atoms: C_24  and  C_25
REMARK   11  A    between atoms: C_25  and  N_26
REMARK   12  A    between atoms: C_27  and  O_29
REMARK   13  A    between atoms: O_29  and  C_30
REMARK   14  A    between atoms: C_36  and  C_37
REMARK                            x       y       z     vdW  Elec       q    Type
REMARK                         _______ _______ _______ _____ _____    ______ ____
ROOT
ATOM      1  C   UNL     1      -4.372  12.030  19.471  0.00  0.00    +0.000 A 
ATOM      2  C   UNL     1      -3.208  11.740  18.677  0.00  0.00    +0.000 A 
ATOM      3  C   UNL     1      -2.076  12.219  19.375  0.00  0.00    +0.000 A 
ATOM      4  N   UNL     1      -2.564  12.770  20.592  0.00  0.00    +0.000 N 
ATOM      5  C   UNL     1      -3.946  12.640  20.648  0.00  0.00    +0.000 A 
ATOM      6  C   UNL     1      -4.851  13.038  21.770  0.00  0.00    +0.000 C 
ENDROOT
BRANCH   2   7
ATOM      7  C   UNL     1      -3.187  11.102  17.342  0.00  0.00    +0.000 A 
ATOM      8  C   UNL     1      -2.422   9.941  17.117  0.00  0.00    +0.000 A 
ATOM      9  C   UNL     1      -2.404   9.315  15.864  0.00  0.00    +0.000 A 
ATOM     10  C   UNL     1      -3.187   9.804  14.829  0.00  0.00    +0.000 A 
ATOM     11  C   UNL     1      -3.954  10.947  15.028  0.00  0.00    +0.000 A 
ATOM     12  C   UNL     1      -3.916  11.613  16.261  0.00  0.00    +0.000 A 
ENDBRANCH   2   7
BRANCH   3  13
ATOM     13  C   UNL     1      -0.624  12.216  18.968  0.00  0.00    +0.000 A 
ATOM     14  C   UNL     1       0.104  11.015  18.879  0.00  0.00    +0.000 A 
ATOM     15  C   UNL     1       1.486  11.005  18.611  0.00  0.00    +0.000 A 
ATOM     16  C   UNL     1       2.152  12.190  18.323  0.00  0.00    +0.000 A 
ATOM     17  C   UNL     1       1.452  13.385  18.360  0.00  0.00    +0.000 A 
ATOM     18  C   UNL     1       0.099  13.398  18.730  0.00  0.00    +0.000 A 
ENDBRANCH   3  13
BRANCH   1  20
ATOM     19  C   UNL     1      -6.664  12.732  18.496  0.00  0.00    +0.000 C 
ATOM     20  C   UNL     1      -5.785  11.708  19.169  0.00  0.00    +0.000 C 
ATOM     21  O   UNL     1      -6.271  10.615  19.465  0.00  0.00    +0.000 OA
ENDBRANCH   1  20
BRANCH   4  22
ATOM     22  C   UNL     1      -1.678  13.398  21.582  0.00  0.00    +0.000 C 
BRANCH  22  23
ATOM     23  C   UNL     1      -0.786  12.551  22.491  0.00  0.00    +0.000 C 
BRANCH  23  24
ATOM     24  C   UNL     1      -1.410  11.252  22.996  0.00  0.00    +0.000 C 
BRANCH  24  25
ATOM     25  C   UNL     1      -0.843  10.031  22.288  0.00  0.00    +0.000 C 
BRANCH  25  26
ATOM     26  C   UNL     1       0.678  10.063  22.227  0.00  0.00    +0.000 C 
BRANCH  26  27
ATOM     27  C   UNL     1       1.201   8.633  22.101  0.00  0.00    +0.000 C 
BRANCH  27  28
ATOM     28  N   UNL     1       1.696   8.340  20.784  0.00  0.00    +0.000 N 
ATOM     29  C   UNL     1       1.908   7.058  20.359  0.00  0.00    +0.000 C 
ATOM     30  O   UNL     1       1.599   6.051  20.981  0.00  0.00    +0.000 OA
ATOM     31  H   UNL     1       2.145   9.061  20.237  0.00  0.00    +0.000 HD
BRANCH  29  32
ATOM     32  O   UNL     1       2.596   7.099  19.163  0.00  0.00    +0.000 OA
BRANCH  32  33
ATOM     33  C   UNL     1       2.948   5.853  18.633  0.00  0.00    +0.000 A 
ATOM     34  C   UNL     1       1.935   5.093  18.046  0.00  0.00    +0.000 A 
ATOM     35  C   UNL     1       2.272   3.916  17.379  0.00  0.00    +0.000 A 
ATOM     36  C   UNL     1       3.605   3.508  17.299  0.00  0.00    +0.000 A 
ATOM     37  C   UNL     1       4.612   4.273  17.886  0.00  0.00    +0.000 A 
ATOM     38  C   UNL     1       4.285   5.454  18.546  0.00  0.00    +0.000 A 
ENDBRANCH  32  33
ENDBRANCH  29  32
ENDBRANCH  27  28
ENDBRANCH  26  27
ENDBRANCH  25  26
ENDBRANCH  24  25
ENDBRANCH  23  24
ENDBRANCH  22  23
ENDBRANCH   4  22
TORSDOF 12
ENDMDL
MODEL 5
REMARK VINA RESULT:      -7.0      1.498      1.918
REMARK  Name = 
REMARK  14 active torsions:
REMARK  status: ('A' for Active; 'I' for Inactive)
REMARK    1  A    between atoms: C_1  and  C_2
REMARK    2  A    between atoms: C_2  and  C_4
REMARK    3  A    between atoms: C_5  and  C_6
REMARK    4  A    between atoms: C_12  and  C_13
REMARK    5  A    between atoms: N_19  and  C_20
REMARK    6  A    between atoms: C_20  and  C_21
REMARK    7  A    between atoms: C_21  and  C_22
REMARK    8  A    between atoms: C_22  and  C_23
REMARK    9  A    between atoms: C_23  and  C_24
REMARK   10  A    between atoms: C_24  and  C_25
REMARK   11  A    between atoms: C_25  and  N_26
REMARK   12  A    between atoms: C_27  and  O_29
REMARK   13  A    between atoms: O_29  and  C_30
REMARK   14  A    between atoms: C_36  and  C_37
REMARK                            x       y       z     vdW  Elec       q    Type
REMARK                         _______ _______ _______ _____ _____    ______ ____
ROOT
ATOM      1  C   UNL     1      -5.012  11.869  18.459  0.00  0.00    +0.000 A 
ATOM      2  C   UNL     1      -4.538  12.580  19.617  0.00  0.00    +0.000 A 
ATOM      3  C   UNL     1      -3.126  12.519  19.616  0.00  0.00    +0.000 A 
ATOM      4  N   UNL     1      -2.761  11.793  18.449  0.00  0.00    +0.000 N 
ATOM      5  C   UNL     1      -3.902  11.418  17.751  0.00  0.00    +0.000 A 
ATOM      6  C   UNL     1      -3.970  10.689  16.447  0.00  0.00    +0.000 C 
ENDROOT
BRANCH   2   7
ATOM      7  C   UNL     1      -5.369  13.223  20.659  0.00  0.00    +0.000 A 
ATOM      8  C   UNL     1      -5.438  14.627  20.753  0.00  0.00    +0.000 A 
ATOM      9  C   UNL     1      -6.232  15.251  21.724  0.00  0.00    +0.000 A 
ATOM     10  C   UNL     1      -7.011  14.491  22.583  0.00  0.00    +0.000 A 
ATOM     11  C   UNL     1      -6.963  13.102  22.506  0.00  0.00    +0.000 A 
ATOM     12  C   UNL     1      -6.114  12.478  21.582  0.00  0.00    +0.000 A 
ENDBRANCH   2   7
BRANCH   3  13
ATOM     13  C   UNL     1      -2.141  13.054  20.625  0.00  0.00    +0.000 A 
ATOM     14  C   UNL     1      -1.459  14.264  20.405  0.00  0.00    +0.000 A 
ATOM     15  C   UNL     1      -0.454  14.719  21.280  0.00  0.00    +0.000 A 
ATOM     16  C   UNL     1      -0.181  14.025  22.452  0.00  0.00    +0.000 A 
ATOM     17  C   UNL     1      -0.868  12.852  22.720  0.00  0.00    +0.000 A 
ATOM     18  C   UNL     1      -1.793  12.350  21.792  0.00  0.00    +0.000 A 
ENDBRANCH   3  13
BRANCH   1  20
ATOM     19  C   UNL     1      -7.122  12.759  17.252  0.00  0.00    +0.000 C 
ATOM     20  C   UNL     1      -6.412  11.673  18.021  0.00  0.00    +0.000 C 
ATOM     21  O   UNL     1      -7.025  10.635  18.280  0.00  0.00    +0.000 OA
ENDBRANCH   1  20
BRANCH   4  22
ATOM     22  C   UNL     1      -1.362  11.495  18.114  0.00  0.00    +0.000 C 
BRANCH  22  23
ATOM     23  C   UNL     1      -0.652  10.275  18.703  0.00  0.00    +0.000 C 
BRANCH  23  24
ATOM     24  C   UNL     1       0.873  10.344  18.712  0.00  0.00    +0.000 C 
BRANCH  24  25
ATOM     25  C   UNL     1       1.499   9.321  17.779  0.00  0.00    +0.000 C 
BRANCH  25  26
ATOM     26  C   UNL     1       2.082   8.137  18.539  0.00  0.00    +0.000 C 
BRANCH  26  27
ATOM     27  C   UNL     1       3.330   7.643  17.811  0.00  0.00    +0.000 C 
BRANCH  27  28
ATOM     28  N   UNL     1       3.770   6.356  18.277  0.00  0.00    +0.000 N 
ATOM     29  C   UNL     1       4.364   5.449  17.445  0.00  0.00    +0.000 C 
ATOM     30  O   UNL     1       4.687   5.665  16.285  0.00  0.00    +0.000 OA
ATOM     31  H   UNL     1       3.422   5.986  19.150  0.00  0.00    +0.000 HD
BRANCH  29  32
ATOM     32  O   UNL     1       4.457   4.241  18.106  0.00  0.00    +0.000 OA
BRANCH  32  33
ATOM     33  C   UNL     1       3.285   3.814  18.739  0.00  0.00    +0.000 A 
ATOM     34  C   UNL     1       2.240   3.368  17.927  0.00  0.00    +0.000 A 
ATOM     35  C   UNL     1       1.116   2.798  18.523  0.00  0.00    +0.000 A 
ATOM     36  C   UNL     1       1.041   2.674  19.912  0.00  0.00    +0.000 A 
ATOM     37  C   UNL     1       2.090   3.119  20.716  0.00  0.00    +0.000 A 
ATOM     38  C   UNL     1       3.219   3.681  20.129  0.00  0.00    +0.000 A 
ENDBRANCH  32  33
ENDBRANCH  29  32
ENDBRANCH  27  28
ENDBRANCH  26  27
ENDBRANCH  25  26
ENDBRANCH  24  25
ENDBRANCH  23  24
ENDBRANCH  22  23
ENDBRANCH   4  22
TORSDOF 12
ENDMDL
MODEL 6
REMARK VINA RESULT:      -7.0      2.004      3.519
REMARK  Name = 
REMARK  14 active torsions:
REMARK  status: ('A' for Active; 'I' for Inactive)
REMARK    1  A    between atoms: C_1  and  C_2
REMARK    2  A    between atoms: C_2  and  C_4
REMARK    3  A    between atoms: C_5  and  C_6
REMARK    4  A    between atoms: C_12  and  C_13
REMARK    5  A    between atoms: N_19  and  C_20
REMARK    6  A    between atoms: C_20  and  C_21
REMARK    7  A    between atoms: C_21  and  C_22
REMARK    8  A    between atoms: C_22  and  C_23
REMARK    9  A    between atoms: C_23  and  C_24
REMARK   10  A    between atoms: C_24  and  C_25
REMARK   11  A    between atoms: C_25  and  N_26
REMARK   12  A    between atoms: C_27  and  O_29
REMARK   13  A    between atoms: O_29  and  C_30
REMARK   14  A    between atoms: C_36  and  C_37
REMARK                            x       y       z     vdW  Elec       q    Type
REMARK                         _______ _______ _______ _____ _____    ______ ____
ROOT
ATOM      1  C   UNL     1      -4.005  13.260  21.219  0.00  0.00    +0.000 A 
ATOM      2  C   UNL     1      -2.684  13.800  21.408  0.00  0.00    +0.000 A 
ATOM      3  C   UNL     1      -1.864  13.319  20.363  0.00  0.00    +0.000 A 
ATOM      4  N   UNL     1      -2.699  12.514  19.541  0.00  0.00    +0.000 N 
ATOM      5  C   UNL     1      -3.990  12.494  20.056  0.00  0.00    +0.000 A 
ATOM      6  C   UNL     1      -5.189  11.815  19.476  0.00  0.00    +0.000 C 
ENDROOT
BRANCH   2   7
ATOM      7  C   UNL     1      -2.237  14.666  22.522  0.00  0.00    +0.000 A 
ATOM      8  C   UNL     1      -2.168  16.063  22.358  0.00  0.00    +0.000 A 
ATOM      9  C   UNL     1      -1.762  16.897  23.408  0.00  0.00    +0.000 A 
ATOM     10  C   UNL     1      -1.467  16.361  24.652  0.00  0.00    +0.000 A 
ATOM     11  C   UNL     1      -1.532  14.984  24.839  0.00  0.00    +0.000 A 
ATOM     12  C   UNL     1      -1.869  14.144  23.769  0.00  0.00    +0.000 A 
ENDBRANCH   2   7
BRANCH   3  13
ATOM     13  C   UNL     1      -0.392  13.538  20.119  0.00  0.00    +0.000 A 
ATOM     14  C   UNL     1       0.060  14.274  19.008  0.00  0.00    +0.000 A 
ATOM     15  C   UNL     1       1.429  14.391  18.703  0.00  0.00    +0.000 A 
ATOM     16  C   UNL     1       2.384  13.862  19.562  0.00  0.00    +0.000 A 
ATOM     17  C   UNL     1       1.972  13.169  20.689  0.00  0.00    +0.000 A 
ATOM     18  C   UNL     1       0.604  12.967  20.930  0.00  0.00    +0.000 A 
ENDBRANCH   3  13
BRANCH   1  20
ATOM     19  C   UNL     1      -5.998  14.766  21.893  0.00  0.00    +0.000 C 
ATOM     20  C   UNL     1      -5.210  13.489  22.045  0.00  0.00    +0.000 C 
ATOM     21  O   UNL     1      -5.587  12.658  22.874  0.00  0.00    +0.000 OA
ENDBRANCH   1  20
BRANCH   4  22
ATOM     22  C   UNL     1      -2.193  11.810  18.355  0.00  0.00    +0.000 C 
BRANCH  22  23
ATOM     23  C   UNL     1      -1.765  10.343  18.431  0.00  0.00    +0.000 C 
BRANCH  23  24
ATOM     24  C   UNL     1      -0.365  10.097  18.989  0.00  0.00    +0.000 C 
BRANCH  24  25
ATOM     25  C   UNL     1       0.718  10.687  18.100  0.00  0.00    +0.000 C 
BRANCH  25  26
ATOM     26  C   UNL     1       2.044   9.953  18.253  0.00  0.00    +0.000 C 
BRANCH  26  27
ATOM     27  C   UNL     1       1.891   8.531  17.718  0.00  0.00    +0.000 C 
BRANCH  27  28
ATOM     28  N   UNL     1       2.507   7.550  18.569  0.00  0.00    +0.000 N 
ATOM     29  C   UNL     1       3.550   6.776  18.145  0.00  0.00    +0.000 C 
ATOM     30  O   UNL     1       4.135   6.907  17.078  0.00  0.00    +0.000 OA
ATOM     31  H   UNL     1       2.029   7.224  19.397  0.00  0.00    +0.000 HD
BRANCH  29  32
ATOM     32  O   UNL     1       3.770   5.784  19.079  0.00  0.00    +0.000 OA
BRANCH  32  33
ATOM     33  C   UNL     1       2.701   4.904  19.280  0.00  0.00    +0.000 A 
ATOM     34  C   UNL     1       2.290   4.131  18.193  0.00  0.00    +0.000 A 
ATOM     35  C   UNL     1       1.329   3.140  18.392  0.00  0.00    +0.000 A 
ATOM     36  C   UNL     1       0.789   2.927  19.661  0.00  0.00    +0.000 A 
ATOM     37  C   UNL     1       1.207   3.701  20.743  0.00  0.00    +0.000 A 
ATOM     38  C   UNL     1       2.172   4.686  20.555  0.00  0.00    +0.000 A 
ENDBRANCH  32  33
ENDBRANCH  29  32
ENDBRANCH  27  28
ENDBRANCH  26  27
ENDBRANCH  25  26
ENDBRANCH  24  25
ENDBRANCH  23  24
ENDBRANCH  22  23
ENDBRANCH   4  22
TORSDOF 12
ENDMDL
MODEL 7
REMARK VINA RESULT:      -7.0      2.295      3.532
REMARK  Name = 
REMARK  14 active torsions:
REMARK  status: ('A' for Active; 'I' for Inactive)
REMARK    1  A    between atoms: C_1  and  C_2
REMARK    2  A    between atoms: C_2  and  C_4
REMARK    3  A    between atoms: C_5  and  C_6
REMARK    4  A    between atoms: C_12  and  C_13
REMARK    5  A    between atoms: N_19  and  C_20
REMARK    6  A    between atoms: C_20  and  C_21
REMARK    7  A    between atoms: C_21  and  C_22
REMARK    8  A    between atoms: C_22  and  C_23
REMARK    9  A    between atoms: C_23  and  C_24
REMARK   10  A    between atoms: C_24  and  C_25
REMARK   11  A    between atoms: C_25  and  N_26
REMARK   12  A    between atoms: C_27  and  O_29
REMARK   13  A    between atoms: O_29  and  C_30
REMARK   14  A    between atoms: C_36  and  C_37
REMARK                            x       y       z     vdW  Elec       q    Type
REMARK                         _______ _______ _______ _____ _____    ______ ____
ROOT
ATOM      1  C   UNL     1      -2.453  10.915  18.194  0.00  0.00    +0.000 A 
ATOM      2  C   UNL     1      -3.234  11.752  19.067  0.00  0.00    +0.000 A 
ATOM      3  C   UNL     1      -2.385  12.214  20.098  0.00  0.00    +0.000 A 
ATOM      4  N   UNL     1      -1.099  11.672  19.827  0.00  0.00    +0.000 N 
ATOM      5  C   UNL     1      -1.145  10.903  18.671  0.00  0.00    +0.000 A 
ATOM      6  C   UNL     1      -0.008  10.198  18.003  0.00  0.00    +0.000 C 
ENDROOT
BRANCH   2   7
ATOM      7  C   UNL     1      -4.679  12.045  18.947  0.00  0.00    +0.000 A 
ATOM      8  C   UNL     1      -5.475  12.196  20.099  0.00  0.00    +0.000 A 
ATOM      9  C   UNL     1      -6.842  12.490  20.003  0.00  0.00    +0.000 A 
ATOM     10  C   UNL     1      -7.428  12.688  18.762  0.00  0.00    +0.000 A 
ATOM     11  C   UNL     1      -6.660  12.548  17.610  0.00  0.00    +0.000 A 
ATOM     12  C   UNL     1      -5.310  12.185  17.704  0.00  0.00    +0.000 A 
ENDBRANCH   2   7
BRANCH   3  13
ATOM     13  C   UNL     1      -2.708  13.075  21.294  0.00  0.00    +0.000 A 
ATOM     14  C   UNL     1      -2.699  14.479  21.204  0.00  0.00    +0.000 A 
ATOM     15  C   UNL     1      -2.886  15.295  22.334  0.00  0.00    +0.000 A 
ATOM     16  C   UNL     1      -3.189  14.728  23.565  0.00  0.00    +0.000 A 
ATOM     17  C   UNL     1      -3.250  13.348  23.677  0.00  0.00    +0.000 A 
ATOM     18  C   UNL     1      -2.959  12.538  22.569  0.00  0.00    +0.000 A 
ENDBRANCH   3  13
BRANCH   1  20
ATOM     19  C   UNL     1      -2.706  10.867  15.619  0.00  0.00    +0.000 C 
ATOM     20  C   UNL     1      -2.894  10.217  16.966  0.00  0.00    +0.000 C 
ATOM     21  O   UNL     1      -3.429   9.107  17.017  0.00  0.00    +0.000 OA
ENDBRANCH   1  20
BRANCH   4  22
ATOM     22  C   UNL     1       0.055  11.910  20.705  0.00  0.00    +0.000 C 
BRANCH  22  23
ATOM     23  C   UNL     1       0.889  10.745  21.244  0.00  0.00    +0.000 C 
BRANCH  23  24
ATOM     24  C   UNL     1       0.105   9.670  21.995  0.00  0.00    +0.000 C 
BRANCH  24  25
ATOM     25  C   UNL     1       0.065   8.355  21.234  0.00  0.00    +0.000 C 
BRANCH  25  26
ATOM     26  C   UNL     1       1.457   7.892  20.821  0.00  0.00    +0.000 C 
BRANCH  26  27
ATOM     27  C   UNL     1       1.458   6.371  20.692  0.00  0.00    +0.000 C 
BRANCH  27  28
ATOM     28  N   UNL     1       2.730   5.852  20.270  0.00  0.00    +0.000 N 
ATOM     29  C   UNL     1       2.964   5.473  18.978  0.00  0.00    +0.000 C 
ATOM     30  O   UNL     1       2.190   5.638  18.045  0.00  0.00    +0.000 OA
ATOM     31  H   UNL     1       3.391   5.511  20.952  0.00  0.00    +0.000 HD
BRANCH  29  32
ATOM     32  O   UNL     1       4.172   4.807  18.927  0.00  0.00    +0.000 OA
BRANCH  32  33
ATOM     33  C   UNL     1       5.285   5.609  18.649  0.00  0.00    +0.000 A 
ATOM     34  C   UNL     1       6.441   5.390  19.401  0.00  0.00    +0.000 A 
ATOM     35  C   UNL     1       7.611   6.064  19.056  0.00  0.00    +0.000 A 
ATOM     36  C   UNL     1       7.624   6.943  17.971  0.00  0.00    +0.000 A 
ATOM     37  C   UNL     1       6.467   7.155  17.223  0.00  0.00    +0.000 A 
ATOM     38  C   UNL     1       5.297   6.478  17.555  0.00  0.00    +0.000 A 
ENDBRANCH  32  33
ENDBRANCH  29  32
ENDBRANCH  27  28
ENDBRANCH  26  27
ENDBRANCH  25  26
ENDBRANCH  24  25
ENDBRANCH  23  24
ENDBRANCH  22  23
ENDBRANCH   4  22
TORSDOF 12
ENDMDL
MODEL 8
REMARK VINA RESULT:      -6.9      2.187      3.249
REMARK  Name = 
REMARK  14 active torsions:
REMARK  status: ('A' for Active; 'I' for Inactive)
REMARK    1  A    between atoms: C_1  and  C_2
REMARK    2  A    between atoms: C_2  and  C_4
REMARK    3  A    between atoms: C_5  and  C_6
REMARK    4  A    between atoms: C_12  and  C_13
REMARK    5  A    between atoms: N_19  and  C_20
REMARK    6  A    between atoms: C_20  and  C_21
REMARK    7  A    between atoms: C_21  and  C_22
REMARK    8  A    between atoms: C_22  and  C_23
REMARK    9  A    between atoms: C_23  and  C_24
REMARK   10  A    between atoms: C_24  and  C_25
REMARK   11  A    between atoms: C_25  and  N_26
REMARK   12  A    between atoms: C_27  and  O_29
REMARK   13  A    between atoms: O_29  and  C_30
REMARK   14  A    between atoms: C_36  and  C_37
REMARK                            x       y       z     vdW  Elec       q    Type
REMARK                         _______ _______ _______ _____ _____    ______ ____
ROOT
ATOM      1  C   UNL     1      -2.797  11.489  18.849  0.00  0.00    +0.000 A 
ATOM      2  C   UNL     1      -3.509  12.206  19.874  0.00  0.00    +0.000 A 
ATOM      3  C   UNL     1      -2.595  12.504  20.909  0.00  0.00    +0.000 A 
ATOM      4  N   UNL     1      -1.338  11.987  20.491  0.00  0.00    +0.000 N 
ATOM      5  C   UNL     1      -1.466  11.389  19.243  0.00  0.00    +0.000 A 
ATOM      6  C   UNL     1      -0.384  10.769  18.419  0.00  0.00    +0.000 C 
ENDROOT
BRANCH   2   7
ATOM      7  C   UNL     1      -4.952  12.535  19.880  0.00  0.00    +0.000 A 
ATOM      8  C   UNL     1      -5.919  11.511  19.841  0.00  0.00    +0.000 A 
ATOM      9  C   UNL     1      -7.288  11.806  19.863  0.00  0.00    +0.000 A 
ATOM     10  C   UNL     1      -7.718  13.119  19.975  0.00  0.00    +0.000 A 
ATOM     11  C   UNL     1      -6.781  14.147  20.019  0.00  0.00    +0.000 A 
ATOM     12  C   UNL     1      -5.414  13.857  19.926  0.00  0.00    +0.000 A 
ENDBRANCH   2   7
BRANCH   3  13
ATOM     13  C   UNL     1      -2.831  13.193  22.230  0.00  0.00    +0.000 A 
ATOM     14  C   UNL     1      -3.433  12.515  23.306  0.00  0.00    +0.000 A 
ATOM     15  C   UNL     1      -3.764  13.174  24.505  0.00  0.00    +0.000 A 
ATOM     16  C   UNL     1      -3.406  14.502  24.695  0.00  0.00    +0.000 A 
ATOM     17  C   UNL     1      -2.773  15.186  23.670  0.00  0.00    +0.000 A 
ATOM     18  C   UNL     1      -2.540  14.553  22.440  0.00  0.00    +0.000 A 
ENDBRANCH   3  13
BRANCH   1  20
ATOM     19  C   UNL     1      -3.714   9.527  17.432  0.00  0.00    +0.000 C 
ATOM     20  C   UNL     1      -3.322  10.977  17.563  0.00  0.00    +0.000 C 
ATOM     21  O   UNL     1      -3.438  11.713  16.581  0.00  0.00    +0.000 OA
ENDBRANCH   1  20
BRANCH   4  22
ATOM     22  C   UNL     1      -0.132  12.081  21.325  0.00  0.00    +0.000 C 
BRANCH  22  23
ATOM     23  C   UNL     1       0.249  10.956  22.290  0.00  0.00    +0.000 C 
BRANCH  23  24
ATOM     24  C   UNL     1      -0.755   9.809  22.388  0.00  0.00    +0.000 C 
BRANCH  24  25
ATOM     25  C   UNL     1      -0.341   8.612  21.547  0.00  0.00    +0.000 C 
BRANCH  25  26
ATOM     26  C   UNL     1       1.169   8.410  21.546  0.00  0.00    +0.000 C 
BRANCH  26  27
ATOM     27  C   UNL     1       1.638   8.162  20.114  0.00  0.00    +0.000 C 
BRANCH  27  28
ATOM     28  N   UNL     1       2.498   7.016  20.004  0.00  0.00    +0.000 N 
ATOM     29  C   UNL     1       3.089   6.665  18.823  0.00  0.00    +0.000 C 
ATOM     30  O   UNL     1       3.054   7.327  17.795  0.00  0.00    +0.000 OA
ATOM     31  H   UNL     1       2.481   6.298  20.714  0.00  0.00    +0.000 HD
BRANCH  29  32
ATOM     32  O   UNL     1       3.652   5.413  18.968  0.00  0.00    +0.000 OA
BRANCH  32  33
ATOM     33  C   UNL     1       4.821   5.195  18.231  0.00  0.00    +0.000 A 
ATOM     34  C   UNL     1       6.040   5.444  18.865  0.00  0.00    +0.000 A 
ATOM     35  C   UNL     1       7.224   5.099  18.216  0.00  0.00    +0.000 A 
ATOM     36  C   UNL     1       7.189   4.511  16.950  0.00  0.00    +0.000 A 
ATOM     37  C   UNL     1       5.968   4.263  16.323  0.00  0.00    +0.000 A 
ATOM     38  C   UNL     1       4.781   4.596  16.969  0.00  0.00    +0.000 A 
ENDBRANCH  32  33
ENDBRANCH  29  32
ENDBRANCH  27  28
ENDBRANCH  26  27
ENDBRANCH  25  26
ENDBRANCH  24  25
ENDBRANCH  23  24
ENDBRANCH  22  23
ENDBRANCH   4  22
TORSDOF 12
ENDMDL
MODEL 9
REMARK VINA RESULT:      -6.8      6.566      9.270
REMARK  Name = 
REMARK  14 active torsions:
REMARK  status: ('A' for Active; 'I' for Inactive)
REMARK    1  A    between atoms: C_1  and  C_2
REMARK    2  A    between atoms: C_2  and  C_4
REMARK    3  A    between atoms: C_5  and  C_6
REMARK    4  A    between atoms: C_12  and  C_13
REMARK    5  A    between atoms: N_19  and  C_20
REMARK    6  A    between atoms: C_20  and  C_21
REMARK    7  A    between atoms: C_21  and  C_22
REMARK    8  A    between atoms: C_22  and  C_23
REMARK    9  A    between atoms: C_23  and  C_24
REMARK   10  A    between atoms: C_24  and  C_25
REMARK   11  A    between atoms: C_25  and  N_26
REMARK   12  A    between atoms: C_27  and  O_29
REMARK   13  A    between atoms: O_29  and  C_30
REMARK   14  A    between atoms: C_36  and  C_37
REMARK                            x       y       z     vdW  Elec       q    Type
REMARK                         _______ _______ _______ _____ _____    ______ ____
ROOT
ATOM      1  C   UNL     1       6.228  15.283  20.098  0.00  0.00    +0.000 A 
ATOM      2  C   UNL     1       5.502  14.770  21.230  0.00  0.00    +0.000 A 
ATOM      3  C   UNL     1       6.437  14.193  22.119  0.00  0.00    +0.000 A 
ATOM      4  N   UNL     1       7.717  14.382  21.529  0.00  0.00    +0.000 N 
ATOM      5  C   UNL     1       7.583  15.052  20.319  0.00  0.00    +0.000 A 
ATOM      6  C   UNL     1       8.677  15.497  19.402  0.00  0.00    +0.000 C 
ENDROOT
BRANCH   2   7
ATOM      7  C   UNL     1       4.036  14.790  21.420  0.00  0.00    +0.000 A 
ATOM      8  C   UNL     1       3.429  15.797  22.196  0.00  0.00    +0.000 A 
ATOM      9  C   UNL     1       2.040  15.840  22.372  0.00  0.00    +0.000 A 
ATOM     10  C   UNL     1       1.227  14.912  21.739  0.00  0.00    +0.000 A 
ATOM     11  C   UNL     1       1.803  13.910  20.964  0.00  0.00    +0.000 A 
ATOM     12  C   UNL     1       3.197  13.826  20.846  0.00  0.00    +0.000 A 
ENDBRANCH   2   7
BRANCH   3  13
ATOM     13  C   UNL     1       6.204  13.473  23.425  0.00  0.00    +0.000 A 
ATOM     14  C   UNL     1       6.028  14.185  24.625  0.00  0.00    +0.000 A 
ATOM     15  C   UNL     1       5.923  13.529  25.866  0.00  0.00    +0.000 A 
ATOM     16  C   UNL     1       5.887  12.142  25.924  0.00  0.00    +0.000 A 
ATOM     17  C   UNL     1       6.014  11.412  24.752  0.00  0.00    +0.000 A 
ATOM     18  C   UNL     1       6.223  12.072  23.532  0.00  0.00    +0.000 A 
ENDBRANCH   3  13
BRANCH   1  20
ATOM     19  C   UNL     1       5.144  15.201  17.750  0.00  0.00    +0.000 C 
ATOM     20  C   UNL     1       5.689  15.989  18.914  0.00  0.00    +0.000 C 
ATOM     21  O   UNL     1       5.683  17.220  18.850  0.00  0.00    +0.000 OA
ENDBRANCH   1  20
BRANCH   4  22
ATOM     22  C   UNL     1       8.952  13.886  22.152  0.00  0.00    +0.000 C 
BRANCH  22  23
ATOM     23  C   UNL     1       9.476  12.481  21.853  0.00  0.00    +0.000 C 
BRANCH  23  24
ATOM     24  C   UNL     1       8.990  11.864  20.543  0.00  0.00    +0.000 C 
BRANCH  24  25
ATOM     25  C   UNL     1      10.001  12.033  19.420  0.00  0.00    +0.000 C 
BRANCH  25  26
ATOM     26  C   UNL     1       9.854  10.955  18.354  0.00  0.00    +0.000 C 
BRANCH  26  27
ATOM     27  C   UNL     1       9.028   9.802  18.921  0.00  0.00    +0.000 C 
BRANCH  27  28
ATOM     28  N   UNL     1       8.120   9.245  17.956  0.00  0.00    +0.000 N 
ATOM     29  C   UNL     1       7.844   7.908  17.910  0.00  0.00    +0.000 C 
ATOM     30  O   UNL     1       8.227   7.082  18.726  0.00  0.00    +0.000 OA
ATOM     31  H   UNL     1       7.868   9.772  17.132  0.00  0.00    +0.000 HD
BRANCH  29  32
ATOM     32  O   UNL     1       7.138   7.644  16.753  0.00  0.00    +0.000 OA
BRANCH  32  33
ATOM     33  C   UNL     1       6.434   6.435  16.745  0.00  0.00    +0.000 A 
ATOM     34  C   UNL     1       5.138   6.441  17.265  0.00  0.00    +0.000 A 
ATOM     35  C   UNL     1       4.354   5.295  17.140  0.00  0.00    +0.000 A 
ATOM     36  C   UNL     1       4.860   4.161  16.502  0.00  0.00    +0.000 A 
ATOM     37  C   UNL     1       6.154   4.164  15.983  0.00  0.00    +0.000 A 
ATOM     38  C   UNL     1       6.940   5.306  16.095  0.00  0.00    +0.000 A 
ENDBRANCH  32  33
ENDBRANCH  29  32
ENDBRANCH  27  28
ENDBRANCH  26  27
ENDBRANCH  25  26
ENDBRANCH  24  25
ENDBRANCH  23  24
ENDBRANCH  22  23
ENDBRANCH   4  22
TORSDOF 12
ENDMDL
