MODEL 1
REMARK VINA RESULT:      -7.1      0.000      0.000
REMARK  Name = 
REMARK  11 active torsions:
REMARK  status: ('A' for Active; 'I' for Inactive)
REMARK    1  A    between atoms: C_1  and  C_2
REMARK    2  A    between atoms: C_2  and  C_3
REMARK    3  A    between atoms: C_3  and  C_4
REMARK    4  A    between atoms: C_3  and  O_6
REMARK    5  A    between atoms: C_4  and  C_5
REMARK    6  A    between atoms: O_6  and  C_7
REMARK    7  A    between atoms: C_9  and  C_10
REMARK    8  A    between atoms: C_10  and  O_12
REMARK    9  A    between atoms: C_14  and  N_15
REMARK   10  A    between atoms: C_19  and  N_20
REMARK   11  A    between atoms: C_21  and  C_22
REMARK                            x       y       z     vdW  Elec       q    Type
REMARK                         _______ _______ _______ _____ _____    ______ ____
ROOT
ATOM      1  C   UNL     1       3.771   5.846  17.275  0.00  0.00    +0.000 C 
ATOM      2  C   UNL     1       3.550   7.335  17.647  0.00  0.00    +0.000 C 
ATOM      3  C   UNL     1       2.333   7.648  18.470  0.00  0.00    +0.000 C 
ATOM      4  C   UNL     1       1.720   6.719  19.217  0.00  0.00    +0.000 C 
ATOM      5  C   UNL     1       2.113   5.279  19.222  0.00  0.00    +0.000 C 
ATOM      6  C   UNL     1       3.449   4.911  18.483  0.00  0.00    +0.000 C 
ENDROOT
BRANCH   5   7
ATOM      7  N   UNL     1       2.188   4.881  20.629  0.00  0.00    +0.000 N 
ATOM      8  C   UNL     1       1.628   3.744  21.099  0.00  0.00    +0.000 C 
ATOM      9  N   UNL     1       0.603   3.113  20.664  0.00  0.00    +0.000 NA
ATOM     10  N   UNL     1       2.285   3.264  22.170  0.00  0.00    +0.000 N 
ATOM     11  H   UNL     1       3.111   5.038  21.020  0.00  0.00    +0.000 HD
ATOM     12  H   UNL     1       0.176   3.625  19.889  0.00  0.00    +0.000 HD
ATOM     13  H   UNL     1       2.398   3.955  22.902  0.00  0.00    +0.000 HD
ATOM     14  H   UNL     1       1.760   2.475  22.541  0.00  0.00    +0.000 HD
ENDBRANCH   5   7
BRANCH   6  15
ATOM     15  N   UNL     1       3.433   3.475  18.129  0.00  0.00    +0.000 N 
ATOM     16  C   UNL     1       4.104   2.533  18.886  0.00  0.00    +0.000 C 
ATOM     17  C   UNL     1       4.049   1.135  18.329  0.00  0.00    +0.000 C 
ATOM     18  O   UNL     1       4.683   2.797  19.939  0.00  0.00    +0.000 OA
ATOM     19  H   UNL     1       3.304   3.255  17.147  0.00  0.00    +0.000 HD
ENDBRANCH   6  15
BRANCH   3  20
ATOM     20  C   UNL     1       1.892   9.066  18.468  0.00  0.00    +0.000 C 
ATOM     21  O   UNL     1       1.294   9.572  19.402  0.00  0.00    +0.000 OA
BRANCH  20  22
ATOM     22  O   UNL     1       2.236   9.763  17.364  0.00  0.00    +0.000 OA
ATOM     23  H   UNL     1       1.916  10.683  17.335  0.00  0.00    +0.000 HD
ENDBRANCH  20  22
ENDBRANCH   3  20
BRANCH   1  24
ATOM     24  O   UNL     1       5.152   5.811  16.828  0.00  0.00    +0.000 OA
BRANCH  24  25
ATOM     25  C   UNL     1       5.653   4.695  16.085  0.00  0.00    +0.000 C 
BRANCH  25  27
ATOM     26  C   UNL     1       6.387   3.915  13.763  0.00  0.00    +0.000 C 
ATOM     27  C   UNL     1       5.505   4.869  14.563  0.00  0.00    +0.000 C 
ENDBRANCH  25  27
BRANCH  25  28
ATOM     28  C   UNL     1       7.156   4.537  16.415  0.00  0.00    +0.000 C 
ATOM     29  C   UNL     1       7.515   4.794  17.870  0.00  0.00    +0.000 C 
ENDBRANCH  25  28
ENDBRANCH  24  25
ENDBRANCH   1  24
TORSDOF 8
ENDMDL
MODEL 2
REMARK VINA RESULT:      -7.1      0.767      1.297
REMARK  Name = 
REMARK  11 active torsions:
REMARK  status: ('A' for Active; 'I' for Inactive)
REMARK    1  A    between atoms: C_1  and  C_2
REMARK    2  A    between atoms: C_2  and  C_3
REMARK    3  A    between atoms: C_3  and  C_4
REMARK    4  A    between atoms: C_3  and  O_6
REMARK    5  A    between atoms: C_4  and  C_5
REMARK    6  A    between atoms: O_6  and  C_7
REMARK    7  A    between atoms: C_9  and  C_10
REMARK    8  A    between atoms: C_10  and  O_12
REMARK    9  A    between atoms: C_14  and  N_15
REMARK   10  A    between atoms: C_19  and  N_20
REMARK   11  A    between atoms: C_21  and  C_22
REMARK                            x       y       z     vdW  Elec       q    Type
REMARK                         _______ _______ _______ _____ _____    ______ ____
ROOT
ATOM      1  C   UNL     1       3.920   5.902  17.269  0.00  0.00    +0.000 C 
ATOM      2  C   UNL     1       3.665   7.380  17.663  0.00  0.00    +0.000 C 
ATOM      3  C   UNL     1       2.426   7.658  18.466  0.00  0.00    +0.000 C 
ATOM      4  C   UNL     1       1.814   6.705  19.184  0.00  0.00    +0.000 C 
ATOM      5  C   UNL     1       2.232   5.272  19.171  0.00  0.00    +0.000 C 
ATOM      6  C   UNL     1       3.589   4.940  18.454  0.00  0.00    +0.000 C 
ENDROOT
BRANCH   5   7
ATOM      7  N   UNL     1       2.285   4.850  20.573  0.00  0.00    +0.000 N 
ATOM      8  C   UNL     1       1.648   3.749  21.031  0.00  0.00    +0.000 C 
ATOM      9  N   UNL     1       0.580   3.199  20.592  0.00  0.00    +0.000 NA
ATOM     10  N   UNL     1       2.274   3.209  22.091  0.00  0.00    +0.000 N 
ATOM     11  H   UNL     1       3.219   4.936  20.960  0.00  0.00    +0.000 HD
ATOM     12  H   UNL     1       0.186   3.750  19.827  0.00  0.00    +0.000 HD
ATOM     13  H   UNL     1       2.440   3.880  22.832  0.00  0.00    +0.000 HD
ATOM     14  H   UNL     1       1.697   2.454  22.454  0.00  0.00    +0.000 HD
ENDBRANCH   5   7
BRANCH   6  15
ATOM     15  N   UNL     1       3.605   3.511  18.075  0.00  0.00    +0.000 N 
ATOM     16  C   UNL     1       4.205   2.555  18.872  0.00  0.00    +0.000 C 
ATOM     17  C   UNL     1       4.201   1.167  18.288  0.00  0.00    +0.000 C 
ATOM     18  O   UNL     1       4.686   2.798  19.978  0.00  0.00    +0.000 OA
ATOM     19  H   UNL     1       3.565   3.308  17.081  0.00  0.00    +0.000 HD
ENDBRANCH   6  15
BRANCH   3  20
ATOM     20  C   UNL     1       1.960   9.067  18.480  0.00  0.00    +0.000 C 
ATOM     21  O   UNL     1       2.154   9.836  17.553  0.00  0.00    +0.000 OA
BRANCH  20  22
ATOM     22  O   UNL     1       1.270   9.424  19.584  0.00  0.00    +0.000 OA
ATOM     23  H   UNL     1       0.308   9.275  19.541  0.00  0.00    +0.000 HD
ENDBRANCH  20  22
ENDBRANCH   3  20
BRANCH   1  24
ATOM     24  O   UNL     1       5.310   5.899  16.850  0.00  0.00    +0.000 OA
BRANCH  24  25
ATOM     25  C   UNL     1       6.304   5.213  17.620  0.00  0.00    +0.000 C 
BRANCH  25  27
ATOM     26  C   UNL     1       6.967   4.476  15.263  0.00  0.00    +0.000 C 
ATOM     27  C   UNL     1       7.244   4.352  16.758  0.00  0.00    +0.000 C 
ENDBRANCH  25  27
BRANCH  25  28
ATOM     28  C   UNL     1       7.153   6.276  18.356  0.00  0.00    +0.000 C 
ATOM     29  C   UNL     1       7.528   7.484  17.512  0.00  0.00    +0.000 C 
ENDBRANCH  25  28
ENDBRANCH  24  25
ENDBRANCH   1  24
TORSDOF 8
ENDMDL
MODEL 3
REMARK VINA RESULT:      -7.0      1.369      2.033
REMARK  Name = 
REMARK  11 active torsions:
REMARK  status: ('A' for Active; 'I' for Inactive)
REMARK    1  A    between atoms: C_1  and  C_2
REMARK    2  A    between atoms: C_2  and  C_3
REMARK    3  A    between atoms: C_3  and  C_4
REMARK    4  A    between atoms: C_3  and  O_6
REMARK    5  A    between atoms: C_4  and  C_5
REMARK    6  A    between atoms: O_6  and  C_7
REMARK    7  A    between atoms: C_9  and  C_10
REMARK    8  A    between atoms: C_10  and  O_12
REMARK    9  A    between atoms: C_14  and  N_15
REMARK   10  A    between atoms: C_19  and  N_20
REMARK   11  A    between atoms: C_21  and  C_22
REMARK                            x       y       z     vdW  Elec       q    Type
REMARK                         _______ _______ _______ _____ _____    ______ ____
ROOT
ATOM      1  C   UNL     1       3.974   5.775  17.288  0.00  0.00    +0.000 C 
ATOM      2  C   UNL     1       3.728   7.266  17.641  0.00  0.00    +0.000 C 
ATOM      3  C   UNL     1       2.470   7.577  18.400  0.00  0.00    +0.000 C 
ATOM      4  C   UNL     1       1.824   6.649  19.120  0.00  0.00    +0.000 C 
ATOM      5  C   UNL     1       2.222   5.211  19.152  0.00  0.00    +0.000 C 
ATOM      6  C   UNL     1       3.596   4.845  18.483  0.00  0.00    +0.000 C 
ENDROOT
BRANCH   5   7
ATOM      7  N   UNL     1       2.228   4.820  20.563  0.00  0.00    +0.000 N 
ATOM      8  C   UNL     1       1.601   3.713  21.019  0.00  0.00    +0.000 C 
ATOM      9  N   UNL     1       0.566   3.124  20.549  0.00  0.00    +0.000 NA
ATOM     10  N   UNL     1       2.197   3.212  22.115  0.00  0.00    +0.000 N 
ATOM     11  H   UNL     1       3.142   4.939  20.987  0.00  0.00    +0.000 HD
ATOM     12  H   UNL     1       0.191   3.649  19.756  0.00  0.00    +0.000 HD
ATOM     13  H   UNL     1       2.313   3.902  22.847  0.00  0.00    +0.000 HD
ATOM     14  H   UNL     1       1.624   2.449  22.471  0.00  0.00    +0.000 HD
ENDBRANCH   5   7
BRANCH   6  15
ATOM     15  N   UNL     1       3.603   3.407  18.136  0.00  0.00    +0.000 N 
ATOM     16  C   UNL     1       4.197   2.466  18.956  0.00  0.00    +0.000 C 
ATOM     17  C   UNL     1       4.185   1.065  18.403  0.00  0.00    +0.000 C 
ATOM     18  O   UNL     1       4.679   2.732  20.055  0.00  0.00    +0.000 OA
ATOM     19  H   UNL     1       3.562   3.183  17.148  0.00  0.00    +0.000 HD
ENDBRANCH   6  15
BRANCH   3  20
ATOM     20  C   UNL     1       2.023   8.993  18.368  0.00  0.00    +0.000 C 
ATOM     21  O   UNL     1       2.254   9.737  17.430  0.00  0.00    +0.000 OA
BRANCH  20  22
ATOM     22  O   UNL     1       1.307   9.383  19.444  0.00  0.00    +0.000 OA
ATOM     23  H   UNL     1       0.782   8.683  19.872  0.00  0.00    +0.000 HD
ENDBRANCH  20  22
ENDBRANCH   3  20
BRANCH   1  24
ATOM     24  O   UNL     1       5.376   5.745  16.911  0.00  0.00    +0.000 OA
BRANCH  24  25
ATOM     25  C   UNL     1       6.385   6.212  17.812  0.00  0.00    +0.000 C 
BRANCH  25  27
ATOM     26  C   UNL     1       7.951   5.530  19.715  0.00  0.00    +0.000 C 
ATOM     27  C   UNL     1       7.154   5.069  18.499  0.00  0.00    +0.000 C 
ENDBRANCH  25  27
BRANCH  25  28
ATOM     28  C   UNL     1       7.393   7.060  17.002  0.00  0.00    +0.000 C 
ATOM     29  C   UNL     1       7.742   8.401  17.630  0.00  0.00    +0.000 C 
ENDBRANCH  25  28
ENDBRANCH  24  25
ENDBRANCH   1  24
TORSDOF 8
ENDMDL
MODEL 4
REMARK VINA RESULT:      -7.0      2.259      3.804
REMARK  Name = 
REMARK  11 active torsions:
REMARK  status: ('A' for Active; 'I' for Inactive)
REMARK    1  A    between atoms: C_1  and  C_2
REMARK    2  A    between atoms: C_2  and  C_3
REMARK    3  A    between atoms: C_3  and  C_4
REMARK    4  A    between atoms: C_3  and  O_6
REMARK    5  A    between atoms: C_4  and  C_5
REMARK    6  A    between atoms: O_6  and  C_7
REMARK    7  A    between atoms: C_9  and  C_10
REMARK    8  A    between atoms: C_10  and  O_12
REMARK    9  A    between atoms: C_14  and  N_15
REMARK   10  A    between atoms: C_19  and  N_20
REMARK   11  A    between atoms: C_21  and  C_22
REMARK                            x       y       z     vdW  Elec       q    Type
REMARK                         _______ _______ _______ _____ _____    ______ ____
ROOT
ATOM      1  C   UNL     1       4.756   6.496  16.729  0.00  0.00    +0.000 C 
ATOM      2  C   UNL     1       4.181   7.019  18.072  0.00  0.00    +0.000 C 
ATOM      3  C   UNL     1       3.087   6.201  18.698  0.00  0.00    +0.000 C 
ATOM      4  C   UNL     1       2.909   4.905  18.404  0.00  0.00    +0.000 C 
ATOM      5  C   UNL     1       3.697   4.185  17.360  0.00  0.00    +0.000 C 
ATOM      6  C   UNL     1       4.933   4.946  16.760  0.00  0.00    +0.000 C 
ENDROOT
BRANCH   5   7
ATOM      7  N   UNL     1       4.127   2.925  17.971  0.00  0.00    +0.000 N 
ATOM      8  C   UNL     1       3.331   1.835  18.037  0.00  0.00    +0.000 C 
ATOM      9  N   UNL     1       2.054   1.774  18.093  0.00  0.00    +0.000 NA
ATOM     10  N   UNL     1       4.041   0.692  18.042  0.00  0.00    +0.000 N 
ATOM     11  H   UNL     1       5.079   2.684  17.715  0.00  0.00    +0.000 HD
ATOM     12  H   UNL     1       1.657   2.715  18.141  0.00  0.00    +0.000 HD
ATOM     13  H   UNL     1       4.754   0.678  18.761  0.00  0.00    +0.000 HD
ATOM     14  H   UNL     1       3.400  -0.083  18.199  0.00  0.00    +0.000 HD
ENDBRANCH   5   7
BRANCH   6  15
ATOM     15  N   UNL     1       5.272   4.365  15.443  0.00  0.00    +0.000 N 
ATOM     16  C   UNL     1       6.577   4.300  14.992  0.00  0.00    +0.000 C 
ATOM     17  C   UNL     1       6.725   3.758  13.594  0.00  0.00    +0.000 C 
ATOM     18  O   UNL     1       7.546   4.632  15.671  0.00  0.00    +0.000 OA
ATOM     19  H   UNL     1       4.551   4.415  14.730  0.00  0.00    +0.000 HD
ENDBRANCH   6  15
BRANCH   3  20
ATOM     20  C   UNL     1       2.261   6.891  19.720  0.00  0.00    +0.000 C 
ATOM     21  O   UNL     1       1.830   6.327  20.712  0.00  0.00    +0.000 OA
BRANCH  20  22
ATOM     22  O   UNL     1       2.053   8.205  19.486  0.00  0.00    +0.000 OA
ATOM     23  H   UNL     1       1.322   8.607  19.988  0.00  0.00    +0.000 HD
ENDBRANCH  20  22
ENDBRANCH   3  20
BRANCH   1  24
ATOM     24  O   UNL     1       5.988   7.248  16.575  0.00  0.00    +0.000 OA
BRANCH  24  25
ATOM     25  C   UNL     1       6.756   7.636  17.719  0.00  0.00    +0.000 C 
BRANCH  25  27
ATOM     26  C   UNL     1       7.502   5.737  19.260  0.00  0.00    +0.000 C 
ATOM     27  C   UNL     1       7.861   6.626  18.073  0.00  0.00    +0.000 C 
ENDBRANCH  25  27
BRANCH  25  28
ATOM     28  C   UNL     1       7.421   8.998  17.408  0.00  0.00    +0.000 C 
ATOM     29  C   UNL     1       8.572   9.367  18.331  0.00  0.00    +0.000 C 
ENDBRANCH  25  28
ENDBRANCH  24  25
ENDBRANCH   1  24
TORSDOF 8
ENDMDL
MODEL 5
REMARK VINA RESULT:      -7.0      2.116      5.270
REMARK  Name = 
REMARK  11 active torsions:
REMARK  status: ('A' for Active; 'I' for Inactive)
REMARK    1  A    between atoms: C_1  and  C_2
REMARK    2  A    between atoms: C_2  and  C_3
REMARK    3  A    between atoms: C_3  and  C_4
REMARK    4  A    between atoms: C_3  and  O_6
REMARK    5  A    between atoms: C_4  and  C_5
REMARK    6  A    between atoms: O_6  and  C_7
REMARK    7  A    between atoms: C_9  and  C_10
REMARK    8  A    between atoms: C_10  and  O_12
REMARK    9  A    between atoms: C_14  and  N_15
REMARK   10  A    between atoms: C_19  and  N_20
REMARK   11  A    between atoms: C_21  and  C_22
REMARK                            x       y       z     vdW  Elec       q    Type
REMARK                         _______ _______ _______ _____ _____    ______ ____
ROOT
ATOM      1  C   UNL     1       3.496   6.513  18.435  0.00  0.00    +0.000 C 
ATOM      2  C   UNL     1       4.596   6.900  17.412  0.00  0.00    +0.000 C 
ATOM      3  C   UNL     1       5.873   6.111  17.467  0.00  0.00    +0.000 C 
ATOM      4  C   UNL     1       5.933   4.890  18.017  0.00  0.00    +0.000 C 
ATOM      5  C   UNL     1       4.780   4.247  18.716  0.00  0.00    +0.000 C 
ATOM      6  C   UNL     1       3.388   4.963  18.584  0.00  0.00    +0.000 C 
ENDROOT
BRANCH   5   7
ATOM      7  N   UNL     1       4.697   2.881  18.193  0.00  0.00    +0.000 N 
ATOM      8  C   UNL     1       4.612   1.795  18.994  0.00  0.00    +0.000 C 
ATOM      9  N   UNL     1       5.060   1.635  20.181  0.00  0.00    +0.000 NA
ATOM     10  N   UNL     1       3.955   0.782  18.401  0.00  0.00    +0.000 N 
ATOM     11  H   UNL     1       4.070   2.816  17.398  0.00  0.00    +0.000 HD
ATOM     12  H   UNL     1       5.584   2.461  20.476  0.00  0.00    +0.000 HD
ATOM     13  H   UNL     1       4.336   0.547  17.492  0.00  0.00    +0.000 HD
ATOM     14  H   UNL     1       4.014  -0.035  19.004  0.00  0.00    +0.000 HD
ENDBRANCH   5   7
BRANCH   6  15
ATOM     15  N   UNL     1       2.513   4.537  19.698  0.00  0.00    +0.000 N 
ATOM     16  C   UNL     1       1.589   3.520  19.546  0.00  0.00    +0.000 C 
ATOM     17  C   UNL     1       0.725   3.280  20.757  0.00  0.00    +0.000 C 
ATOM     18  O   UNL     1       1.484   2.845  18.524  0.00  0.00    +0.000 OA
ATOM     19  H   UNL     1       2.298   5.241  20.395  0.00  0.00    +0.000 HD
ENDBRANCH   6  15
BRANCH   3  20
ATOM     20  C   UNL     1       7.051   6.730  16.809  0.00  0.00    +0.000 C 
ATOM     21  O   UNL     1       7.504   7.810  17.149  0.00  0.00    +0.000 OA
BRANCH  20  22
ATOM     22  O   UNL     1       7.606   5.987  15.829  0.00  0.00    +0.000 OA
ATOM     23  H   UNL     1       8.186   6.473  15.215  0.00  0.00    +0.000 HD
ENDBRANCH  20  22
ENDBRANCH   3  20
BRANCH   1  24
ATOM     24  O   UNL     1       2.306   7.160  17.913  0.00  0.00    +0.000 OA
BRANCH  24  25
ATOM     25  C   UNL     1       1.595   8.124  18.696  0.00  0.00    +0.000 C 
BRANCH  25  27
ATOM     26  C   UNL     1       0.754   8.131  21.111  0.00  0.00    +0.000 C 
ATOM     27  C   UNL     1       1.968   8.081  20.188  0.00  0.00    +0.000 C 
ENDBRANCH  25  27
BRANCH  25  28
ATOM     28  C   UNL     1       1.936   9.530  18.148  0.00  0.00    +0.000 C 
ATOM     29  C   UNL     1       0.945  10.617  18.532  0.00  0.00    +0.000 C 
ENDBRANCH  25  28
ENDBRANCH  24  25
ENDBRANCH   1  24
TORSDOF 8
ENDMDL
MODEL 6
REMARK VINA RESULT:      -7.0      2.114      5.224
REMARK  Name = 
REMARK  11 active torsions:
REMARK  status: ('A' for Active; 'I' for Inactive)
REMARK    1  A    between atoms: C_1  and  C_2
REMARK    2  A    between atoms: C_2  and  C_3
REMARK    3  A    between atoms: C_3  and  C_4
REMARK    4  A    between atoms: C_3  and  O_6
REMARK    5  A    between atoms: C_4  and  C_5
REMARK    6  A    between atoms: O_6  and  C_7
REMARK    7  A    between atoms: C_9  and  C_10
REMARK    8  A    between atoms: C_10  and  O_12
REMARK    9  A    between atoms: C_14  and  N_15
REMARK   10  A    between atoms: C_19  and  N_20
REMARK   11  A    between atoms: C_21  and  C_22
REMARK                            x       y       z     vdW  Elec       q    Type
REMARK                         _______ _______ _______ _____ _____    ______ ____
ROOT
ATOM      1  C   UNL     1       3.592   6.336  19.177  0.00  0.00    +0.000 C 
ATOM      2  C   UNL     1       4.488   6.823  18.008  0.00  0.00    +0.000 C 
ATOM      3  C   UNL     1       5.745   6.042  17.754  0.00  0.00    +0.000 C 
ATOM      4  C   UNL     1       5.893   4.776  18.170  0.00  0.00    +0.000 C 
ATOM      5  C   UNL     1       4.883   4.063  19.006  0.00  0.00    +0.000 C 
ATOM      6  C   UNL     1       3.498   4.778  19.200  0.00  0.00    +0.000 C 
ENDROOT
BRANCH   5   7
ATOM      7  N   UNL     1       4.692   2.751  18.385  0.00  0.00    +0.000 N 
ATOM      8  C   UNL     1       4.639   1.603  19.098  0.00  0.00    +0.000 C 
ATOM      9  N   UNL     1       5.194   1.327  20.217  0.00  0.00    +0.000 NA
ATOM     10  N   UNL     1       3.885   0.668  18.494  0.00  0.00    +0.000 N 
ATOM     11  H   UNL     1       3.987   2.775  17.654  0.00  0.00    +0.000 HD
ATOM     12  H   UNL     1       5.779   2.107  20.524  0.00  0.00    +0.000 HD
ATOM     13  H   UNL     1       4.165   0.499  17.535  0.00  0.00    +0.000 HD
ATOM     14  H   UNL     1       3.968  -0.200  19.019  0.00  0.00    +0.000 HD
ENDBRANCH   5   7
BRANCH   6  15
ATOM     15  N   UNL     1       2.838   4.245  20.412  0.00  0.00    +0.000 N 
ATOM     16  C   UNL     1       1.857   3.274  20.337  0.00  0.00    +0.000 C 
ATOM     17  C   UNL     1       1.236   2.915  21.661  0.00  0.00    +0.000 C 
ATOM     18  O   UNL     1       1.523   2.727  19.287  0.00  0.00    +0.000 OA
ATOM     19  H   UNL     1       2.796   4.868  21.211  0.00  0.00    +0.000 HD
ENDBRANCH   6  15
BRANCH   3  20
ATOM     20  C   UNL     1       6.788   6.728  16.951  0.00  0.00    +0.000 C 
ATOM     21  O   UNL     1       7.131   7.879  17.159  0.00  0.00    +0.000 OA
BRANCH  20  22
ATOM     22  O   UNL     1       7.357   5.964  15.993  0.00  0.00    +0.000 OA
ATOM     23  H   UNL     1       6.830   5.197  15.704  0.00  0.00    +0.000 HD
ENDBRANCH  20  22
ENDBRANCH   3  20
BRANCH   1  24
ATOM     24  O   UNL     1       2.332   7.020  18.944  0.00  0.00    +0.000 OA
BRANCH  24  25
ATOM     25  C   UNL     1       2.011   8.221  19.653  0.00  0.00    +0.000 C 
BRANCH  25  27
ATOM     26  C   UNL     1       1.861  10.071  17.893  0.00  0.00    +0.000 C 
ATOM     27  C   UNL     1       1.096   9.165  18.854  0.00  0.00    +0.000 C 
ENDBRANCH  25  27
BRANCH  25  28
ATOM     28  C   UNL     1       1.283   7.825  20.959  0.00  0.00    +0.000 C 
ATOM     29  C   UNL     1       0.094   8.704  21.312  0.00  0.00    +0.000 C 
ENDBRANCH  25  28
ENDBRANCH  24  25
ENDBRANCH   1  24
TORSDOF 8
ENDMDL
MODEL 7
REMARK VINA RESULT:      -6.9      1.018      1.776
REMARK  Name = 
REMARK  11 active torsions:
REMARK  status: ('A' for Active; 'I' for Inactive)
REMARK    1  A    between atoms: C_1  and  C_2
REMARK    2  A    between atoms: C_2  and  C_3
REMARK    3  A    between atoms: C_3  and  C_4
REMARK    4  A    between atoms: C_3  and  O_6
REMARK    5  A    between atoms: C_4  and  C_5
REMARK    6  A    between atoms: O_6  and  C_7
REMARK    7  A    between atoms: C_9  and  C_10
REMARK    8  A    between atoms: C_10  and  O_12
REMARK    9  A    between atoms: C_14  and  N_15
REMARK   10  A    between atoms: C_19  and  N_20
REMARK   11  A    between atoms: C_21  and  C_22
REMARK                            x       y       z     vdW  Elec       q    Type
REMARK                         _______ _______ _______ _____ _____    ______ ____
ROOT
ATOM      1  C   UNL     1       4.243   6.249  17.516  0.00  0.00    +0.000 C 
ATOM      2  C   UNL     1       3.727   7.683  17.808  0.00  0.00    +0.000 C 
ATOM      3  C   UNL     1       2.367   7.792  18.437  0.00  0.00    +0.000 C 
ATOM      4  C   UNL     1       1.813   6.777  19.115  0.00  0.00    +0.000 C 
ATOM      5  C   UNL     1       2.433   5.423  19.220  0.00  0.00    +0.000 C 
ATOM      6  C   UNL     1       3.906   5.280  18.692  0.00  0.00    +0.000 C 
ENDROOT
BRANCH   5   7
ATOM      7  N   UNL     1       2.365   5.051  20.634  0.00  0.00    +0.000 N 
ATOM      8  C   UNL     1       1.730   3.940  21.069  0.00  0.00    +0.000 C 
ATOM      9  N   UNL     1       0.732   3.329  20.550  0.00  0.00    +0.000 NA
ATOM     10  N   UNL     1       2.270   3.462  22.205  0.00  0.00    +0.000 N 
ATOM     11  H   UNL     1       3.252   5.190  21.107  0.00  0.00    +0.000 HD
ATOM     12  H   UNL     1       0.394   3.837  19.730  0.00  0.00    +0.000 HD
ATOM     13  H   UNL     1       2.335   4.164  22.932  0.00  0.00    +0.000 HD
ATOM     14  H   UNL     1       1.690   2.695  22.538  0.00  0.00    +0.000 HD
ENDBRANCH   5   7
BRANCH   6  15
ATOM     15  N   UNL     1       4.178   3.860  18.383  0.00  0.00    +0.000 N 
ATOM     16  C   UNL     1       3.272   3.082  17.686  0.00  0.00    +0.000 C 
ATOM     17  C   UNL     1       3.677   1.639  17.540  0.00  0.00    +0.000 C 
ATOM     18  O   UNL     1       2.231   3.522  17.204  0.00  0.00    +0.000 OA
ATOM     19  H   UNL     1       4.793   3.370  19.024  0.00  0.00    +0.000 HD
ENDBRANCH   6  15
BRANCH   3  20
ATOM     20  C   UNL     1       1.703   9.115  18.329  0.00  0.00    +0.000 C 
ATOM     21  O   UNL     1       0.863   9.499  19.125  0.00  0.00    +0.000 OA
BRANCH  20  22
ATOM     22  O   UNL     1       2.128   9.878  17.299  0.00  0.00    +0.000 OA
ATOM     23  H   UNL     1       2.069  10.840  17.442  0.00  0.00    +0.000 HD
ENDBRANCH  20  22
ENDBRANCH   3  20
BRANCH   1  24
ATOM     24  O   UNL     1       5.661   6.444  17.273  0.00  0.00    +0.000 OA
BRANCH  24  25
ATOM     25  C   UNL     1       6.312   5.791  16.179  0.00  0.00    +0.000 C 
BRANCH  25  27
ATOM     26  C   UNL     1       7.750   4.706  17.993  0.00  0.00    +0.000 C 
ATOM     27  C   UNL     1       7.123   4.556  16.610  0.00  0.00    +0.000 C 
ENDBRANCH  25  27
BRANCH  25  28
ATOM     28  C   UNL     1       5.223   5.334  15.180  0.00  0.00    +0.000 C 
ATOM     29  C   UNL     1       5.639   4.191  14.268  0.00  0.00    +0.000 C 
ENDBRANCH  25  28
ENDBRANCH  24  25
ENDBRANCH   1  24
TORSDOF 8
ENDMDL
MODEL 8
REMARK VINA RESULT:      -6.9      1.258      1.567
REMARK  Name = 
REMARK  11 active torsions:
REMARK  status: ('A' for Active; 'I' for Inactive)
REMARK    1  A    between atoms: C_1  and  C_2
REMARK    2  A    between atoms: C_2  and  C_3
REMARK    3  A    between atoms: C_3  and  C_4
REMARK    4  A    between atoms: C_3  and  O_6
REMARK    5  A    between atoms: C_4  and  C_5
REMARK    6  A    between atoms: O_6  and  C_7
REMARK    7  A    between atoms: C_9  and  C_10
REMARK    8  A    between atoms: C_10  and  O_12
REMARK    9  A    between atoms: C_14  and  N_15
REMARK   10  A    between atoms: C_19  and  N_20
REMARK   11  A    between atoms: C_21  and  C_22
REMARK                            x       y       z     vdW  Elec       q    Type
REMARK                         _______ _______ _______ _____ _____    ______ ____
ROOT
ATOM      1  C   UNL     1       4.193   6.197  17.425  0.00  0.00    +0.000 C 
ATOM      2  C   UNL     1       3.732   7.643  17.748  0.00  0.00    +0.000 C 
ATOM      3  C   UNL     1       2.406   7.786  18.439  0.00  0.00    +0.000 C 
ATOM      4  C   UNL     1       1.853   6.782  19.135  0.00  0.00    +0.000 C 
ATOM      5  C   UNL     1       2.438   5.410  19.203  0.00  0.00    +0.000 C 
ATOM      6  C   UNL     1       3.880   5.229  18.609  0.00  0.00    +0.000 C 
ENDROOT
BRANCH   5   7
ATOM      7  N   UNL     1       2.421   5.030  20.616  0.00  0.00    +0.000 N 
ATOM      8  C   UNL     1       1.765   3.940  21.074  0.00  0.00    +0.000 C 
ATOM      9  N   UNL     1       0.721   3.373  20.599  0.00  0.00    +0.000 NA
ATOM     10  N   UNL     1       2.338   3.433  22.180  0.00  0.00    +0.000 N 
ATOM     11  H   UNL     1       3.335   5.130  21.048  0.00  0.00    +0.000 HD
ATOM     12  H   UNL     1       0.364   3.901  19.799  0.00  0.00    +0.000 HD
ATOM     13  H   UNL     1       2.465   4.126  22.908  0.00  0.00    +0.000 HD
ATOM     14  H   UNL     1       1.745   2.687  22.535  0.00  0.00    +0.000 HD
ENDBRANCH   5   7
BRANCH   6  15
ATOM     15  N   UNL     1       4.098   3.804  18.279  0.00  0.00    +0.000 N 
ATOM     16  C   UNL     1       3.084   3.014  17.770  0.00  0.00    +0.000 C 
ATOM     17  C   UNL     1       3.461   1.569  17.576  0.00  0.00    +0.000 C 
ATOM     18  O   UNL     1       1.971   3.446  17.476  0.00  0.00    +0.000 OA
ATOM     19  H   UNL     1       4.820   3.326  18.807  0.00  0.00    +0.000 HD
ENDBRANCH   6  15
BRANCH   3  20
ATOM     20  C   UNL     1       1.776   9.129  18.368  0.00  0.00    +0.000 C 
ATOM     21  O   UNL     1       1.055   9.566  19.249  0.00  0.00    +0.000 OA
BRANCH  20  22
ATOM     22  O   UNL     1       2.093   9.845  17.269  0.00  0.00    +0.000 OA
ATOM     23  H   UNL     1       2.070   9.351  16.429  0.00  0.00    +0.000 HD
ENDBRANCH  20  22
ENDBRANCH   3  20
BRANCH   1  24
ATOM     24  O   UNL     1       5.604   6.354  17.121  0.00  0.00    +0.000 OA
BRANCH  24  25
ATOM     25  C   UNL     1       6.595   5.627  17.855  0.00  0.00    +0.000 C 
BRANCH  25  27
ATOM     26  C   UNL     1       6.717   4.402  15.614  0.00  0.00    +0.000 C 
ATOM     27  C   UNL     1       7.327   4.576  17.002  0.00  0.00    +0.000 C 
ENDBRANCH  25  27
BRANCH  25  28
ATOM     28  C   UNL     1       7.638   6.641  18.380  0.00  0.00    +0.000 C 
ATOM     29  C   UNL     1       7.722   7.934  17.583  0.00  0.00    +0.000 C 
ENDBRANCH  25  28
ENDBRANCH  24  25
ENDBRANCH   1  24
TORSDOF 8
ENDMDL
MODEL 9
REMARK VINA RESULT:      -6.7      0.961      1.885
REMARK  Name = 
REMARK  11 active torsions:
REMARK  status: ('A' for Active; 'I' for Inactive)
REMARK    1  A    between atoms: C_1  and  C_2
REMARK    2  A    between atoms: C_2  and  C_3
REMARK    3  A    between atoms: C_3  and  C_4
REMARK    4  A    between atoms: C_3  and  O_6
REMARK    5  A    between atoms: C_4  and  C_5
REMARK    6  A    between atoms: O_6  and  C_7
REMARK    7  A    between atoms: C_9  and  C_10
REMARK    8  A    between atoms: C_10  and  O_12
REMARK    9  A    between atoms: C_14  and  N_15
REMARK   10  A    between atoms: C_19  and  N_20
REMARK   11  A    between atoms: C_21  and  C_22
REMARK                            x       y       z     vdW  Elec       q    Type
REMARK                         _______ _______ _______ _____ _____    ______ ____
ROOT
ATOM      1  C   UNL     1       4.253   5.277  17.563  0.00  0.00    +0.000 C 
ATOM      2  C   UNL     1       3.971   6.779  17.828  0.00  0.00    +0.000 C 
ATOM      3  C   UNL     1       2.621   7.120  18.390  0.00  0.00    +0.000 C 
ATOM      4  C   UNL     1       1.872   6.219  19.042  0.00  0.00    +0.000 C 
ATOM      5  C   UNL     1       2.251   4.781  19.177  0.00  0.00    +0.000 C 
ATOM      6  C   UNL     1       3.702   4.389  18.723  0.00  0.00    +0.000 C 
ENDROOT
BRANCH   5   7
ATOM      7  N   UNL     1       2.053   4.439  20.587  0.00  0.00    +0.000 N 
ATOM      8  C   UNL     1       1.357   3.351  20.986  0.00  0.00    +0.000 C 
ATOM      9  N   UNL     1       0.393   2.752  20.394  0.00  0.00    +0.000 NA
ATOM     10  N   UNL     1       1.786   2.884  22.172  0.00  0.00    +0.000 N 
ATOM     11  H   UNL     1       2.900   4.567  21.132  0.00  0.00    +0.000 HD
ATOM     12  H   UNL     1       0.138   3.252  19.539  0.00  0.00    +0.000 HD
ATOM     13  H   UNL     1       1.806   3.598  22.890  0.00  0.00    +0.000 HD
ATOM     14  H   UNL     1       1.162   2.137  22.468  0.00  0.00    +0.000 HD
ENDBRANCH   5   7
BRANCH   6  15
ATOM     15  N   UNL     1       3.747   2.940  18.429  0.00  0.00    +0.000 N 
ATOM     16  C   UNL     1       4.217   2.026  19.353  0.00  0.00    +0.000 C 
ATOM     17  C   UNL     1       4.271   0.607  18.851  0.00  0.00    +0.000 C 
ATOM     18  O   UNL     1       4.545   2.328  20.499  0.00  0.00    +0.000 OA
ATOM     19  H   UNL     1       3.841   2.682  17.452  0.00  0.00    +0.000 HD
ENDBRANCH   6  15
BRANCH   3  20
ATOM     20  C   UNL     1       2.194   8.535  18.249  0.00  0.00    +0.000 C 
ATOM     21  O   UNL     1       2.399   9.188  17.239  0.00  0.00    +0.000 OA
BRANCH  20  22
ATOM     22  O   UNL     1       1.527   9.033  19.312  0.00  0.00    +0.000 OA
ATOM     23  H   UNL     1       0.557   9.042  19.228  0.00  0.00    +0.000 HD
ENDBRANCH  20  22
ENDBRANCH   3  20
BRANCH   1  24
ATOM     24  O   UNL     1       5.694   5.229  17.391  0.00  0.00    +0.000 OA
BRANCH  24  25
ATOM     25  C   UNL     1       6.343   6.068  16.429  0.00  0.00    +0.000 C 
BRANCH  25  27
ATOM     26  C   UNL     1       7.791   6.572  18.475  0.00  0.00    +0.000 C 
ATOM     27  C   UNL     1       7.423   6.972  17.050  0.00  0.00    +0.000 C 
ENDBRANCH  25  27
BRANCH  25  28
ATOM     28  C   UNL     1       7.016   5.155  15.377  0.00  0.00    +0.000 C 
ATOM     29  C   UNL     1       6.055   4.512  14.390  0.00  0.00    +0.000 C 
ENDBRANCH  25  28
ENDBRANCH  24  25
ENDBRANCH   1  24
TORSDOF 8
ENDMDL
