MODEL 1
REMARK VINA RESULT:      -9.6      0.000      0.000
REMARK  Name = 
REMARK  8 active torsions:
REMARK  status: ('A' for Active; 'I' for Inactive)
REMARK    1  A    between atoms: C_2  and  C_3
REMARK    2  A    between atoms: C_7  and  C_8
REMARK    3  A    between atoms: N_10  and  C_11
REMARK    4  A    between atoms: C_11  and  C_12
REMARK    5  A    between atoms: C_14  and  C_15
REMARK    6  A    between atoms: C_20  and  N_21
REMARK    7  A    between atoms: C_22  and  C_24
REMARK    8  A    between atoms: C_30  and  C_31
REMARK                            x       y       z     vdW  Elec       q    Type
REMARK                         _______ _______ _______ _____ _____    ______ ____
ROOT
ATOM      1  C   UNL     1       2.221   8.303  18.567  0.00  0.00    +0.000 A 
ATOM      2  N   UNL     1       2.970   8.000  17.435  0.00  0.00    +0.000 NA
ATOM      3  C   UNL     1       3.388   6.762  17.647  0.00  0.00    +0.000 A 
ATOM      4  O   UNL     1       2.924   6.219  18.818  0.00  0.00    +0.000 OA
ATOM      5  C   UNL     1       2.203   7.212  19.409  0.00  0.00    +0.000 A 
ATOM      6  C   UNL     1       1.681   6.933  20.760  0.00  0.00    +0.000 C 
ENDROOT
BRANCH   3   7
ATOM      7  C   UNL     1       4.352   5.939  16.907  0.00  0.00    +0.000 A 
ATOM      8  C   UNL     1       5.201   6.573  15.968  0.00  0.00    +0.000 A 
ATOM      9  C   UNL     1       6.083   5.849  15.167  0.00  0.00    +0.000 A 
ATOM     10  C   UNL     1       6.125   4.469  15.278  0.00  0.00    +0.000 A 
ATOM     11  C   UNL     1       5.314   3.824  16.212  0.00  0.00    +0.000 A 
ATOM     12  C   UNL     1       4.445   4.537  17.057  0.00  0.00    +0.000 A 
BRANCH  12  13
ATOM     13  N   UNL     1       3.661   3.855  18.024  0.00  0.00    +0.000 N 
ATOM     14  C   UNL     1       4.129   3.210  19.158  0.00  0.00    +0.000 C 
ATOM     15  O   UNL     1       5.296   3.174  19.547  0.00  0.00    +0.000 OA
ATOM     16  H   UNL     1       2.644   3.948  17.952  0.00  0.00    +0.000 HD
BRANCH  14  17
ATOM     17  C   UNL     1       3.039   2.483  19.958  0.00  0.00    +0.000 C 
ATOM     18  C   UNL     1       1.671   3.041  19.577  0.00  0.00    +0.000 C 
ATOM     19  C   UNL     1       0.936   3.113  20.890  0.00  0.00    +0.000 C 
ATOM     20  C   UNL     1       2.055   3.343  21.876  0.00  0.00    +0.000 C 
ATOM     21  O   UNL     1       3.179   2.609  21.380  0.00  0.00    +0.000 OA
ENDBRANCH  14  17
ENDBRANCH  12  13
ENDBRANCH   3   7
BRANCH   1  22
ATOM     22  C   UNL     1       1.676   9.667  18.798  0.00  0.00    +0.000 C 
BRANCH  22  25
ATOM     23  C   UNL     1      -0.710  10.281  18.780  0.00  0.00    +0.000 C 
ATOM     24  O   UNL     1      -0.747  10.481  19.990  0.00  0.00    +0.000 OA
ATOM     25  N   UNL     1       0.412   9.840  18.117  0.00  0.00    +0.000 N 
ATOM     26  H   UNL     1       0.341   9.488  17.172  0.00  0.00    +0.000 HD
BRANCH  23  31
ATOM     27  C   UNL     1      -3.113  10.415  15.844  0.00  0.00    +0.000 A 
ATOM     28  C   UNL     1      -4.181  11.114  16.414  0.00  0.00    +0.000 A 
ATOM     29  C   UNL     1      -4.120  11.519  17.748  0.00  0.00    +0.000 A 
ATOM     30  C   UNL     1      -2.988  11.232  18.514  0.00  0.00    +0.000 A 
ATOM     31  C   UNL     1      -1.921  10.518  17.952  0.00  0.00    +0.000 A 
ATOM     32  C   UNL     1      -1.982  10.113  16.611  0.00  0.00    +0.000 A 
BRANCH  27  34
ATOM     33  C   UNL     1      -3.216   9.714  13.305  0.00  0.00    +0.000 C 
ATOM     34  C   UNL     1      -3.165  10.032  14.463  0.00  0.00    +0.000 C 
ENDBRANCH  27  34
ENDBRANCH  23  31
ENDBRANCH  22  25
ENDBRANCH   1  22
TORSDOF 7
ENDMDL
MODEL 2
REMARK VINA RESULT:      -9.6      1.515      3.947
REMARK  Name = 
REMARK  8 active torsions:
REMARK  status: ('A' for Active; 'I' for Inactive)
REMARK    1  A    between atoms: C_2  and  C_3
REMARK    2  A    between atoms: C_7  and  C_8
REMARK    3  A    between atoms: N_10  and  C_11
REMARK    4  A    between atoms: C_11  and  C_12
REMARK    5  A    between atoms: C_14  and  C_15
REMARK    6  A    between atoms: C_20  and  N_21
REMARK    7  A    between atoms: C_22  and  C_24
REMARK    8  A    between atoms: C_30  and  C_31
REMARK                            x       y       z     vdW  Elec       q    Type
REMARK                         _______ _______ _______ _____ _____    ______ ____
ROOT
ATOM      1  C   UNL     1       1.508   8.351  20.112  0.00  0.00    +0.000 A 
ATOM      2  N   UNL     1       1.609   7.208  20.896  0.00  0.00    +0.000 NA
ATOM      3  C   UNL     1       2.213   6.330  20.111  0.00  0.00    +0.000 A 
ATOM      4  O   UNL     1       2.557   6.836  18.884  0.00  0.00    +0.000 OA
ATOM      5  C   UNL     1       2.084   8.113  18.881  0.00  0.00    +0.000 A 
ATOM      6  C   UNL     1       2.213   8.863  17.618  0.00  0.00    +0.000 C 
ENDROOT
BRANCH   3   7
ATOM      7  C   UNL     1       2.456   4.893  20.293  0.00  0.00    +0.000 A 
ATOM      8  C   UNL     1       1.657   4.185  21.221  0.00  0.00    +0.000 A 
ATOM      9  C   UNL     1       1.882   2.840  21.510  0.00  0.00    +0.000 A 
ATOM     10  C   UNL     1       2.923   2.176  20.886  0.00  0.00    +0.000 A 
ATOM     11  C   UNL     1       3.710   2.847  19.950  0.00  0.00    +0.000 A 
ATOM     12  C   UNL     1       3.478   4.193  19.614  0.00  0.00    +0.000 A 
BRANCH  12  13
ATOM     13  N   UNL     1       4.272   4.837  18.629  0.00  0.00    +0.000 N 
ATOM     14  C   UNL     1       5.591   5.238  18.768  0.00  0.00    +0.000 C 
ATOM     15  O   UNL     1       6.312   5.046  19.747  0.00  0.00    +0.000 OA
ATOM     16  H   UNL     1       3.883   4.905  17.685  0.00  0.00    +0.000 HD
BRANCH  14  17
ATOM     17  C   UNL     1       6.146   5.995  17.553  0.00  0.00    +0.000 C 
ATOM     18  C   UNL     1       5.081   6.052  16.461  0.00  0.00    +0.000 C 
ATOM     19  C   UNL     1       5.859   5.822  15.192  0.00  0.00    +0.000 C 
ATOM     20  C   UNL     1       7.000   4.954  15.663  0.00  0.00    +0.000 C 
ATOM     21  O   UNL     1       7.321   5.401  16.984  0.00  0.00    +0.000 OA
ENDBRANCH  14  17
ENDBRANCH  12  13
ENDBRANCH   3   7
BRANCH   1  22
ATOM     22  C   UNL     1       0.759   9.550  20.573  0.00  0.00    +0.000 C 
BRANCH  22  25
ATOM     23  C   UNL     1      -0.631  10.831  18.995  0.00  0.00    +0.000 C 
ATOM     24  O   UNL     1       0.165  11.762  18.929  0.00  0.00    +0.000 OA
ATOM     25  N   UNL     1      -0.450   9.732  19.802  0.00  0.00    +0.000 N 
ATOM     26  H   UNL     1      -1.218   9.101  19.985  0.00  0.00    +0.000 HD
BRANCH  23  31
ATOM     27  C   UNL     1      -3.041  10.524  16.076  0.00  0.00    +0.000 A 
ATOM     28  C   UNL     1      -4.205  11.052  16.644  0.00  0.00    +0.000 A 
ATOM     29  C   UNL     1      -4.202  11.484  17.971  0.00  0.00    +0.000 A 
ATOM     30  C   UNL     1      -3.034  11.397  18.732  0.00  0.00    +0.000 A 
ATOM     31  C   UNL     1      -1.870  10.855  18.172  0.00  0.00    +0.000 A 
ATOM     32  C   UNL     1      -1.872  10.423  16.839  0.00  0.00    +0.000 A 
BRANCH  27  34
ATOM     33  C   UNL     1      -3.044   9.769  13.552  0.00  0.00    +0.000 C 
ATOM     34  C   UNL     1      -3.039  10.115  14.702  0.00  0.00    +0.000 C 
ENDBRANCH  27  34
ENDBRANCH  23  31
ENDBRANCH  22  25
ENDBRANCH   1  22
TORSDOF 7
ENDMDL
MODEL 3
REMARK VINA RESULT:      -9.6      1.030      1.157
REMARK  Name = 
REMARK  8 active torsions:
REMARK  status: ('A' for Active; 'I' for Inactive)
REMARK    1  A    between atoms: C_2  and  C_3
REMARK    2  A    between atoms: C_7  and  C_8
REMARK    3  A    between atoms: N_10  and  C_11
REMARK    4  A    between atoms: C_11  and  C_12
REMARK    5  A    between atoms: C_14  and  C_15
REMARK    6  A    between atoms: C_20  and  N_21
REMARK    7  A    between atoms: C_22  and  C_24
REMARK    8  A    between atoms: C_30  and  C_31
REMARK                            x       y       z     vdW  Elec       q    Type
REMARK                         _______ _______ _______ _____ _____    ______ ____
ROOT
ATOM      1  C   UNL     1       2.108   8.864  18.444  0.00  0.00    +0.000 A 
ATOM      2  N   UNL     1       2.837   8.381  17.363  0.00  0.00    +0.000 NA
ATOM      3  C   UNL     1       3.251   7.189  17.759  0.00  0.00    +0.000 A 
ATOM      4  O   UNL     1       2.803   6.838  19.006  0.00  0.00    +0.000 OA
ATOM      5  C   UNL     1       2.098   7.917  19.447  0.00  0.00    +0.000 A 
ATOM      6  C   UNL     1       1.596   7.857  20.832  0.00  0.00    +0.000 C 
ENDROOT
BRANCH   3   7
ATOM      7  C   UNL     1       4.199   6.252  17.141  0.00  0.00    +0.000 A 
ATOM      8  C   UNL     1       5.160   6.762  16.236  0.00  0.00    +0.000 A 
ATOM      9  C   UNL     1       6.037   5.927  15.547  0.00  0.00    +0.000 A 
ATOM     10  C   UNL     1       5.963   4.557  15.737  0.00  0.00    +0.000 A 
ATOM     11  C   UNL     1       5.039   4.033  16.641  0.00  0.00    +0.000 A 
ATOM     12  C   UNL     1       4.170   4.859  17.377  0.00  0.00    +0.000 A 
BRANCH  12  13
ATOM     13  N   UNL     1       3.267   4.298  18.318  0.00  0.00    +0.000 N 
ATOM     14  C   UNL     1       2.188   3.476  18.035  0.00  0.00    +0.000 C 
ATOM     15  O   UNL     1       1.871   3.044  16.926  0.00  0.00    +0.000 OA
ATOM     16  H   UNL     1       3.498   4.405  19.309  0.00  0.00    +0.000 HD
BRANCH  14  17
ATOM     17  C   UNL     1       1.343   3.109  19.263  0.00  0.00    +0.000 C 
ATOM     18  C   UNL     1       1.365   4.264  20.258  0.00  0.00    +0.000 C 
ATOM     19  C   UNL     1       1.476   3.582  21.596  0.00  0.00    +0.000 C 
ATOM     20  C   UNL     1       2.235   2.322  21.255  0.00  0.00    +0.000 C 
ATOM     21  O   UNL     1       1.795   1.934  19.950  0.00  0.00    +0.000 OA
ENDBRANCH  14  17
ENDBRANCH  12  13
ENDBRANCH   3   7
BRANCH   1  22
ATOM     22  C   UNL     1       1.575  10.251  18.468  0.00  0.00    +0.000 C 
BRANCH  22  25
ATOM     23  C   UNL     1      -0.849  10.671  18.597  0.00  0.00    +0.000 C 
ATOM     24  O   UNL     1      -0.826  10.890  19.803  0.00  0.00    +0.000 OA
ATOM     25  N   UNL     1       0.260  10.310  17.869  0.00  0.00    +0.000 N 
ATOM     26  H   UNL     1       0.158   9.936  16.935  0.00  0.00    +0.000 HD
BRANCH  23  31
ATOM     27  C   UNL     1      -3.435  10.562  15.819  0.00  0.00    +0.000 A 
ATOM     28  C   UNL     1      -4.520  11.178  16.450  0.00  0.00    +0.000 A 
ATOM     29  C   UNL     1      -4.409  11.606  17.774  0.00  0.00    +0.000 A 
ATOM     30  C   UNL     1      -3.211  11.425  18.468  0.00  0.00    +0.000 A 
ATOM     31  C   UNL     1      -2.126  10.794  17.845  0.00  0.00    +0.000 A 
ATOM     32  C   UNL     1      -2.237  10.367  16.515  0.00  0.00    +0.000 A 
BRANCH  27  34
ATOM     33  C   UNL     1      -3.638   9.812  13.301  0.00  0.00    +0.000 C 
ATOM     34  C   UNL     1      -3.543  10.156  14.448  0.00  0.00    +0.000 C 
ENDBRANCH  27  34
ENDBRANCH  23  31
ENDBRANCH  22  25
ENDBRANCH   1  22
TORSDOF 7
ENDMDL
MODEL 4
REMARK VINA RESULT:      -9.5      2.712      3.845
REMARK  Name = 
REMARK  8 active torsions:
REMARK  status: ('A' for Active; 'I' for Inactive)
REMARK    1  A    between atoms: C_2  and  C_3
REMARK    2  A    between atoms: C_7  and  C_8
REMARK    3  A    between atoms: N_10  and  C_11
REMARK    4  A    between atoms: C_11  and  C_12
REMARK    5  A    between atoms: C_14  and  C_15
REMARK    6  A    between atoms: C_20  and  N_21
REMARK    7  A    between atoms: C_22  and  C_24
REMARK    8  A    between atoms: C_30  and  C_31
REMARK                            x       y       z     vdW  Elec       q    Type
REMARK                         _______ _______ _______ _____ _____    ______ ____
ROOT
ATOM      1  C   UNL     1       2.260   7.480  19.559  0.00  0.00    +0.000 A 
ATOM      2  N   UNL     1       3.175   6.477  19.259  0.00  0.00    +0.000 NA
ATOM      3  C   UNL     1       3.522   6.722  18.006  0.00  0.00    +0.000 A 
ATOM      4  O   UNL     1       2.933   7.844  17.482  0.00  0.00    +0.000 OA
ATOM      5  C   UNL     1       2.113   8.307  18.465  0.00  0.00    +0.000 A 
ATOM      6  C   UNL     1       1.254   9.455  18.123  0.00  0.00    +0.000 C 
ENDROOT
BRANCH   3   7
ATOM      7  C   UNL     1       4.323   5.929  17.064  0.00  0.00    +0.000 A 
ATOM      8  C   UNL     1       5.097   6.611  16.096  0.00  0.00    +0.000 A 
ATOM      9  C   UNL     1       5.816   5.929  15.115  0.00  0.00    +0.000 A 
ATOM     10  C   UNL     1       5.765   4.546  15.073  0.00  0.00    +0.000 A 
ATOM     11  C   UNL     1       5.027   3.851  16.032  0.00  0.00    +0.000 A 
ATOM     12  C   UNL     1       4.325   4.516  17.053  0.00  0.00    +0.000 A 
BRANCH  12  13
ATOM     13  N   UNL     1       3.614   3.780  18.036  0.00  0.00    +0.000 N 
ATOM     14  C   UNL     1       4.145   3.210  19.182  0.00  0.00    +0.000 C 
ATOM     15  O   UNL     1       5.310   3.301  19.569  0.00  0.00    +0.000 OA
ATOM     16  H   UNL     1       2.593   3.767  17.964  0.00  0.00    +0.000 HD
BRANCH  14  17
ATOM     17  C   UNL     1       3.135   2.393  20.000  0.00  0.00    +0.000 C 
ATOM     18  C   UNL     1       1.719   2.834  19.644  0.00  0.00    +0.000 C 
ATOM     19  C   UNL     1       1.003   2.843  20.969  0.00  0.00    +0.000 C 
ATOM     20  C   UNL     1       2.116   3.167  21.936  0.00  0.00    +0.000 C 
ATOM     21  O   UNL     1       3.289   2.530  21.420  0.00  0.00    +0.000 OA
ENDBRANCH  14  17
ENDBRANCH  12  13
ENDBRANCH   3   7
BRANCH   1  22
ATOM     22  C   UNL     1       1.511   7.493  20.843  0.00  0.00    +0.000 C 
BRANCH  22  25
ATOM     23  C   UNL     1       0.791   9.571  21.952  0.00  0.00    +0.000 C 
ATOM     24  O   UNL     1       1.569   9.432  22.889  0.00  0.00    +0.000 OA
ATOM     25  N   UNL     1       0.659   8.657  20.932  0.00  0.00    +0.000 N 
ATOM     26  H   UNL     1      -0.133   8.704  20.305  0.00  0.00    +0.000 HD
BRANCH  23  31
ATOM     27  C   UNL     1      -1.959  12.099  22.639  0.00  0.00    +0.000 A 
ATOM     28  C   UNL     1      -1.742  13.007  21.599  0.00  0.00    +0.000 A 
ATOM     29  C   UNL     1      -0.696  12.802  20.697  0.00  0.00    +0.000 A 
ATOM     30  C   UNL     1       0.130  11.685  20.829  0.00  0.00    +0.000 A 
ATOM     31  C   UNL     1      -0.073  10.779  21.878  0.00  0.00    +0.000 A 
ATOM     32  C   UNL     1      -1.124  10.984  22.782  0.00  0.00    +0.000 A 
BRANCH  27  34
ATOM     33  C   UNL     1      -3.979  12.454  24.294  0.00  0.00    +0.000 C 
ATOM     34  C   UNL     1      -3.056  12.294  23.542  0.00  0.00    +0.000 C 
ENDBRANCH  27  34
ENDBRANCH  23  31
ENDBRANCH  22  25
ENDBRANCH   1  22
TORSDOF 7
ENDMDL
MODEL 5
REMARK VINA RESULT:      -9.4      0.597      1.598
REMARK  Name = 
REMARK  8 active torsions:
REMARK  status: ('A' for Active; 'I' for Inactive)
REMARK    1  A    between atoms: C_2  and  C_3
REMARK    2  A    between atoms: C_7  and  C_8
REMARK    3  A    between atoms: N_10  and  C_11
REMARK    4  A    between atoms: C_11  and  C_12
REMARK    5  A    between atoms: C_14  and  C_15
REMARK    6  A    between atoms: C_20  and  N_21
REMARK    7  A    between atoms: C_22  and  C_24
REMARK    8  A    between atoms: C_30  and  C_31
REMARK                            x       y       z     vdW  Elec       q    Type
REMARK                         _______ _______ _______ _____ _____    ______ ____
ROOT
ATOM      1  C   UNL     1       2.197   8.300  18.445  0.00  0.00    +0.000 A 
ATOM      2  N   UNL     1       2.927   7.972  17.308  0.00  0.00    +0.000 NA
ATOM      3  C   UNL     1       3.417   6.772  17.575  0.00  0.00    +0.000 A 
ATOM      4  O   UNL     1       3.017   6.273  18.788  0.00  0.00    +0.000 OA
ATOM      5  C   UNL     1       2.262   7.259  19.346  0.00  0.00    +0.000 A 
ATOM      6  C   UNL     1       1.795   7.032  20.726  0.00  0.00    +0.000 C 
ENDROOT
BRANCH   3   7
ATOM      7  C   UNL     1       4.403   5.959  16.851  0.00  0.00    +0.000 A 
ATOM      8  C   UNL     1       5.283   6.607  15.953  0.00  0.00    +0.000 A 
ATOM      9  C   UNL     1       6.188   5.894  15.167  0.00  0.00    +0.000 A 
ATOM     10  C   UNL     1       6.222   4.513  15.253  0.00  0.00    +0.000 A 
ATOM     11  C   UNL     1       5.379   3.854  16.148  0.00  0.00    +0.000 A 
ATOM     12  C   UNL     1       4.485   4.554  16.978  0.00  0.00    +0.000 A 
BRANCH  12  13
ATOM     13  N   UNL     1       3.668   3.857  17.906  0.00  0.00    +0.000 N 
ATOM     14  C   UNL     1       4.080   3.281  19.097  0.00  0.00    +0.000 C 
ATOM     15  O   UNL     1       5.212   3.333  19.578  0.00  0.00    +0.000 OA
ATOM     16  H   UNL     1       2.656   3.883  17.750  0.00  0.00    +0.000 HD
BRANCH  14  17
ATOM     17  C   UNL     1       2.975   2.515  19.836  0.00  0.00    +0.000 C 
ATOM     18  C   UNL     1       1.617   3.113  19.481  0.00  0.00    +0.000 C 
ATOM     19  C   UNL     1       0.870   3.105  20.789  0.00  0.00    +0.000 C 
ATOM     20  C   UNL     1       1.982   3.254  21.799  0.00  0.00    +0.000 C 
ATOM     21  O   UNL     1       3.103   2.543  21.265  0.00  0.00    +0.000 OA
ENDBRANCH  14  17
ENDBRANCH  12  13
ENDBRANCH   3   7
BRANCH   1  22
ATOM     22  C   UNL     1       1.586   9.645  18.617  0.00  0.00    +0.000 C 
BRANCH  22  25
ATOM     23  C   UNL     1      -0.745  10.407  18.388  0.00  0.00    +0.000 C 
ATOM     24  O   UNL     1      -0.784  10.878  19.520  0.00  0.00    +0.000 OA
ATOM     25  N   UNL     1       0.349   9.749  17.876  0.00  0.00    +0.000 N 
ATOM     26  H   UNL     1       0.264   9.198  17.033  0.00  0.00    +0.000 HD
BRANCH  23  31
ATOM     27  C   UNL     1      -4.149  11.363  17.004  0.00  0.00    +0.000 A 
ATOM     28  C   UNL     1      -4.162  10.627  15.815  0.00  0.00    +0.000 A 
ATOM     29  C   UNL     1      -3.062   9.843  15.466  0.00  0.00    +0.000 A 
ATOM     30  C   UNL     1      -1.948   9.788  16.306  0.00  0.00    +0.000 A 
ATOM     31  C   UNL     1      -1.924  10.536  17.491  0.00  0.00    +0.000 A 
ATOM     32  C   UNL     1      -3.030  11.321  17.843  0.00  0.00    +0.000 A 
BRANCH  27  34
ATOM     33  C   UNL     1      -6.254  12.790  17.695  0.00  0.00    +0.000 C 
ATOM     34  C   UNL     1      -5.296  12.139  17.377  0.00  0.00    +0.000 C 
ENDBRANCH  27  34
ENDBRANCH  23  31
ENDBRANCH  22  25
ENDBRANCH   1  22
TORSDOF 7
ENDMDL
MODEL 6
REMARK VINA RESULT:      -9.3      1.978      3.899
REMARK  Name = 
REMARK  8 active torsions:
REMARK  status: ('A' for Active; 'I' for Inactive)
REMARK    1  A    between atoms: C_2  and  C_3
REMARK    2  A    between atoms: C_7  and  C_8
REMARK    3  A    between atoms: N_10  and  C_11
REMARK    4  A    between atoms: C_11  and  C_12
REMARK    5  A    between atoms: C_14  and  C_15
REMARK    6  A    between atoms: C_20  and  N_21
REMARK    7  A    between atoms: C_22  and  C_24
REMARK    8  A    between atoms: C_30  and  C_31
REMARK                            x       y       z     vdW  Elec       q    Type
REMARK                         _______ _______ _______ _____ _____    ______ ____
ROOT
ATOM      1  C   UNL     1       2.173   7.521  19.824  0.00  0.00    +0.000 A 
ATOM      2  N   UNL     1       2.154   6.188  20.221  0.00  0.00    +0.000 NA
ATOM      3  C   UNL     1       2.596   5.530  19.161  0.00  0.00    +0.000 A 
ATOM      4  O   UNL     1       2.948   6.344  18.116  0.00  0.00    +0.000 OA
ATOM      5  C   UNL     1       2.653   7.606  18.534  0.00  0.00    +0.000 A 
ATOM      6  C   UNL     1       2.825   8.686  17.545  0.00  0.00    +0.000 C 
ENDROOT
BRANCH   3   7
ATOM      7  C   UNL     1       2.649   4.088  18.886  0.00  0.00    +0.000 A 
ATOM      8  C   UNL     1       1.456   3.335  18.995  0.00  0.00    +0.000 A 
ATOM      9  C   UNL     1       1.443   1.951  18.832  0.00  0.00    +0.000 A 
ATOM     10  C   UNL     1       2.628   1.286  18.569  0.00  0.00    +0.000 A 
ATOM     11  C   UNL     1       3.813   2.010  18.434  0.00  0.00    +0.000 A 
ATOM     12  C   UNL     1       3.844   3.410  18.557  0.00  0.00    +0.000 A 
BRANCH  12  13
ATOM     13  N   UNL     1       5.059   4.122  18.376  0.00  0.00    +0.000 N 
ATOM     14  C   UNL     1       5.693   4.377  17.170  0.00  0.00    +0.000 C 
ATOM     15  O   UNL     1       5.275   4.083  16.051  0.00  0.00    +0.000 OA
ATOM     16  H   UNL     1       5.447   4.601  19.193  0.00  0.00    +0.000 HD
BRANCH  14  17
ATOM     17  C   UNL     1       7.044   5.091  17.313  0.00  0.00    +0.000 C 
ATOM     18  C   UNL     1       7.215   5.573  18.751  0.00  0.00    +0.000 C 
ATOM     19  C   UNL     1       7.843   6.933  18.600  0.00  0.00    +0.000 C 
ATOM     20  C   UNL     1       7.295   7.398  17.273  0.00  0.00    +0.000 C 
ATOM     21  O   UNL     1       7.195   6.229  16.453  0.00  0.00    +0.000 OA
ENDBRANCH  14  17
ENDBRANCH  12  13
ENDBRANCH   3   7
BRANCH   1  22
ATOM     22  C   UNL     1       1.616   8.598  20.683  0.00  0.00    +0.000 C 
BRANCH  22  25
ATOM     23  C   UNL     1       0.304  10.373  19.590  0.00  0.00    +0.000 C 
ATOM     24  O   UNL     1       1.233  11.174  19.601  0.00  0.00    +0.000 OA
ATOM     25  N   UNL     1       0.382   9.112  20.133  0.00  0.00    +0.000 N 
ATOM     26  H   UNL     1      -0.458   8.572  20.291  0.00  0.00    +0.000 HD
BRANCH  23  31
ATOM     27  C   UNL     1      -2.519  10.772  17.082  0.00  0.00    +0.000 A 
ATOM     28  C   UNL     1      -3.387  11.602  17.798  0.00  0.00    +0.000 A 
ATOM     29  C   UNL     1      -3.057  12.010  19.092  0.00  0.00    +0.000 A 
ATOM     30  C   UNL     1      -1.857  11.593  19.670  0.00  0.00    +0.000 A 
ATOM     31  C   UNL     1      -0.991  10.749  18.963  0.00  0.00    +0.000 A 
ATOM     32  C   UNL     1      -1.320  10.342  17.663  0.00  0.00    +0.000 A 
BRANCH  27  34
ATOM     33  C   UNL     1      -3.124  10.057  14.619  0.00  0.00    +0.000 C 
ATOM     34  C   UNL     1      -2.845  10.385  15.740  0.00  0.00    +0.000 C 
ENDBRANCH  27  34
ENDBRANCH  23  31
ENDBRANCH  22  25
ENDBRANCH   1  22
TORSDOF 7
ENDMDL
MODEL 7
REMARK VINA RESULT:      -9.2      2.828      3.467
REMARK  Name = 
REMARK  8 active torsions:
REMARK  status: ('A' for Active; 'I' for Inactive)
REMARK    1  A    between atoms: C_2  and  C_3
REMARK    2  A    between atoms: C_7  and  C_8
REMARK    3  A    between atoms: N_10  and  C_11
REMARK    4  A    between atoms: C_11  and  C_12
REMARK    5  A    between atoms: C_14  and  C_15
REMARK    6  A    between atoms: C_20  and  N_21
REMARK    7  A    between atoms: C_22  and  C_24
REMARK    8  A    between atoms: C_30  and  C_31
REMARK                            x       y       z     vdW  Elec       q    Type
REMARK                         _______ _______ _______ _____ _____    ______ ____
ROOT
ATOM      1  C   UNL     1       2.374   7.274  19.509  0.00  0.00    +0.000 A 
ATOM      2  N   UNL     1       3.288   6.270  19.210  0.00  0.00    +0.000 NA
ATOM      3  C   UNL     1       3.671   6.540  17.972  0.00  0.00    +0.000 A 
ATOM      4  O   UNL     1       3.106   7.679  17.459  0.00  0.00    +0.000 OA
ATOM      5  C   UNL     1       2.265   8.127  18.431  0.00  0.00    +0.000 A 
ATOM      6  C   UNL     1       1.426   9.292  18.092  0.00  0.00    +0.000 C 
ENDROOT
BRANCH   3   7
ATOM      7  C   UNL     1       4.489   5.761  17.034  0.00  0.00    +0.000 A 
ATOM      8  C   UNL     1       5.167   6.447  15.999  0.00  0.00    +0.000 A 
ATOM      9  C   UNL     1       5.894   5.771  15.021  0.00  0.00    +0.000 A 
ATOM     10  C   UNL     1       5.947   4.387  15.048  0.00  0.00    +0.000 A 
ATOM     11  C   UNL     1       5.305   3.690  16.072  0.00  0.00    +0.000 A 
ATOM     12  C   UNL     1       4.598   4.353  17.091  0.00  0.00    +0.000 A 
BRANCH  12  13
ATOM     13  N   UNL     1       3.988   3.618  18.141  0.00  0.00    +0.000 N 
ATOM     14  C   UNL     1       2.795   2.915  18.069  0.00  0.00    +0.000 C 
ATOM     15  O   UNL     1       2.099   2.761  17.065  0.00  0.00    +0.000 OA
ATOM     16  H   UNL     1       4.532   3.486  18.998  0.00  0.00    +0.000 HD
BRANCH  14  17
ATOM     17  C   UNL     1       2.351   2.300  19.403  0.00  0.00    +0.000 C 
ATOM     18  C   UNL     1       0.994   2.874  19.801  0.00  0.00    +0.000 C 
ATOM     19  C   UNL     1       1.116   3.085  21.287  0.00  0.00    +0.000 C 
ATOM     20  C   UNL     1       2.592   3.356  21.455  0.00  0.00    +0.000 C 
ATOM     21  O   UNL     1       3.259   2.541  20.487  0.00  0.00    +0.000 OA
ENDBRANCH  14  17
ENDBRANCH  12  13
ENDBRANCH   3   7
BRANCH   1  22
ATOM     22  C   UNL     1       1.591   7.265  20.773  0.00  0.00    +0.000 C 
BRANCH  22  25
ATOM     23  C   UNL     1       0.939   9.376  21.863  0.00  0.00    +0.000 C 
ATOM     24  O   UNL     1       1.755   9.249  22.770  0.00  0.00    +0.000 OA
ATOM     25  N   UNL     1       0.756   8.441  20.871  0.00  0.00    +0.000 N 
ATOM     26  H   UNL     1      -0.061   8.482  20.276  0.00  0.00    +0.000 HD
BRANCH  23  31
ATOM     27  C   UNL     1      -0.547  12.697  20.778  0.00  0.00    +0.000 A 
ATOM     28  C   UNL     1      -1.463  12.921  21.810  0.00  0.00    +0.000 A 
ATOM     29  C   UNL     1      -1.604  11.986  22.836  0.00  0.00    +0.000 A 
ATOM     30  C   UNL     1      -0.824  10.828  22.837  0.00  0.00    +0.000 A 
ATOM     31  C   UNL     1       0.085  10.591  21.798  0.00  0.00    +0.000 A 
ATOM     32  C   UNL     1       0.228  11.532  20.769  0.00  0.00    +0.000 A 
BRANCH  27  34
ATOM     33  C   UNL     1      -0.238  14.504  18.885  0.00  0.00    +0.000 C 
ATOM     34  C   UNL     1      -0.380  13.678  19.745  0.00  0.00    +0.000 C 
ENDBRANCH  27  34
ENDBRANCH  23  31
ENDBRANCH  22  25
ENDBRANCH   1  22
TORSDOF 7
ENDMDL
MODEL 8
REMARK VINA RESULT:      -9.2      2.690      3.347
REMARK  Name = 
REMARK  8 active torsions:
REMARK  status: ('A' for Active; 'I' for Inactive)
REMARK    1  A    between atoms: C_2  and  C_3
REMARK    2  A    between atoms: C_7  and  C_8
REMARK    3  A    between atoms: N_10  and  C_11
REMARK    4  A    between atoms: C_11  and  C_12
REMARK    5  A    between atoms: C_14  and  C_15
REMARK    6  A    between atoms: C_20  and  N_21
REMARK    7  A    between atoms: C_22  and  C_24
REMARK    8  A    between atoms: C_30  and  C_31
REMARK                            x       y       z     vdW  Elec       q    Type
REMARK                         _______ _______ _______ _____ _____    ______ ____
ROOT
ATOM      1  C   UNL     1       2.434   7.401  19.327  0.00  0.00    +0.000 A 
ATOM      2  N   UNL     1       3.315   6.352  19.089  0.00  0.00    +0.000 NA
ATOM      3  C   UNL     1       3.719   6.546  17.843  0.00  0.00    +0.000 A 
ATOM      4  O   UNL     1       3.200   7.677  17.268  0.00  0.00    +0.000 OA
ATOM      5  C   UNL     1       2.365   8.203  18.206  0.00  0.00    +0.000 A 
ATOM      6  C   UNL     1       1.572   9.377  17.801  0.00  0.00    +0.000 C 
ENDROOT
BRANCH   3   7
ATOM      7  C   UNL     1       4.518   5.693  16.954  0.00  0.00    +0.000 A 
ATOM      8  C   UNL     1       5.329   6.312  15.974  0.00  0.00    +0.000 A 
ATOM      9  C   UNL     1       6.051   5.570  15.040  0.00  0.00    +0.000 A 
ATOM     10  C   UNL     1       5.965   4.189  15.058  0.00  0.00    +0.000 A 
ATOM     11  C   UNL     1       5.190   3.555  16.029  0.00  0.00    +0.000 A 
ATOM     12  C   UNL     1       4.484   4.281  17.005  0.00  0.00    +0.000 A 
BRANCH  12  13
ATOM     13  N   UNL     1       3.734   3.606  18.004  0.00  0.00    +0.000 N 
ATOM     14  C   UNL     1       4.222   3.101  19.199  0.00  0.00    +0.000 C 
ATOM     15  O   UNL     1       5.374   3.210  19.620  0.00  0.00    +0.000 OA
ATOM     16  H   UNL     1       2.717   3.595  17.897  0.00  0.00    +0.000 HD
BRANCH  14  17
ATOM     17  C   UNL     1       3.179   2.339  20.027  0.00  0.00    +0.000 C 
ATOM     18  C   UNL     1       1.779   2.784  19.615  0.00  0.00    +0.000 C 
ATOM     19  C   UNL     1       1.031   2.865  20.920  0.00  0.00    +0.000 C 
ATOM     20  C   UNL     1       2.125   3.216  21.899  0.00  0.00    +0.000 C 
ATOM     21  O   UNL     1       3.300   2.538  21.442  0.00  0.00    +0.000 OA
ENDBRANCH  14  17
ENDBRANCH  12  13
ENDBRANCH   3   7
BRANCH   1  22
ATOM     22  C   UNL     1       1.639   7.483  20.580  0.00  0.00    +0.000 C 
BRANCH  22  25
ATOM     23  C   UNL     1      -0.099   9.012  21.421  0.00  0.00    +0.000 C 
ATOM     24  O   UNL     1      -0.808   8.102  21.838  0.00  0.00    +0.000 OA
ATOM     25  N   UNL     1       1.088   8.808  20.756  0.00  0.00    +0.000 N 
ATOM     26  H   UNL     1       1.526   9.565  20.250  0.00  0.00    +0.000 HD
BRANCH  23  31
ATOM     27  C   UNL     1      -0.666  12.728  20.886  0.00  0.00    +0.000 A 
ATOM     28  C   UNL     1      -1.185  13.094  22.131  0.00  0.00    +0.000 A 
ATOM     29  C   UNL     1      -1.363  12.130  23.125  0.00  0.00    +0.000 A 
ATOM     30  C   UNL     1      -1.017  10.800  22.879  0.00  0.00    +0.000 A 
ATOM     31  C   UNL     1      -0.511  10.426  21.627  0.00  0.00    +0.000 A 
ATOM     32  C   UNL     1      -0.329  11.394  20.630  0.00  0.00    +0.000 A 
BRANCH  27  34
ATOM     33  C   UNL     1      -0.269  14.570  19.043  0.00  0.00    +0.000 C 
ATOM     34  C   UNL     1      -0.451  13.728  19.880  0.00  0.00    +0.000 C 
ENDBRANCH  27  34
ENDBRANCH  23  31
ENDBRANCH  22  25
ENDBRANCH   1  22
TORSDOF 7
ENDMDL
MODEL 9
REMARK VINA RESULT:      -9.1      1.389      2.297
REMARK  Name = 
REMARK  8 active torsions:
REMARK  status: ('A' for Active; 'I' for Inactive)
REMARK    1  A    between atoms: C_2  and  C_3
REMARK    2  A    between atoms: C_7  and  C_8
REMARK    3  A    between atoms: N_10  and  C_11
REMARK    4  A    between atoms: C_11  and  C_12
REMARK    5  A    between atoms: C_14  and  C_15
REMARK    6  A    between atoms: C_20  and  N_21
REMARK    7  A    between atoms: C_22  and  C_24
REMARK    8  A    between atoms: C_30  and  C_31
REMARK                            x       y       z     vdW  Elec       q    Type
REMARK                         _______ _______ _______ _____ _____    ______ ____
ROOT
ATOM      1  C   UNL     1       1.849   9.009  18.603  0.00  0.00    +0.000 A 
ATOM      2  N   UNL     1       2.508   8.514  17.484  0.00  0.00    +0.000 NA
ATOM      3  C   UNL     1       2.975   7.340  17.877  0.00  0.00    +0.000 A 
ATOM      4  O   UNL     1       2.626   7.012  19.162  0.00  0.00    +0.000 OA
ATOM      5  C   UNL     1       1.931   8.088  19.626  0.00  0.00    +0.000 A 
ATOM      6  C   UNL     1       1.532   8.053  21.045  0.00  0.00    +0.000 C 
ENDROOT
BRANCH   3   7
ATOM      7  C   UNL     1       3.896   6.407  17.215  0.00  0.00    +0.000 A 
ATOM      8  C   UNL     1       4.820   6.923  16.276  0.00  0.00    +0.000 A 
ATOM      9  C   UNL     1       5.668   6.091  15.545  0.00  0.00    +0.000 A 
ATOM     10  C   UNL     1       5.600   4.721  15.729  0.00  0.00    +0.000 A 
ATOM     11  C   UNL     1       4.713   4.191  16.666  0.00  0.00    +0.000 A 
ATOM     12  C   UNL     1       3.875   5.013  17.442  0.00  0.00    +0.000 A 
BRANCH  12  13
ATOM     13  N   UNL     1       3.011   4.446  18.414  0.00  0.00    +0.000 N 
ATOM     14  C   UNL     1       1.709   4.017  18.209  0.00  0.00    +0.000 C 
ATOM     15  O   UNL     1       1.108   3.999  17.135  0.00  0.00    +0.000 OA
ATOM     16  H   UNL     1       3.417   4.215  19.325  0.00  0.00    +0.000 HD
BRANCH  14  17
ATOM     17  C   UNL     1       1.001   3.537  19.484  0.00  0.00    +0.000 C 
ATOM     18  C   UNL     1       1.473   4.370  20.672  0.00  0.00    +0.000 C 
ATOM     19  C   UNL     1       1.613   3.362  21.782  0.00  0.00    +0.000 C 
ATOM     20  C   UNL     1       1.961   2.100  21.031  0.00  0.00    +0.000 C 
ATOM     21  O   UNL     1       1.238   2.158  19.798  0.00  0.00    +0.000 OA
ENDBRANCH  14  17
ENDBRANCH  12  13
ENDBRANCH   3   7
BRANCH   1  22
ATOM     22  C   UNL     1       1.288  10.386  18.633  0.00  0.00    +0.000 C 
BRANCH  22  25
ATOM     23  C   UNL     1      -0.993  11.307  18.521  0.00  0.00    +0.000 C 
ATOM     24  O   UNL     1      -0.808  12.084  19.452  0.00  0.00    +0.000 OA
ATOM     25  N   UNL     1      -0.048  10.411  18.080  0.00  0.00    +0.000 N 
ATOM     26  H   UNL     1      -0.310   9.655  17.463  0.00  0.00    +0.000 HD
BRANCH  23  31
ATOM     27  C   UNL     1      -4.713  11.491  17.781  0.00  0.00    +0.000 A 
ATOM     28  C   UNL     1      -4.725  11.153  16.424  0.00  0.00    +0.000 A 
ATOM     29  C   UNL     1      -3.527  10.886  15.759  0.00  0.00    +0.000 A 
ATOM     30  C   UNL     1      -2.315  10.951  16.450  0.00  0.00    +0.000 A 
ATOM     31  C   UNL     1      -2.297  11.305  17.805  0.00  0.00    +0.000 A 
ATOM     32  C   UNL     1      -3.499  11.570  18.474  0.00  0.00    +0.000 A 
BRANCH  27  34
ATOM     33  C   UNL     1      -6.985  11.921  19.045  0.00  0.00    +0.000 C 
ATOM     34  C   UNL     1      -5.949  11.729  18.468  0.00  0.00    +0.000 C 
ENDBRANCH  27  34
ENDBRANCH  23  31
ENDBRANCH  22  25
ENDBRANCH   1  22
TORSDOF 7
ENDMDL
