MODEL 1
REMARK VINA RESULT:      -7.3      0.000      0.000
REMARK  Name = 
REMARK  5 active torsions:
REMARK  status: ('A' for Active; 'I' for Inactive)
REMARK    1  A    between atoms: C_1  and  O_2
REMARK    2  A    between atoms: O_2  and  C_3
REMARK    3  A    between atoms: C_6  and  C_7
REMARK    4  A    between atoms: C_13  and  O_14
REMARK    5  A    between atoms: C_16  and  O_17
REMARK                            x       y       z     vdW  Elec       q    Type
REMARK                         _______ _______ _______ _____ _____    ______ ____
ROOT
ATOM      1  C   UNL     1       1.687   7.102  20.790  0.00  0.00    +0.000 C 
ATOM      2  C   UNL     1       1.405   8.371  20.437  0.00  0.00    +0.000 C 
ATOM      3  C   UNL     1       0.953   9.285  21.549  0.00  0.00    +0.000 C 
ATOM      4  O   UNL     1      -0.396   9.683  21.244  0.00  0.00    +0.000 OA
ATOM      5  C   UNL     1      -0.334  10.572  20.202  0.00  0.00    +0.000 A 
ATOM      6  C   UNL     1      -1.204  11.662  20.271  0.00  0.00    +0.000 A 
ATOM      7  C   UNL     1      -0.919  12.770  19.498  0.00  0.00    +0.000 A 
ATOM      8  C   UNL     1       0.241  12.808  18.720  0.00  0.00    +0.000 A 
ATOM      9  C   UNL     1       1.037  11.661  18.584  0.00  0.00    +0.000 A 
ATOM     10  C   UNL     1       0.688  10.485  19.241  0.00  0.00    +0.000 A 
ATOM     11  C   UNL     1       1.375   9.132  19.134  0.00  0.00    +0.000 C 
ATOM     12  O   UNL     1       1.810   8.685  18.081  0.00  0.00    +0.000 OA
ENDROOT
BRANCH   1  16
ATOM     13  C   UNL     1       2.143   3.262  18.904  0.00  0.00    +0.000 A 
ATOM     14  C   UNL     1       3.008   4.306  18.546  0.00  0.00    +0.000 A 
ATOM     15  C   UNL     1       2.957   5.560  19.193  0.00  0.00    +0.000 A 
ATOM     16  C   UNL     1       2.024   5.786  20.201  0.00  0.00    +0.000 A 
ATOM     17  C   UNL     1       1.144   4.731  20.529  0.00  0.00    +0.000 A 
ATOM     18  C   UNL     1       1.196   3.487  19.891  0.00  0.00    +0.000 A 
BRANCH  13  20
ATOM     19  C   UNL     1       3.583   1.525  18.183  0.00  0.00    +0.000 C 
ATOM     20  O   UNL     1       2.272   2.093  18.202  0.00  0.00    +0.000 OA
ENDBRANCH  13  20
ENDBRANCH   1  16
BRANCH   7  21
ATOM     21  O   UNL     1      -1.715  13.877  19.536  0.00  0.00    +0.000 OA
ATOM     22  H   UNL     1      -2.313  13.854  18.772  0.00  0.00    +0.000 HD
ENDBRANCH   7  21
BRANCH   9  23
ATOM     23  O   UNL     1       2.226  11.761  17.917  0.00  0.00    +0.000 OA
ATOM     24  H   UNL     1       2.166  12.486  17.275  0.00  0.00    +0.000 HD
ENDBRANCH   9  23
TORSDOF 4
ENDMDL
MODEL 2
REMARK VINA RESULT:      -7.3      2.351      3.442
REMARK  Name = 
REMARK  5 active torsions:
REMARK  status: ('A' for Active; 'I' for Inactive)
REMARK    1  A    between atoms: C_1  and  O_2
REMARK    2  A    between atoms: O_2  and  C_3
REMARK    3  A    between atoms: C_6  and  C_7
REMARK    4  A    between atoms: C_13  and  O_14
REMARK    5  A    between atoms: C_16  and  O_17
REMARK                            x       y       z     vdW  Elec       q    Type
REMARK                         _______ _______ _______ _____ _____    ______ ____
ROOT
ATOM      1  C   UNL     1       2.030   8.343  18.036  0.00  0.00    +0.000 C 
ATOM      2  C   UNL     1       1.310   8.926  19.015  0.00  0.00    +0.000 C 
ATOM      3  C   UNL     1       0.471  10.112  18.604  0.00  0.00    +0.000 C 
ATOM      4  O   UNL     1       0.983  11.254  19.315  0.00  0.00    +0.000 OA
ATOM      5  C   UNL     1       0.603  11.123  20.627  0.00  0.00    +0.000 A 
ATOM      6  C   UNL     1       0.197  12.295  21.269  0.00  0.00    +0.000 A 
ATOM      7  C   UNL     1      -0.561  12.176  22.416  0.00  0.00    +0.000 A 
ATOM      8  C   UNL     1      -0.952  10.916  22.877  0.00  0.00    +0.000 A 
ATOM      9  C   UNL     1      -0.439   9.756  22.277  0.00  0.00    +0.000 A 
ATOM     10  C   UNL     1       0.445   9.853  21.207  0.00  0.00    +0.000 A 
ATOM     11  C   UNL     1       1.166   8.714  20.501  0.00  0.00    +0.000 C 
ATOM     12  O   UNL     1       1.631   7.750  21.094  0.00  0.00    +0.000 OA
ENDROOT
BRANCH   1  16
ATOM     13  C   UNL     1       4.670   5.070  17.127  0.00  0.00    +0.000 A 
ATOM     14  C   UNL     1       5.066   6.376  16.809  0.00  0.00    +0.000 A 
ATOM     15  C   UNL     1       4.277   7.493  17.160  0.00  0.00    +0.000 A 
ATOM     16  C   UNL     1       3.069   7.309  17.826  0.00  0.00    +0.000 A 
ATOM     17  C   UNL     1       2.674   5.984  18.115  0.00  0.00    +0.000 A 
ATOM     18  C   UNL     1       3.457   4.878  17.771  0.00  0.00    +0.000 A 
BRANCH  13  20
ATOM     19  C   UNL     1       6.836   4.460  16.390  0.00  0.00    +0.000 C 
ATOM     20  O   UNL     1       5.507   4.062  16.728  0.00  0.00    +0.000 OA
ENDBRANCH  13  20
ENDBRANCH   1  16
BRANCH   7  21
ATOM     21  O   UNL     1      -1.010  13.280  23.079  0.00  0.00    +0.000 OA
ATOM     22  H   UNL     1      -0.885  14.056  22.508  0.00  0.00    +0.000 HD
ENDBRANCH   7  21
BRANCH   9  23
ATOM     23  O   UNL     1      -0.930   8.541  22.668  0.00  0.00    +0.000 OA
ATOM     24  H   UNL     1      -0.436   7.842  22.212  0.00  0.00    +0.000 HD
ENDBRANCH   9  23
TORSDOF 4
ENDMDL
MODEL 3
REMARK VINA RESULT:      -7.2      2.294      3.500
REMARK  Name = 
REMARK  5 active torsions:
REMARK  status: ('A' for Active; 'I' for Inactive)
REMARK    1  A    between atoms: C_1  and  O_2
REMARK    2  A    between atoms: O_2  and  C_3
REMARK    3  A    between atoms: C_6  and  C_7
REMARK    4  A    between atoms: C_13  and  O_14
REMARK    5  A    between atoms: C_16  and  O_17
REMARK                            x       y       z     vdW  Elec       q    Type
REMARK                         _______ _______ _______ _____ _____    ______ ____
ROOT
ATOM      1  C   UNL     1       2.010   8.084  18.408  0.00  0.00    +0.000 C 
ATOM      2  C   UNL     1       1.319   8.860  19.266  0.00  0.00    +0.000 C 
ATOM      3  C   UNL     1       0.537   9.995  18.651  0.00  0.00    +0.000 C 
ATOM      4  O   UNL     1       1.102  11.218  19.160  0.00  0.00    +0.000 OA
ATOM      5  C   UNL     1       0.717  11.331  20.471  0.00  0.00    +0.000 A 
ATOM      6  C   UNL     1       0.366  12.613  20.900  0.00  0.00    +0.000 A 
ATOM      7  C   UNL     1      -0.396  12.729  22.044  0.00  0.00    +0.000 A 
ATOM      8  C   UNL     1      -0.846  11.586  22.711  0.00  0.00    +0.000 A 
ATOM      9  C   UNL     1      -0.389  10.318  22.323  0.00  0.00    +0.000 A 
ATOM     10  C   UNL     1       0.498  10.188  21.259  0.00  0.00    +0.000 A 
ATOM     11  C   UNL     1       1.164   8.913  20.765  0.00  0.00    +0.000 C 
ATOM     12  O   UNL     1       1.583   8.044  21.519  0.00  0.00    +0.000 OA
ENDROOT
BRANCH   1  16
ATOM     13  C   UNL     1       5.269   5.275  18.390  0.00  0.00    +0.000 A 
ATOM     14  C   UNL     1       4.249   5.132  19.340  0.00  0.00    +0.000 A 
ATOM     15  C   UNL     1       3.115   5.973  19.338  0.00  0.00    +0.000 A 
ATOM     16  C   UNL     1       2.999   6.983  18.386  0.00  0.00    +0.000 A 
ATOM     17  C   UNL     1       4.050   7.128  17.454  0.00  0.00    +0.000 A 
ATOM     18  C   UNL     1       5.172   6.293  17.453  0.00  0.00    +0.000 A 
BRANCH  13  20
ATOM     19  C   UNL     1       7.491   4.770  17.747  0.00  0.00    +0.000 C 
ATOM     20  O   UNL     1       6.328   4.413  18.493  0.00  0.00    +0.000 OA
ENDBRANCH  13  20
ENDBRANCH   1  16
BRANCH   7  21
ATOM     21  O   UNL     1      -0.792  13.950  22.505  0.00  0.00    +0.000 OA
ATOM     22  H   UNL     1      -1.409  13.817  23.243  0.00  0.00    +0.000 HD
ENDBRANCH   7  21
BRANCH   9  23
ATOM     23  O   UNL     1      -0.937   9.213  22.913  0.00  0.00    +0.000 OA
ATOM     24  H   UNL     1      -1.839   9.091  22.575  0.00  0.00    +0.000 HD
ENDBRANCH   9  23
TORSDOF 4
ENDMDL
MODEL 4
REMARK VINA RESULT:      -7.1      2.054      8.090
REMARK  Name = 
REMARK  5 active torsions:
REMARK  status: ('A' for Active; 'I' for Inactive)
REMARK    1  A    between atoms: C_1  and  O_2
REMARK    2  A    between atoms: O_2  and  C_3
REMARK    3  A    between atoms: C_6  and  C_7
REMARK    4  A    between atoms: C_13  and  O_14
REMARK    5  A    between atoms: C_16  and  O_17
REMARK                            x       y       z     vdW  Elec       q    Type
REMARK                         _______ _______ _______ _____ _____    ______ ____
ROOT
ATOM      1  C   UNL     1       2.363   8.124  18.767  0.00  0.00    +0.000 C 
ATOM      2  C   UNL     1       2.674   6.837  19.017  0.00  0.00    +0.000 C 
ATOM      3  C   UNL     1       3.904   6.306  18.322  0.00  0.00    +0.000 C 
ATOM      4  O   UNL     1       3.467   5.257  17.438  0.00  0.00    +0.000 OA
ATOM      5  C   UNL     1       3.135   4.178  18.217  0.00  0.00    +0.000 A 
ATOM      6  C   UNL     1       3.507   2.926  17.723  0.00  0.00    +0.000 A 
ATOM      7  C   UNL     1       3.572   1.872  18.611  0.00  0.00    +0.000 A 
ATOM      8  C   UNL     1       3.327   2.078  19.972  0.00  0.00    +0.000 A 
ATOM      9  C   UNL     1       2.850   3.318  20.421  0.00  0.00    +0.000 A 
ATOM     10  C   UNL     1       2.637   4.356  19.519  0.00  0.00    +0.000 A 
ATOM     11  C   UNL     1       2.040   5.724  19.813  0.00  0.00    +0.000 C 
ATOM     12  O   UNL     1       1.101   5.892  20.579  0.00  0.00    +0.000 OA
ENDROOT
BRANCH   1  16
ATOM     13  C   UNL     1      -1.067  10.686  19.204  0.00  0.00    +0.000 A 
ATOM     14  C   UNL     1      -0.369  10.277  20.348  0.00  0.00    +0.000 A 
ATOM     15  C   UNL     1       0.810   9.507  20.258  0.00  0.00    +0.000 A 
ATOM     16  C   UNL     1       1.298   9.124  19.012  0.00  0.00    +0.000 A 
ATOM     17  C   UNL     1       0.566   9.523  17.871  0.00  0.00    +0.000 A 
ATOM     18  C   UNL     1      -0.600  10.290  17.959  0.00  0.00    +0.000 A 
BRANCH  13  20
ATOM     19  C   UNL     1      -3.091  11.511  18.294  0.00  0.00    +0.000 C 
ATOM     20  O   UNL     1      -2.204  11.420  19.410  0.00  0.00    +0.000 OA
ENDBRANCH  13  20
ENDBRANCH   1  16
BRANCH   7  21
ATOM     21  O   UNL     1       3.951   0.628  18.199  0.00  0.00    +0.000 OA
ATOM     22  H   UNL     1       4.028   0.054  18.978  0.00  0.00    +0.000 HD
ENDBRANCH   7  21
BRANCH   9  23
ATOM     23  O   UNL     1       2.734   3.529  21.767  0.00  0.00    +0.000 OA
ATOM     24  H   UNL     1       2.666   2.671  22.215  0.00  0.00    +0.000 HD
ENDBRANCH   9  23
TORSDOF 4
ENDMDL
MODEL 5
REMARK VINA RESULT:      -7.1      0.523      1.135
REMARK  Name = 
REMARK  5 active torsions:
REMARK  status: ('A' for Active; 'I' for Inactive)
REMARK    1  A    between atoms: C_1  and  O_2
REMARK    2  A    between atoms: O_2  and  C_3
REMARK    3  A    between atoms: C_6  and  C_7
REMARK    4  A    between atoms: C_13  and  O_14
REMARK    5  A    between atoms: C_16  and  O_17
REMARK                            x       y       z     vdW  Elec       q    Type
REMARK                         _______ _______ _______ _____ _____    ______ ____
ROOT
ATOM      1  C   UNL     1       1.609   7.112  20.909  0.00  0.00    +0.000 C 
ATOM      2  C   UNL     1       1.365   8.378  20.517  0.00  0.00    +0.000 C 
ATOM      3  C   UNL     1       0.925   9.334  21.599  0.00  0.00    +0.000 C 
ATOM      4  O   UNL     1      -0.410   9.759  21.266  0.00  0.00    +0.000 OA
ATOM      5  C   UNL     1      -0.313  10.616  20.200  0.00  0.00    +0.000 A 
ATOM      6  C   UNL     1      -1.154  11.730  20.229  0.00  0.00    +0.000 A 
ATOM      7  C   UNL     1      -0.832  12.807  19.429  0.00  0.00    +0.000 A 
ATOM      8  C   UNL     1       0.337  12.793  18.664  0.00  0.00    +0.000 A 
ATOM      9  C   UNL     1       1.104  11.623  18.570  0.00  0.00    +0.000 A 
ATOM     10  C   UNL     1       0.717  10.475  19.254  0.00  0.00    +0.000 A 
ATOM     11  C   UNL     1       1.370   9.102  19.194  0.00  0.00    +0.000 C 
ATOM     12  O   UNL     1       1.804   8.614  18.159  0.00  0.00    +0.000 OA
ENDROOT
BRANCH   1  16
ATOM     13  C   UNL     1       2.975   3.245  19.608  0.00  0.00    +0.000 A 
ATOM     14  C   UNL     1       1.718   3.356  20.217  0.00  0.00    +0.000 A 
ATOM     15  C   UNL     1       1.185   4.610  20.587  0.00  0.00    +0.000 A 
ATOM     16  C   UNL     1       1.918   5.772  20.361  0.00  0.00    +0.000 A 
ATOM     17  C   UNL     1       3.194   5.637  19.770  0.00  0.00    +0.000 A 
ATOM     18  C   UNL     1       3.721   4.396  19.400  0.00  0.00    +0.000 A 
BRANCH  13  20
ATOM     19  C   UNL     1       3.525   1.689  17.910  0.00  0.00    +0.000 C 
ATOM     20  O   UNL     1       3.397   1.979  19.303  0.00  0.00    +0.000 OA
ENDBRANCH  13  20
ENDBRANCH   1  16
BRANCH   7  21
ATOM     21  O   UNL     1      -1.599  13.935  19.427  0.00  0.00    +0.000 OA
ATOM     22  H   UNL     1      -1.421  14.428  18.610  0.00  0.00    +0.000 HD
ENDBRANCH   7  21
BRANCH   9  23
ATOM     23  O   UNL     1       2.303  11.673  17.914  0.00  0.00    +0.000 OA
ATOM     24  H   UNL     1       2.980  12.009  18.523  0.00  0.00    +0.000 HD
ENDBRANCH   9  23
TORSDOF 4
ENDMDL
MODEL 6
REMARK VINA RESULT:      -7.0      2.883      7.702
REMARK  Name = 
REMARK  5 active torsions:
REMARK  status: ('A' for Active; 'I' for Inactive)
REMARK    1  A    between atoms: C_1  and  O_2
REMARK    2  A    between atoms: O_2  and  C_3
REMARK    3  A    between atoms: C_6  and  C_7
REMARK    4  A    between atoms: C_13  and  O_14
REMARK    5  A    between atoms: C_16  and  O_17
REMARK                            x       y       z     vdW  Elec       q    Type
REMARK                         _______ _______ _______ _____ _____    ______ ____
ROOT
ATOM      1  C   UNL     1       1.807   7.148  19.899  0.00  0.00    +0.000 C 
ATOM      2  C   UNL     1       2.778   6.697  19.081  0.00  0.00    +0.000 C 
ATOM      3  C   UNL     1       3.108   5.228  19.190  0.00  0.00    +0.000 C 
ATOM      4  O   UNL     1       4.471   5.136  19.645  0.00  0.00    +0.000 OA
ATOM      5  C   UNL     1       5.277   5.495  18.594  0.00  0.00    +0.000 A 
ATOM      6  C   UNL     1       6.445   4.747  18.433  0.00  0.00    +0.000 A 
ATOM      7  C   UNL     1       7.071   4.780  17.204  0.00  0.00    +0.000 A 
ATOM      8  C   UNL     1       6.510   5.498  16.144  0.00  0.00    +0.000 A 
ATOM      9  C   UNL     1       5.400   6.326  16.364  0.00  0.00    +0.000 A 
ATOM     10  C   UNL     1       4.838   6.422  17.634  0.00  0.00    +0.000 A 
ATOM     11  C   UNL     1       3.701   7.333  18.072  0.00  0.00    +0.000 C 
ATOM     12  O   UNL     1       3.584   8.488  17.683  0.00  0.00    +0.000 OA
ENDROOT
BRANCH   1  16
ATOM     13  C   UNL     1       0.337  10.843  21.541  0.00  0.00    +0.000 A 
ATOM     14  C   UNL     1       0.570  10.753  20.162  0.00  0.00    +0.000 A 
ATOM     15  C   UNL     1       0.971   9.542  19.559  0.00  0.00    +0.000 A 
ATOM     16  C   UNL     1       1.159   8.404  20.340  0.00  0.00    +0.000 A 
ATOM     17  C   UNL     1       0.945   8.522  21.731  0.00  0.00    +0.000 A 
ATOM     18  C   UNL     1       0.544   9.720  22.328  0.00  0.00    +0.000 A 
BRANCH  13  20
ATOM     19  C   UNL     1      -1.186  12.079  22.868  0.00  0.00    +0.000 C 
ATOM     20  O   UNL     1      -0.037  12.071  22.020  0.00  0.00    +0.000 OA
ENDBRANCH  13  20
ENDBRANCH   1  16
BRANCH   7  21
ATOM     21  O   UNL     1       8.202   4.054  16.972  0.00  0.00    +0.000 OA
ATOM     22  H   UNL     1       8.532   3.716  17.820  0.00  0.00    +0.000 HD
ENDBRANCH   7  21
BRANCH   9  23
ATOM     23  O   UNL     1       4.799   6.921  15.290  0.00  0.00    +0.000 OA
ATOM     24  H   UNL     1       5.189   7.801  15.160  0.00  0.00    +0.000 HD
ENDBRANCH   9  23
TORSDOF 4
ENDMDL
MODEL 7
REMARK VINA RESULT:      -7.0      1.092      1.241
REMARK  Name = 
REMARK  5 active torsions:
REMARK  status: ('A' for Active; 'I' for Inactive)
REMARK    1  A    between atoms: C_1  and  O_2
REMARK    2  A    between atoms: O_2  and  C_3
REMARK    3  A    between atoms: C_6  and  C_7
REMARK    4  A    between atoms: C_13  and  O_14
REMARK    5  A    between atoms: C_16  and  O_17
REMARK                            x       y       z     vdW  Elec       q    Type
REMARK                         _______ _______ _______ _____ _____    ______ ____
ROOT
ATOM      1  C   UNL     1       2.059   7.231  19.905  0.00  0.00    +0.000 C 
ATOM      2  C   UNL     1       1.642   8.502  19.744  0.00  0.00    +0.000 C 
ATOM      3  C   UNL     1       1.051   9.166  20.964  0.00  0.00    +0.000 C 
ATOM      4  O   UNL     1      -0.326   9.457  20.658  0.00  0.00    +0.000 OA
ATOM      5  C   UNL     1      -0.335  10.506  19.774  0.00  0.00    +0.000 A 
ATOM      6  C   UNL     1      -1.328  11.467  19.972  0.00  0.00    +0.000 A 
ATOM      7  C   UNL     1      -1.151  12.710  19.400  0.00  0.00    +0.000 A 
ATOM      8  C   UNL     1       0.021  13.004  18.698  0.00  0.00    +0.000 A 
ATOM      9  C   UNL     1       0.950  11.990  18.422  0.00  0.00    +0.000 A 
ATOM     10  C   UNL     1       0.721  10.690  18.865  0.00  0.00    +0.000 A 
ATOM     11  C   UNL     1       1.565   9.458  18.580  0.00  0.00    +0.000 C 
ATOM     12  O   UNL     1       2.082   9.240  17.492  0.00  0.00    +0.000 OA
ENDROOT
BRANCH   1  16
ATOM     13  C   UNL     1       3.536   3.597  18.138  0.00  0.00    +0.000 A 
ATOM     14  C   UNL     1       2.371   4.182  17.624  0.00  0.00    +0.000 A 
ATOM     15  C   UNL     1       1.889   5.417  18.110  0.00  0.00    +0.000 A 
ATOM     16  C   UNL     1       2.567   6.075  19.132  0.00  0.00    +0.000 A 
ATOM     17  C   UNL     1       3.725   5.456  19.655  0.00  0.00    +0.000 A 
ATOM     18  C   UNL     1       4.205   4.235  19.172  0.00  0.00    +0.000 A 
BRANCH  13  20
ATOM     19  C   UNL     1       3.716   1.256  18.445  0.00  0.00    +0.000 C 
ATOM     20  O   UNL     1       3.904   2.392  17.600  0.00  0.00    +0.000 OA
ENDBRANCH  13  20
ENDBRANCH   1  16
BRANCH   7  21
ATOM     21  O   UNL     1      -2.072  13.701  19.573  0.00  0.00    +0.000 OA
ATOM     22  H   UNL     1      -1.675  14.401  20.118  0.00  0.00    +0.000 HD
ENDBRANCH   7  21
BRANCH   9  23
ATOM     23  O   UNL     1       2.140  12.328  17.840  0.00  0.00    +0.000 OA
ATOM     24  H   UNL     1       1.963  12.742  16.980  0.00  0.00    +0.000 HD
ENDBRANCH   9  23
TORSDOF 4
ENDMDL
MODEL 8
REMARK VINA RESULT:      -6.9      1.872      8.185
REMARK  Name = 
REMARK  5 active torsions:
REMARK  status: ('A' for Active; 'I' for Inactive)
REMARK    1  A    between atoms: C_1  and  O_2
REMARK    2  A    between atoms: O_2  and  C_3
REMARK    3  A    between atoms: C_6  and  C_7
REMARK    4  A    between atoms: C_13  and  O_14
REMARK    5  A    between atoms: C_16  and  O_17
REMARK                            x       y       z     vdW  Elec       q    Type
REMARK                         _______ _______ _______ _____ _____    ______ ____
ROOT
ATOM      1  C   UNL     1       2.263   7.969  18.957  0.00  0.00    +0.000 C 
ATOM      2  C   UNL     1       2.611   6.688  19.189  0.00  0.00    +0.000 C 
ATOM      3  C   UNL     1       3.862   6.204  18.496  0.00  0.00    +0.000 C 
ATOM      4  O   UNL     1       3.463   5.157  17.593  0.00  0.00    +0.000 OA
ATOM      5  C   UNL     1       3.158   4.056  18.352  0.00  0.00    +0.000 A 
ATOM      6  C   UNL     1       3.572   2.824  17.842  0.00  0.00    +0.000 A 
ATOM      7  C   UNL     1       3.662   1.758  18.714  0.00  0.00    +0.000 A 
ATOM      8  C   UNL     1       3.402   1.936  20.075  0.00  0.00    +0.000 A 
ATOM      9  C   UNL     1       2.884   3.154  20.541  0.00  0.00    +0.000 A 
ATOM     10  C   UNL     1       2.646   4.199  19.653  0.00  0.00    +0.000 A 
ATOM     11  C   UNL     1       2.006   5.543  19.963  0.00  0.00    +0.000 C 
ATOM     12  O   UNL     1       1.056   5.671  20.724  0.00  0.00    +0.000 OA
ENDROOT
BRANCH   1  16
ATOM     13  C   UNL     1      -0.575  11.018  20.035  0.00  0.00    +0.000 A 
ATOM     14  C   UNL     1      -0.259  10.826  18.684  0.00  0.00    +0.000 A 
ATOM     15  C   UNL     1       0.601   9.786  18.267  0.00  0.00    +0.000 A 
ATOM     16  C   UNL     1       1.167   8.931  19.209  0.00  0.00    +0.000 A 
ATOM     17  C   UNL     1       0.856   9.157  20.569  0.00  0.00    +0.000 A 
ATOM     18  C   UNL     1       0.003  10.184  20.982  0.00  0.00    +0.000 A 
BRANCH  13  20
ATOM     19  C   UNL     1      -2.553  12.196  19.483  0.00  0.00    +0.000 C 
ATOM     20  O   UNL     1      -1.409  12.064  20.326  0.00  0.00    +0.000 OA
ENDBRANCH  13  20
ENDBRANCH   1  16
BRANCH   7  21
ATOM     21  O   UNL     1       4.082   0.533  18.285  0.00  0.00    +0.000 OA
ATOM     22  H   UNL     1       3.460  -0.138  18.612  0.00  0.00    +0.000 HD
ENDBRANCH   7  21
BRANCH   9  23
ATOM     23  O   UNL     1       2.752   3.340  21.889  0.00  0.00    +0.000 OA
ATOM     24  H   UNL     1       2.907   4.277  22.093  0.00  0.00    +0.000 HD
ENDBRANCH   9  23
TORSDOF 4
ENDMDL
MODEL 9
REMARK VINA RESULT:      -6.9      1.680      2.200
REMARK  Name = 
REMARK  5 active torsions:
REMARK  status: ('A' for Active; 'I' for Inactive)
REMARK    1  A    between atoms: C_1  and  O_2
REMARK    2  A    between atoms: O_2  and  C_3
REMARK    3  A    between atoms: C_6  and  C_7
REMARK    4  A    between atoms: C_13  and  O_14
REMARK    5  A    between atoms: C_16  and  O_17
REMARK                            x       y       z     vdW  Elec       q    Type
REMARK                         _______ _______ _______ _____ _____    ______ ____
ROOT
ATOM      1  C   UNL     1       2.208   7.299  19.390  0.00  0.00    +0.000 C 
ATOM      2  C   UNL     1       1.721   8.555  19.400  0.00  0.00    +0.000 C 
ATOM      3  C   UNL     1       1.060   8.999  20.682  0.00  0.00    +0.000 C 
ATOM      4  O   UNL     1      -0.323   9.256  20.375  0.00  0.00    +0.000 OA
ATOM      5  C   UNL     1      -0.371  10.421  19.653  0.00  0.00    +0.000 A 
ATOM      6  C   UNL     1      -1.425  11.287  19.954  0.00  0.00    +0.000 A 
ATOM      7  C   UNL     1      -1.307  12.608  19.575  0.00  0.00    +0.000 A 
ATOM      8  C   UNL     1      -0.137  13.065  18.963  0.00  0.00    +0.000 A 
ATOM      9  C   UNL     1       0.857  12.155  18.575  0.00  0.00    +0.000 A 
ATOM     10  C   UNL     1       0.694  10.794  18.816  0.00  0.00    +0.000 A 
ATOM     11  C   UNL     1       1.617   9.665  18.384  0.00  0.00    +0.000 C 
ATOM     12  O   UNL     1       2.174   9.638  17.295  0.00  0.00    +0.000 OA
ENDROOT
BRANCH   1  16
ATOM     13  C   UNL     1       4.414   4.486  16.994  0.00  0.00    +0.000 A 
ATOM     14  C   UNL     1       3.269   4.053  17.676  0.00  0.00    +0.000 A 
ATOM     15  C   UNL     1       2.461   4.950  18.407  0.00  0.00    +0.000 A 
ATOM     16  C   UNL     1       2.804   6.298  18.475  0.00  0.00    +0.000 A 
ATOM     17  C   UNL     1       3.976   6.711  17.803  0.00  0.00    +0.000 A 
ATOM     18  C   UNL     1       4.774   5.823  17.075  0.00  0.00    +0.000 A 
BRANCH  13  20
ATOM     19  C   UNL     1       6.221   4.006  15.542  0.00  0.00    +0.000 C 
ATOM     20  O   UNL     1       5.129   3.527  16.327  0.00  0.00    +0.000 OA
ENDBRANCH  13  20
ENDBRANCH   1  16
BRANCH   7  21
ATOM     21  O   UNL     1      -2.289  13.511  19.859  0.00  0.00    +0.000 OA
ATOM     22  H   UNL     1      -2.106  13.905  20.727  0.00  0.00    +0.000 HD
ENDBRANCH   7  21
BRANCH   9  23
ATOM     23  O   UNL     1       2.039  12.640  18.088  0.00  0.00    +0.000 OA
ATOM     24  H   UNL     1       1.875  13.067  17.232  0.00  0.00    +0.000 HD
ENDBRANCH   9  23
TORSDOF 4
ENDMDL
