MODEL 1
REMARK VINA RESULT:      -8.7      0.000      0.000
REMARK  Name = 
REMARK  7 active torsions:
REMARK  status: ('A' for Active; 'I' for Inactive)
REMARK    1  A    between atoms: C_1  and  O_2
REMARK    2  A    between atoms: O_2  and  C_3
REMARK    3  A    between atoms: C_6  and  C_7
REMARK    4  A    between atoms: C_14  and  N_15
REMARK    5  A    between atoms: N_15  and  C_16
REMARK    6  A    between atoms: C_16  and  C_17
REMARK    7  A    between atoms: C_23  and  C_24
REMARK                            x       y       z     vdW  Elec       q    Type
REMARK                         _______ _______ _______ _____ _____    ______ ____
ROOT
ATOM      1  C   UNL     1       6.762   5.245  18.499  0.00  0.00    +0.000 A 
ATOM      2  C   UNL     1       7.797   4.595  17.862  0.00  0.00    +0.000 A 
ATOM      3  N   UNL     1       7.863   4.402  16.535  0.00  0.00    +0.000 NA
ATOM      4  C   UNL     1       6.829   4.877  15.807  0.00  0.00    +0.000 A 
ATOM      5  N   UNL     1       5.765   5.519  16.338  0.00  0.00    +0.000 NA
ATOM      6  C   UNL     1       5.729   5.691  17.673  0.00  0.00    +0.000 A 
ENDROOT
BRANCH   4   7
ATOM      7  C   UNL     1       6.894   4.664  14.337  0.00  0.00    +0.000 A 
ATOM      8  C   UNL     1       6.096   3.706  13.706  0.00  0.00    +0.000 A 
ATOM      9  C   UNL     1       6.172   3.536  12.326  0.00  0.00    +0.000 A 
ATOM     10  C   UNL     1       7.041   4.331  11.596  0.00  0.00    +0.000 A 
ATOM     11  C   UNL     1       7.806   5.260  12.281  0.00  0.00    +0.000 A 
ATOM     12  N   UNL     1       7.756   5.441  13.621  0.00  0.00    +0.000 NA
ENDBRANCH   4   7
BRANCH   1  14
ATOM     13  C   UNL     1       7.965   5.518  20.499  0.00  0.00    +0.000 C 
ATOM     14  O   UNL     1       6.697   5.467  19.847  0.00  0.00    +0.000 OA
ENDBRANCH   1  14
BRANCH   6  15
ATOM     15  N   UNL     1       4.629   6.360  18.260  0.00  0.00    +0.000 N 
ATOM     16  H   UNL     1       4.759   6.296  19.269  0.00  0.00    +0.000 HD
BRANCH  15  17
ATOM     17  C   UNL     1       3.322   5.893  17.829  0.00  0.00    +0.000 C 
BRANCH  17  18
ATOM     18  C   UNL     1       2.735   4.983  18.903  0.00  0.00    +0.000 A 
ATOM     19  C   UNL     1       2.323   5.581  20.116  0.00  0.00    +0.000 A 
ATOM     20  C   UNL     1       1.776   4.822  21.152  0.00  0.00    +0.000 A 
ATOM     21  C   UNL     1       1.643   3.455  20.993  0.00  0.00    +0.000 A 
ATOM     22  F   UNL     1       1.121   2.719  21.984  0.00  0.00    +0.000 F 
ATOM     23  C   UNL     1       2.046   2.834  19.819  0.00  0.00    +0.000 A 
ATOM     24  C   UNL     1       2.598   3.582  18.755  0.00  0.00    +0.000 A 
BRANCH  24  25
ATOM     25  C   UNL     1       3.004   2.808  17.522  0.00  0.00    +0.000 C 
ATOM     26  F   UNL     1       2.620   1.504  17.497  0.00  0.00    +0.000 F 
ATOM     27  F   UNL     1       2.494   3.356  16.383  0.00  0.00    +0.000 F 
ATOM     28  F   UNL     1       4.357   2.796  17.351  0.00  0.00    +0.000 F 
ENDBRANCH  24  25
ENDBRANCH  17  18
ENDBRANCH  15  17
ENDBRANCH   6  15
TORSDOF 6
ENDMDL
MODEL 2
REMARK VINA RESULT:      -8.3      1.643      2.599
REMARK  Name = 
REMARK  7 active torsions:
REMARK  status: ('A' for Active; 'I' for Inactive)
REMARK    1  A    between atoms: C_1  and  O_2
REMARK    2  A    between atoms: O_2  and  C_3
REMARK    3  A    between atoms: C_6  and  C_7
REMARK    4  A    between atoms: C_14  and  N_15
REMARK    5  A    between atoms: N_15  and  C_16
REMARK    6  A    between atoms: C_16  and  C_17
REMARK    7  A    between atoms: C_23  and  C_24
REMARK                            x       y       z     vdW  Elec       q    Type
REMARK                         _______ _______ _______ _____ _____    ______ ____
ROOT
ATOM      1  C   UNL     1       6.780   5.232  18.395  0.00  0.00    +0.000 A 
ATOM      2  C   UNL     1       7.528   5.975  17.507  0.00  0.00    +0.000 A 
ATOM      3  N   UNL     1       7.541   5.775  16.180  0.00  0.00    +0.000 NA
ATOM      4  C   UNL     1       6.771   4.766  15.718  0.00  0.00    +0.000 A 
ATOM      5  N   UNL     1       6.011   3.975  16.506  0.00  0.00    +0.000 NA
ATOM      6  C   UNL     1       6.024   4.201  17.834  0.00  0.00    +0.000 A 
ENDROOT
BRANCH   4   7
ATOM      7  C   UNL     1       6.784   4.536  14.249  0.00  0.00    +0.000 A 
ATOM      8  C   UNL     1       7.640   5.254  13.409  0.00  0.00    +0.000 A 
ATOM      9  C   UNL     1       7.635   5.009  12.038  0.00  0.00    +0.000 A 
ATOM     10  C   UNL     1       6.778   4.047  11.527  0.00  0.00    +0.000 A 
ATOM     11  C   UNL     1       5.954   3.373  12.412  0.00  0.00    +0.000 A 
ATOM     12  N   UNL     1       5.933   3.595  13.747  0.00  0.00    +0.000 NA
ENDBRANCH   4   7
BRANCH   1  14
ATOM     13  C   UNL     1       8.022   5.621  20.352  0.00  0.00    +0.000 C 
ATOM     14  O   UNL     1       6.742   5.444  19.746  0.00  0.00    +0.000 OA
ENDBRANCH   1  14
BRANCH   6  15
ATOM     15  N   UNL     1       5.238   3.392  18.687  0.00  0.00    +0.000 N 
ATOM     16  H   UNL     1       5.681   2.475  18.701  0.00  0.00    +0.000 HD
BRANCH  15  17
ATOM     17  C   UNL     1       3.825   3.331  18.350  0.00  0.00    +0.000 C 
BRANCH  17  18
ATOM     18  C   UNL     1       3.079   4.418  19.115  0.00  0.00    +0.000 A 
ATOM     19  C   UNL     1       3.178   5.744  18.637  0.00  0.00    +0.000 A 
ATOM     20  C   UNL     1       2.528   6.800  19.277  0.00  0.00    +0.000 A 
ATOM     21  C   UNL     1       1.778   6.545  20.412  0.00  0.00    +0.000 A 
ATOM     22  F   UNL     1       1.152   7.553  21.034  0.00  0.00    +0.000 F 
ATOM     23  C   UNL     1       1.666   5.256  20.914  0.00  0.00    +0.000 A 
ATOM     24  C   UNL     1       2.312   4.172  20.279  0.00  0.00    +0.000 A 
BRANCH  24  25
ATOM     25  C   UNL     1       2.125   2.811  20.910  0.00  0.00    +0.000 C 
ATOM     26  F   UNL     1       1.702   1.829  20.070  0.00  0.00    +0.000 F 
ATOM     27  F   UNL     1       3.280   2.340  21.462  0.00  0.00    +0.000 F 
ATOM     28  F   UNL     1       1.218   2.840  21.927  0.00  0.00    +0.000 F 
ENDBRANCH  24  25
ENDBRANCH  17  18
ENDBRANCH  15  17
ENDBRANCH   6  15
TORSDOF 6
ENDMDL
MODEL 3
REMARK VINA RESULT:      -8.1      3.229      6.682
REMARK  Name = 
REMARK  7 active torsions:
REMARK  status: ('A' for Active; 'I' for Inactive)
REMARK    1  A    between atoms: C_1  and  O_2
REMARK    2  A    between atoms: O_2  and  C_3
REMARK    3  A    between atoms: C_6  and  C_7
REMARK    4  A    between atoms: C_14  and  N_15
REMARK    5  A    between atoms: N_15  and  C_16
REMARK    6  A    between atoms: C_16  and  C_17
REMARK    7  A    between atoms: C_23  and  C_24
REMARK                            x       y       z     vdW  Elec       q    Type
REMARK                         _______ _______ _______ _____ _____    ______ ____
ROOT
ATOM      1  C   UNL     1       3.446   3.285  19.755  0.00  0.00    +0.000 A 
ATOM      2  C   UNL     1       2.138   3.692  19.901  0.00  0.00    +0.000 A 
ATOM      3  N   UNL     1       1.723   4.961  19.757  0.00  0.00    +0.000 NA
ATOM      4  C   UNL     1       2.674   5.874  19.462  0.00  0.00    +0.000 A 
ATOM      5  N   UNL     1       3.983   5.576  19.309  0.00  0.00    +0.000 NA
ATOM      6  C   UNL     1       4.366   4.294  19.464  0.00  0.00    +0.000 A 
ENDROOT
BRANCH   4   7
ATOM      7  C   UNL     1       2.223   7.281  19.305  0.00  0.00    +0.000 A 
ATOM      8  C   UNL     1       2.402   7.971  18.102  0.00  0.00    +0.000 A 
ATOM      9  C   UNL     1       1.960   9.286  17.981  0.00  0.00    +0.000 A 
ATOM     10  C   UNL     1       1.340   9.891  19.063  0.00  0.00    +0.000 A 
ATOM     11  C   UNL     1       1.195   9.154  20.226  0.00  0.00    +0.000 A 
ATOM     12  N   UNL     1       1.621   7.878  20.373  0.00  0.00    +0.000 NA
ENDBRANCH   4   7
BRANCH   1  14
ATOM     13  C   UNL     1       3.776   1.221  18.679  0.00  0.00    +0.000 C 
ATOM     14  O   UNL     1       3.875   1.991  19.877  0.00  0.00    +0.000 OA
ENDBRANCH   1  14
BRANCH   6  15
ATOM     15  N   UNL     1       5.728   3.949  19.309  0.00  0.00    +0.000 N 
ATOM     16  H   UNL     1       6.239   4.466  20.022  0.00  0.00    +0.000 HD
BRANCH  15  17
ATOM     17  C   UNL     1       6.267   4.150  17.973  0.00  0.00    +0.000 C 
BRANCH  17  18
ATOM     18  C   UNL     1       6.783   5.580  17.850  0.00  0.00    +0.000 A 
ATOM     19  C   UNL     1       7.766   6.004  18.772  0.00  0.00    +0.000 A 
ATOM     20  C   UNL     1       8.294   7.295  18.732  0.00  0.00    +0.000 A 
ATOM     21  C   UNL     1       7.837   8.184  17.775  0.00  0.00    +0.000 A 
ATOM     22  F   UNL     1       8.336   9.426  17.731  0.00  0.00    +0.000 F 
ATOM     23  C   UNL     1       6.865   7.804  16.860  0.00  0.00    +0.000 A 
ATOM     24  C   UNL     1       6.321   6.500  16.879  0.00  0.00    +0.000 A 
BRANCH  24  25
ATOM     25  C   UNL     1       5.268   6.191  15.839  0.00  0.00    +0.000 C 
ATOM     26  F   UNL     1       5.653   5.341  14.850  0.00  0.00    +0.000 F 
ATOM     27  F   UNL     1       4.156   5.625  16.389  0.00  0.00    +0.000 F 
ATOM     28  F   UNL     1       4.831   7.317  15.206  0.00  0.00    +0.000 F 
ENDBRANCH  24  25
ENDBRANCH  17  18
ENDBRANCH  15  17
ENDBRANCH   6  15
TORSDOF 6
ENDMDL
MODEL 4
REMARK VINA RESULT:      -7.8      4.243      5.625
REMARK  Name = 
REMARK  7 active torsions:
REMARK  status: ('A' for Active; 'I' for Inactive)
REMARK    1  A    between atoms: C_1  and  O_2
REMARK    2  A    between atoms: O_2  and  C_3
REMARK    3  A    between atoms: C_6  and  C_7
REMARK    4  A    between atoms: C_14  and  N_15
REMARK    5  A    between atoms: N_15  and  C_16
REMARK    6  A    between atoms: C_16  and  C_17
REMARK    7  A    between atoms: C_23  and  C_24
REMARK                            x       y       z     vdW  Elec       q    Type
REMARK                         _______ _______ _______ _____ _____    ______ ____
ROOT
ATOM      1  C   UNL     1       2.365   4.064  20.248  0.00  0.00    +0.000 A 
ATOM      2  C   UNL     1       2.904   3.015  19.536  0.00  0.00    +0.000 A 
ATOM      3  N   UNL     1       3.802   3.157  18.548  0.00  0.00    +0.000 NA
ATOM      4  C   UNL     1       4.172   4.422  18.250  0.00  0.00    +0.000 A 
ATOM      5  N   UNL     1       3.694   5.516  18.883  0.00  0.00    +0.000 NA
ATOM      6  C   UNL     1       2.791   5.337  19.866  0.00  0.00    +0.000 A 
ENDROOT
BRANCH   4   7
ATOM      7  C   UNL     1       5.164   4.587  17.155  0.00  0.00    +0.000 A 
ATOM      8  C   UNL     1       4.885   4.162  15.852  0.00  0.00    +0.000 A 
ATOM      9  C   UNL     1       5.830   4.339  14.846  0.00  0.00    +0.000 A 
ATOM     10  C   UNL     1       7.039   4.942  15.155  0.00  0.00    +0.000 A 
ATOM     11  C   UNL     1       7.255   5.338  16.464  0.00  0.00    +0.000 A 
ATOM     12  N   UNL     1       6.356   5.172  17.462  0.00  0.00    +0.000 NA
ENDBRANCH   4   7
BRANCH   1  14
ATOM     13  C   UNL     1       1.355   2.602  21.786  0.00  0.00    +0.000 C 
ATOM     14  O   UNL     1       1.467   3.928  21.272  0.00  0.00    +0.000 OA
ENDBRANCH   1  14
BRANCH   6  15
ATOM     15  N   UNL     1       2.273   6.462  20.550  0.00  0.00    +0.000 N 
ATOM     16  H   UNL     1       1.432   6.145  21.029  0.00  0.00    +0.000 HD
BRANCH  15  17
ATOM     17  C   UNL     1       2.041   7.634  19.720  0.00  0.00    +0.000 C 
BRANCH  17  18
ATOM     18  C   UNL     1       1.264   8.671  20.524  0.00  0.00    +0.000 A 
ATOM     19  C   UNL     1       1.089   8.434  21.906  0.00  0.00    +0.000 A 
ATOM     20  C   UNL     1       0.392   9.331  22.716  0.00  0.00    +0.000 A 
ATOM     21  C   UNL     1      -0.150  10.473  22.153  0.00  0.00    +0.000 A 
ATOM     22  F   UNL     1      -0.823  11.338  22.922  0.00  0.00    +0.000 F 
ATOM     23  C   UNL     1      -0.005  10.733  20.797  0.00  0.00    +0.000 A 
ATOM     24  C   UNL     1       0.702   9.841  19.959  0.00  0.00    +0.000 A 
BRANCH  24  25
ATOM     25  C   UNL     1       0.800  10.219  18.499  0.00  0.00    +0.000 C 
ATOM     26  F   UNL     1       0.410   9.260  17.618  0.00  0.00    +0.000 F 
ATOM     27  F   UNL     1       0.041  11.312  18.201  0.00  0.00    +0.000 F 
ATOM     28  F   UNL     1       2.074  10.549  18.142  0.00  0.00    +0.000 F 
ENDBRANCH  24  25
ENDBRANCH  17  18
ENDBRANCH  15  17
ENDBRANCH   6  15
TORSDOF 6
ENDMDL
MODEL 5
REMARK VINA RESULT:      -7.8      4.192      5.598
REMARK  Name = 
REMARK  7 active torsions:
REMARK  status: ('A' for Active; 'I' for Inactive)
REMARK    1  A    between atoms: C_1  and  O_2
REMARK    2  A    between atoms: O_2  and  C_3
REMARK    3  A    between atoms: C_6  and  C_7
REMARK    4  A    between atoms: C_14  and  N_15
REMARK    5  A    between atoms: N_15  and  C_16
REMARK    6  A    between atoms: C_16  and  C_17
REMARK    7  A    between atoms: C_23  and  C_24
REMARK                            x       y       z     vdW  Elec       q    Type
REMARK                         _______ _______ _______ _____ _____    ______ ____
ROOT
ATOM      1  C   UNL     1       2.568   4.179  20.115  0.00  0.00    +0.000 A 
ATOM      2  C   UNL     1       3.053   3.113  19.390  0.00  0.00    +0.000 A 
ATOM      3  N   UNL     1       3.919   3.226  18.369  0.00  0.00    +0.000 NA
ATOM      4  C   UNL     1       4.311   4.479  18.052  0.00  0.00    +0.000 A 
ATOM      5  N   UNL     1       3.886   5.588  18.695  0.00  0.00    +0.000 NA
ATOM      6  C   UNL     1       3.014   5.439  19.711  0.00  0.00    +0.000 A 
ENDROOT
BRANCH   4   7
ATOM      7  C   UNL     1       5.267   4.612  16.922  0.00  0.00    +0.000 A 
ATOM      8  C   UNL     1       6.484   5.284  17.075  0.00  0.00    +0.000 A 
ATOM      9  C   UNL     1       7.363   5.385  16.000  0.00  0.00    +0.000 A 
ATOM     10  C   UNL     1       7.017   4.808  14.789  0.00  0.00    +0.000 A 
ATOM     11  C   UNL     1       5.797   4.159  14.702  0.00  0.00    +0.000 A 
ATOM     12  N   UNL     1       4.921   4.052  15.728  0.00  0.00    +0.000 NA
ENDBRANCH   4   7
BRANCH   1  14
ATOM     13  C   UNL     1       1.472   2.734  21.610  0.00  0.00    +0.000 C 
ATOM     14  O   UNL     1       1.704   4.072  21.171  0.00  0.00    +0.000 OA
ENDBRANCH   1  14
BRANCH   6  15
ATOM     15  N   UNL     1       2.551   6.580  20.407  0.00  0.00    +0.000 N 
ATOM     16  H   UNL     1       1.846   6.249  21.064  0.00  0.00    +0.000 HD
BRANCH  15  17
ATOM     17  C   UNL     1       2.071   7.663  19.563  0.00  0.00    +0.000 C 
BRANCH  17  18
ATOM     18  C   UNL     1       1.294   8.658  20.418  0.00  0.00    +0.000 A 
ATOM     19  C   UNL     1       1.159   8.375  21.796  0.00  0.00    +0.000 A 
ATOM     20  C   UNL     1       0.465   9.232  22.651  0.00  0.00    +0.000 A 
ATOM     21  C   UNL     1      -0.114  10.379  22.136  0.00  0.00    +0.000 A 
ATOM     22  F   UNL     1      -0.785  11.205  22.949  0.00  0.00    +0.000 F 
ATOM     23  C   UNL     1      -0.010  10.683  20.786  0.00  0.00    +0.000 A 
ATOM     24  C   UNL     1       0.693   9.832  19.903  0.00  0.00    +0.000 A 
BRANCH  24  25
ATOM     25  C   UNL     1       0.746  10.257  18.454  0.00  0.00    +0.000 C 
ATOM     26  F   UNL     1       1.991  10.376  17.923  0.00  0.00    +0.000 F 
ATOM     27  F   UNL     1       0.089   9.381  17.641  0.00  0.00    +0.000 F 
ATOM     28  F   UNL     1       0.144  11.464  18.254  0.00  0.00    +0.000 F 
ENDBRANCH  24  25
ENDBRANCH  17  18
ENDBRANCH  15  17
ENDBRANCH   6  15
TORSDOF 6
ENDMDL
MODEL 6
REMARK VINA RESULT:      -7.6      3.426      7.185
REMARK  Name = 
REMARK  7 active torsions:
REMARK  status: ('A' for Active; 'I' for Inactive)
REMARK    1  A    between atoms: C_1  and  O_2
REMARK    2  A    between atoms: O_2  and  C_3
REMARK    3  A    between atoms: C_6  and  C_7
REMARK    4  A    between atoms: C_14  and  N_15
REMARK    5  A    between atoms: N_15  and  C_16
REMARK    6  A    between atoms: C_16  and  C_17
REMARK    7  A    between atoms: C_23  and  C_24
REMARK                            x       y       z     vdW  Elec       q    Type
REMARK                         _______ _______ _______ _____ _____    ______ ____
ROOT
ATOM      1  C   UNL     1       2.687   4.219  20.258  0.00  0.00    +0.000 A 
ATOM      2  C   UNL     1       1.888   5.037  21.028  0.00  0.00    +0.000 A 
ATOM      3  N   UNL     1       1.613   6.318  20.732  0.00  0.00    +0.000 NA
ATOM      4  C   UNL     1       2.181   6.809  19.609  0.00  0.00    +0.000 A 
ATOM      5  N   UNL     1       2.986   6.092  18.795  0.00  0.00    +0.000 NA
ATOM      6  C   UNL     1       3.244   4.811  19.123  0.00  0.00    +0.000 A 
ENDROOT
BRANCH   4   7
ATOM      7  C   UNL     1       1.885   8.227  19.277  0.00  0.00    +0.000 A 
ATOM      8  C   UNL     1       2.264   8.781  18.050  0.00  0.00    +0.000 A 
ATOM      9  C   UNL     1       1.964  10.110  17.764  0.00  0.00    +0.000 A 
ATOM     10  C   UNL     1       1.284  10.865  18.705  0.00  0.00    +0.000 A 
ATOM     11  C   UNL     1       0.938  10.259  19.901  0.00  0.00    +0.000 A 
ATOM     12  N   UNL     1       1.223   8.972  20.208  0.00  0.00    +0.000 NA
ENDBRANCH   4   7
BRANCH   1  14
ATOM     13  C   UNL     1       1.910   2.230  21.239  0.00  0.00    +0.000 C 
ATOM     14  O   UNL     1       2.953   2.907  20.539  0.00  0.00    +0.000 OA
ENDBRANCH   1  14
BRANCH   6  15
ATOM     15  N   UNL     1       4.081   4.032  18.291  0.00  0.00    +0.000 N 
ATOM     16  H   UNL     1       3.907   3.059  18.538  0.00  0.00    +0.000 HD
BRANCH  15  17
ATOM     17  C   UNL     1       5.492   4.381  18.338  0.00  0.00    +0.000 C 
BRANCH  17  18
ATOM     18  C   UNL     1       6.007   4.580  16.916  0.00  0.00    +0.000 A 
ATOM     19  C   UNL     1       5.639   3.622  15.945  0.00  0.00    +0.000 A 
ATOM     20  C   UNL     1       6.066   3.728  14.620  0.00  0.00    +0.000 A 
ATOM     21  C   UNL     1       6.876   4.787  14.252  0.00  0.00    +0.000 A 
ATOM     22  F   UNL     1       7.292   4.894  12.983  0.00  0.00    +0.000 F 
ATOM     23  C   UNL     1       7.264   5.741  15.182  0.00  0.00    +0.000 A 
ATOM     24  C   UNL     1       6.840   5.657  16.527  0.00  0.00    +0.000 A 
BRANCH  24  25
ATOM     25  C   UNL     1       7.321   6.747  17.457  0.00  0.00    +0.000 C 
ATOM     26  F   UNL     1       8.117   7.692  16.891  0.00  0.00    +0.000 F 
ATOM     27  F   UNL     1       6.285   7.436  18.017  0.00  0.00    +0.000 F 
ATOM     28  F   UNL     1       8.035   6.245  18.505  0.00  0.00    +0.000 F 
ENDBRANCH  24  25
ENDBRANCH  17  18
ENDBRANCH  15  17
ENDBRANCH   6  15
TORSDOF 6
ENDMDL
MODEL 7
REMARK VINA RESULT:      -7.5      1.748      2.358
REMARK  Name = 
REMARK  7 active torsions:
REMARK  status: ('A' for Active; 'I' for Inactive)
REMARK    1  A    between atoms: C_1  and  O_2
REMARK    2  A    between atoms: O_2  and  C_3
REMARK    3  A    between atoms: C_6  and  C_7
REMARK    4  A    between atoms: C_14  and  N_15
REMARK    5  A    between atoms: N_15  and  C_16
REMARK    6  A    between atoms: C_16  and  C_17
REMARK    7  A    between atoms: C_23  and  C_24
REMARK                            x       y       z     vdW  Elec       q    Type
REMARK                         _______ _______ _______ _____ _____    ______ ____
ROOT
ATOM      1  C   UNL     1       5.945   4.081  18.078  0.00  0.00    +0.000 A 
ATOM      2  C   UNL     1       7.112   4.649  17.614  0.00  0.00    +0.000 A 
ATOM      3  N   UNL     1       7.418   4.789  16.314  0.00  0.00    +0.000 NA
ATOM      4  C   UNL     1       6.510   4.322  15.431  0.00  0.00    +0.000 A 
ATOM      5  N   UNL     1       5.343   3.740  15.785  0.00  0.00    +0.000 NA
ATOM      6  C   UNL     1       5.069   3.613  17.097  0.00  0.00    +0.000 A 
ENDROOT
BRANCH   4   7
ATOM      7  C   UNL     1       6.843   4.470  13.989  0.00  0.00    +0.000 A 
ATOM      8  C   UNL     1       6.272   3.637  13.022  0.00  0.00    +0.000 A 
ATOM      9  C   UNL     1       6.597   3.806  11.679  0.00  0.00    +0.000 A 
ATOM     10  C   UNL     1       7.484   4.809  11.321  0.00  0.00    +0.000 A 
ATOM     11  C   UNL     1       8.015   5.599  12.326  0.00  0.00    +0.000 A 
ATOM     12  N   UNL     1       7.723   5.452  13.639  0.00  0.00    +0.000 NA
ENDBRANCH   4   7
BRANCH   1  14
ATOM     13  C   UNL     1       5.395   5.194  20.073  0.00  0.00    +0.000 C 
ATOM     14  O   UNL     1       5.614   3.956  19.399  0.00  0.00    +0.000 OA
ENDBRANCH   1  14
BRANCH   6  15
ATOM     15  N   UNL     1       3.855   3.010  17.502  0.00  0.00    +0.000 N 
ATOM     16  H   UNL     1       3.857   2.069  17.111  0.00  0.00    +0.000 HD
BRANCH  15  17
ATOM     17  C   UNL     1       2.654   3.757  17.164  0.00  0.00    +0.000 C 
BRANCH  17  18
ATOM     18  C   UNL     1       2.335   4.732  18.293  0.00  0.00    +0.000 A 
ATOM     19  C   UNL     1       2.671   6.091  18.101  0.00  0.00    +0.000 A 
ATOM     20  C   UNL     1       2.414   7.050  19.082  0.00  0.00    +0.000 A 
ATOM     21  C   UNL     1       1.829   6.660  20.273  0.00  0.00    +0.000 A 
ATOM     22  F   UNL     1       1.582   7.574  21.221  0.00  0.00    +0.000 F 
ATOM     23  C   UNL     1       1.495   5.332  20.499  0.00  0.00    +0.000 A 
ATOM     24  C   UNL     1       1.740   4.345  19.518  0.00  0.00    +0.000 A 
BRANCH  24  25
ATOM     25  C   UNL     1       1.339   2.930  19.866  0.00  0.00    +0.000 C 
ATOM     26  F   UNL     1       0.725   2.775  21.069  0.00  0.00    +0.000 F 
ATOM     27  F   UNL     1       0.478   2.403  18.950  0.00  0.00    +0.000 F 
ATOM     28  F   UNL     1       2.411   2.088  19.889  0.00  0.00    +0.000 F 
ENDBRANCH  24  25
ENDBRANCH  17  18
ENDBRANCH  15  17
ENDBRANCH   6  15
TORSDOF 6
ENDMDL
MODEL 8
REMARK VINA RESULT:      -7.5      3.801      5.269
REMARK  Name = 
REMARK  7 active torsions:
REMARK  status: ('A' for Active; 'I' for Inactive)
REMARK    1  A    between atoms: C_1  and  O_2
REMARK    2  A    between atoms: O_2  and  C_3
REMARK    3  A    between atoms: C_6  and  C_7
REMARK    4  A    between atoms: C_14  and  N_15
REMARK    5  A    between atoms: N_15  and  C_16
REMARK    6  A    between atoms: C_16  and  C_17
REMARK    7  A    between atoms: C_23  and  C_24
REMARK                            x       y       z     vdW  Elec       q    Type
REMARK                         _______ _______ _______ _____ _____    ______ ____
ROOT
ATOM      1  C   UNL     1       1.971   3.324  19.738  0.00  0.00    +0.000 A 
ATOM      2  C   UNL     1       2.698   2.352  19.086  0.00  0.00    +0.000 A 
ATOM      3  N   UNL     1       3.682   2.609  18.209  0.00  0.00    +0.000 NA
ATOM      4  C   UNL     1       3.943   3.911  17.964  0.00  0.00    +0.000 A 
ATOM      5  N   UNL     1       3.281   4.936  18.544  0.00  0.00    +0.000 NA
ATOM      6  C   UNL     1       2.297   4.643  19.416  0.00  0.00    +0.000 A 
ENDROOT
BRANCH   4   7
ATOM      7  C   UNL     1       5.030   4.202  16.992  0.00  0.00    +0.000 A 
ATOM      8  C   UNL     1       4.779   4.254  15.617  0.00  0.00    +0.000 A 
ATOM      9  C   UNL     1       5.816   4.538  14.731  0.00  0.00    +0.000 A 
ATOM     10  C   UNL     1       7.086   4.772  15.233  0.00  0.00    +0.000 A 
ATOM     11  C   UNL     1       7.268   4.705  16.604  0.00  0.00    +0.000 A 
ATOM     12  N   UNL     1       6.281   4.424  17.486  0.00  0.00    +0.000 NA
ENDBRANCH   4   7
BRANCH   1  14
ATOM     13  C   UNL     1       1.442   2.514  21.880  0.00  0.00    +0.000 C 
ATOM     14  O   UNL     1       0.982   3.073  20.651  0.00  0.00    +0.000 OA
ENDBRANCH   1  14
BRANCH   6  15
ATOM     15  N   UNL     1       1.584   5.692  20.042  0.00  0.00    +0.000 N 
ATOM     16  H   UNL     1       0.821   5.937  19.413  0.00  0.00    +0.000 HD
BRANCH  15  17
ATOM     17  C   UNL     1       2.389   6.842  20.424  0.00  0.00    +0.000 C 
BRANCH  17  18
ATOM     18  C   UNL     1       1.497   8.075  20.502  0.00  0.00    +0.000 A 
ATOM     19  C   UNL     1       0.806   8.310  21.712  0.00  0.00    +0.000 A 
ATOM     20  C   UNL     1      -0.032   9.415  21.870  0.00  0.00    +0.000 A 
ATOM     21  C   UNL     1      -0.199  10.295  20.816  0.00  0.00    +0.000 A 
ATOM     22  F   UNL     1      -1.003  11.356  20.958  0.00  0.00    +0.000 F 
ATOM     23  C   UNL     1       0.457  10.089  19.610  0.00  0.00    +0.000 A 
ATOM     24  C   UNL     1       1.314   8.981  19.429  0.00  0.00    +0.000 A 
BRANCH  24  25
ATOM     25  C   UNL     1       1.978   8.851  18.077  0.00  0.00    +0.000 C 
ATOM     26  F   UNL     1       3.283   8.473  18.099  0.00  0.00    +0.000 F 
ATOM     27  F   UNL     1       1.350   7.936  17.285  0.00  0.00    +0.000 F 
ATOM     28  F   UNL     1       1.946  10.023  17.380  0.00  0.00    +0.000 F 
ENDBRANCH  24  25
ENDBRANCH  17  18
ENDBRANCH  15  17
ENDBRANCH   6  15
TORSDOF 6
ENDMDL
MODEL 9
REMARK VINA RESULT:      -7.5      3.172      6.656
REMARK  Name = 
REMARK  7 active torsions:
REMARK  status: ('A' for Active; 'I' for Inactive)
REMARK    1  A    between atoms: C_1  and  O_2
REMARK    2  A    between atoms: O_2  and  C_3
REMARK    3  A    between atoms: C_6  and  C_7
REMARK    4  A    between atoms: C_14  and  N_15
REMARK    5  A    between atoms: N_15  and  C_16
REMARK    6  A    between atoms: C_16  and  C_17
REMARK    7  A    between atoms: C_23  and  C_24
REMARK                            x       y       z     vdW  Elec       q    Type
REMARK                         _______ _______ _______ _____ _____    ______ ____
ROOT
ATOM      1  C   UNL     1       2.530   4.057  19.512  0.00  0.00    +0.000 A 
ATOM      2  C   UNL     1       2.031   4.831  20.537  0.00  0.00    +0.000 A 
ATOM      3  N   UNL     1       1.795   6.149  20.440  0.00  0.00    +0.000 NA
ATOM      4  C   UNL     1       2.086   6.725  19.254  0.00  0.00    +0.000 A 
ATOM      5  N   UNL     1       2.587   6.056  18.193  0.00  0.00    +0.000 NA
ATOM      6  C   UNL     1       2.816   4.735  18.326  0.00  0.00    +0.000 A 
ENDROOT
BRANCH   4   7
ATOM      7  C   UNL     1       1.830   8.185  19.140  0.00  0.00    +0.000 A 
ATOM      8  C   UNL     1       2.217   8.905  18.005  0.00  0.00    +0.000 A 
ATOM      9  C   UNL     1       1.955  10.270  17.924  0.00  0.00    +0.000 A 
ATOM     10  C   UNL     1       1.304  10.895  18.975  0.00  0.00    +0.000 A 
ATOM     11  C   UNL     1       0.949  10.127  20.071  0.00  0.00    +0.000 A 
ATOM     12  N   UNL     1       1.197   8.801  20.179  0.00  0.00    +0.000 NA
ENDBRANCH   4   7
BRANCH   1  14
ATOM     13  C   UNL     1       1.591   1.906  19.389  0.00  0.00    +0.000 C 
ATOM     14  O   UNL     1       2.753   2.709  19.594  0.00  0.00    +0.000 OA
ENDBRANCH   1  14
BRANCH   6  15
ATOM     15  N   UNL     1       3.339   4.004  17.234  0.00  0.00    +0.000 N 
ATOM     16  H   UNL     1       2.611   3.350  16.951  0.00  0.00    +0.000 HD
BRANCH  15  17
ATOM     17  C   UNL     1       4.616   3.353  17.482  0.00  0.00    +0.000 C 
BRANCH  17  18
ATOM     18  C   UNL     1       5.683   4.416  17.719  0.00  0.00    +0.000 A 
ATOM     19  C   UNL     1       5.951   4.791  19.055  0.00  0.00    +0.000 A 
ATOM     20  C   UNL     1       6.912   5.756  19.362  0.00  0.00    +0.000 A 
ATOM     21  C   UNL     1       7.610   6.367  18.336  0.00  0.00    +0.000 A 
ATOM     22  F   UNL     1       8.532   7.296  18.622  0.00  0.00    +0.000 F 
ATOM     23  C   UNL     1       7.365   6.030  17.012  0.00  0.00    +0.000 A 
ATOM     24  C   UNL     1       6.401   5.052  16.678  0.00  0.00    +0.000 A 
BRANCH  24  25
ATOM     25  C   UNL     1       6.214   4.762  15.207  0.00  0.00    +0.000 C 
ATOM     26  F   UNL     1       5.111   5.315  14.637  0.00  0.00    +0.000 F 
ATOM     27  F   UNL     1       7.266   5.203  14.460  0.00  0.00    +0.000 F 
ATOM     28  F   UNL     1       6.124   3.424  14.959  0.00  0.00    +0.000 F 
ENDBRANCH  24  25
ENDBRANCH  17  18
ENDBRANCH  15  17
ENDBRANCH   6  15
TORSDOF 6
ENDMDL
