MODEL 1
REMARK VINA RESULT:      -7.1      0.000      0.000
REMARK  Name = 
REMARK  5 active torsions:
REMARK  status: ('A' for Active; 'I' for Inactive)
REMARK    1  A    between atoms: C_1  and  C_2
REMARK    2  A    between atoms: C_2  and  N_3
REMARK    3  A    between atoms: C_10  and  C_11
REMARK    4  A    between atoms: C_11  and  C_12
REMARK    5  A    between atoms: C_11  and  N_19
REMARK                            x       y       z     vdW  Elec       q    Type
REMARK                         _______ _______ _______ _____ _____    ______ ____
ROOT
ATOM      1  C   UNL     1       5.057   5.463  16.434  0.00  0.00    +0.000 C 
ENDROOT
BRANCH   1   9
ATOM      2  N   UNL     1       2.994   6.383  18.741  0.00  0.00    +0.000 N 
ATOM      3  C   UNL     1       1.923   6.268  19.754  0.00  0.00    +0.000 C 
ATOM      4  C   UNL     1       1.890   4.825  20.242  0.00  0.00    +0.000 C 
ATOM      5  C   UNL     1       2.668   4.143  19.164  0.00  0.00    +0.000 A 
ATOM      6  C   UNL     1       2.792   2.770  19.034  0.00  0.00    +0.000 A 
ATOM      7  C   UNL     1       3.621   2.285  18.041  0.00  0.00    +0.000 A 
ATOM      8  C   UNL     1       4.312   3.186  17.223  0.00  0.00    +0.000 A 
ATOM      9  C   UNL     1       4.186   4.602  17.344  0.00  0.00    +0.000 A 
ATOM     10  C   UNL     1       3.320   5.090  18.336  0.00  0.00    +0.000 A 
BRANCH   2  12
ATOM     11  C   UNL     1       1.953   8.607  18.367  0.00  0.00    +0.000 C 
ATOM     12  C   UNL     1       3.074   7.644  18.019  0.00  0.00    +0.000 C 
ENDBRANCH   2  12
ENDBRANCH   1   9
BRANCH   1  13
ATOM     13  C   UNL     1       6.201   6.170  17.186  0.00  0.00    +0.000 A 
ATOM     14  C   UNL     1       6.889   5.565  18.256  0.00  0.00    +0.000 A 
ATOM     15  C   UNL     1       7.896   6.250  18.938  0.00  0.00    +0.000 A 
ATOM     16  C   UNL     1       8.220   7.545  18.560  0.00  0.00    +0.000 A 
ATOM     17  F   UNL     1       9.175   8.208  19.227  0.00  0.00    +0.000 F 
ATOM     18  C   UNL     1       7.567   8.165  17.502  0.00  0.00    +0.000 A 
ATOM     19  C   UNL     1       6.560   7.482  16.817  0.00  0.00    +0.000 A 
ENDBRANCH   1  13
BRANCH   1  20
ATOM     20  N   UNL     1       5.544   4.776  15.215  0.00  0.00    +0.000 N 
ATOM     21  C   UNL     1       6.871   4.539  14.926  0.00  0.00    +0.000 A 
ATOM     22  C   UNL     1       6.875   3.919  13.701  0.00  0.00    +0.000 A 
ATOM     23  N   UNL     1       5.599   3.782  13.227  0.00  0.00    +0.000 NA
ATOM     24  C   UNL     1       4.825   4.317  14.145  0.00  0.00    +0.000 A 
ENDBRANCH   1  20
TORSDOF 4
ENDMDL
MODEL 2
REMARK VINA RESULT:      -7.1      0.167      1.000
REMARK  Name = 
REMARK  5 active torsions:
REMARK  status: ('A' for Active; 'I' for Inactive)
REMARK    1  A    between atoms: C_1  and  C_2
REMARK    2  A    between atoms: C_2  and  N_3
REMARK    3  A    between atoms: C_10  and  C_11
REMARK    4  A    between atoms: C_11  and  C_12
REMARK    5  A    between atoms: C_11  and  N_19
REMARK                            x       y       z     vdW  Elec       q    Type
REMARK                         _______ _______ _______ _____ _____    ______ ____
ROOT
ATOM      1  C   UNL     1       5.083   5.590  16.410  0.00  0.00    +0.000 C 
ENDROOT
BRANCH   1   9
ATOM      2  N   UNL     1       3.007   6.513  18.704  0.00  0.00    +0.000 N 
ATOM      3  C   UNL     1       1.929   6.400  19.710  0.00  0.00    +0.000 C 
ATOM      4  C   UNL     1       1.891   4.957  20.198  0.00  0.00    +0.000 C 
ATOM      5  C   UNL     1       2.675   4.274  19.125  0.00  0.00    +0.000 A 
ATOM      6  C   UNL     1       2.798   2.901  18.996  0.00  0.00    +0.000 A 
ATOM      7  C   UNL     1       3.633   2.415  18.008  0.00  0.00    +0.000 A 
ATOM      8  C   UNL     1       4.329   3.315  17.195  0.00  0.00    +0.000 A 
ATOM      9  C   UNL     1       4.205   4.731  17.315  0.00  0.00    +0.000 A 
ATOM     10  C   UNL     1       3.333   5.220  18.301  0.00  0.00    +0.000 A 
BRANCH   2  12
ATOM     11  C   UNL     1       1.808   8.582  18.030  0.00  0.00    +0.000 C 
ATOM     12  C   UNL     1       3.092   7.774  17.982  0.00  0.00    +0.000 C 
ENDBRANCH   2  12
ENDBRANCH   1   9
BRANCH   1  13
ATOM     13  C   UNL     1       6.180   6.350  17.178  0.00  0.00    +0.000 A 
ATOM     14  C   UNL     1       6.534   7.678  16.873  0.00  0.00    +0.000 A 
ATOM     15  C   UNL     1       7.560   8.324  17.567  0.00  0.00    +0.000 A 
ATOM     16  C   UNL     1       8.243   7.645  18.566  0.00  0.00    +0.000 A 
ATOM     17  F   UNL     1       9.239   8.259  19.220  0.00  0.00    +0.000 F 
ATOM     18  C   UNL     1       7.910   6.338  18.897  0.00  0.00    +0.000 A 
ATOM     19  C   UNL     1       6.884   5.690  18.206  0.00  0.00    +0.000 A 
ENDBRANCH   1  13
BRANCH   1  20
ATOM     20  N   UNL     1       5.630   4.884  15.227  0.00  0.00    +0.000 N 
ATOM     21  C   UNL     1       6.973   4.753  14.944  0.00  0.00    +0.000 A 
ATOM     22  C   UNL     1       7.031   4.069  13.755  0.00  0.00    +0.000 A 
ATOM     23  N   UNL     1       5.773   3.791  13.297  0.00  0.00    +0.000 NA
ATOM     24  C   UNL     1       4.954   4.303  14.189  0.00  0.00    +0.000 A 
ENDBRANCH   1  20
TORSDOF 4
ENDMDL
MODEL 3
REMARK VINA RESULT:      -6.8      2.531      4.717
REMARK  Name = 
REMARK  5 active torsions:
REMARK  status: ('A' for Active; 'I' for Inactive)
REMARK    1  A    between atoms: C_1  and  C_2
REMARK    2  A    between atoms: C_2  and  N_3
REMARK    3  A    between atoms: C_10  and  C_11
REMARK    4  A    between atoms: C_11  and  C_12
REMARK    5  A    between atoms: C_11  and  N_19
REMARK                            x       y       z     vdW  Elec       q    Type
REMARK                         _______ _______ _______ _____ _____    ______ ____
ROOT
ATOM      1  C   UNL     1       5.896   5.344  17.498  0.00  0.00    +0.000 C 
ENDROOT
BRANCH   1   9
ATOM      2  N   UNL     1       3.576   3.450  18.705  0.00  0.00    +0.000 N 
ATOM      3  C   UNL     1       2.277   3.080  19.304  0.00  0.00    +0.000 C 
ATOM      4  C   UNL     1       1.262   4.152  18.925  0.00  0.00    +0.000 C 
ATOM      5  C   UNL     1       2.166   5.258  18.490  0.00  0.00    +0.000 A 
ATOM      6  C   UNL     1       1.749   6.546  18.202  0.00  0.00    +0.000 A 
ATOM      7  C   UNL     1       2.687   7.440  17.721  0.00  0.00    +0.000 A 
ATOM      8  C   UNL     1       4.005   7.013  17.529  0.00  0.00    +0.000 A 
ATOM      9  C   UNL     1       4.447   5.691  17.829  0.00  0.00    +0.000 A 
ATOM     10  C   UNL     1       3.497   4.794  18.344  0.00  0.00    +0.000 A 
BRANCH   2  12
ATOM     11  C   UNL     1       4.551   1.967  20.443  0.00  0.00    +0.000 C 
ATOM     12  C   UNL     1       4.725   2.647  19.098  0.00  0.00    +0.000 C 
ENDBRANCH   2  12
ENDBRANCH   1   9
BRANCH   1  13
ATOM     13  C   UNL     1       6.090   4.895  16.038  0.00  0.00    +0.000 A 
ATOM     14  C   UNL     1       7.290   5.116  15.333  0.00  0.00    +0.000 A 
ATOM     15  C   UNL     1       7.418   4.728  13.998  0.00  0.00    +0.000 A 
ATOM     16  C   UNL     1       6.348   4.121  13.356  0.00  0.00    +0.000 A 
ATOM     17  F   UNL     1       6.466   3.764  12.070  0.00  0.00    +0.000 F 
ATOM     18  C   UNL     1       5.156   3.880  14.027  0.00  0.00    +0.000 A 
ATOM     19  C   UNL     1       5.025   4.266  15.363  0.00  0.00    +0.000 A 
ENDBRANCH   1  13
BRANCH   1  20
ATOM     20  N   UNL     1       6.884   6.378  17.890  0.00  0.00    +0.000 N 
ATOM     21  C   UNL     1       7.039   7.594  17.258  0.00  0.00    +0.000 A 
ATOM     22  C   UNL     1       8.072   8.217  17.913  0.00  0.00    +0.000 A 
ATOM     23  N   UNL     1       8.561   7.420  18.910  0.00  0.00    +0.000 NA
ATOM     24  C   UNL     1       7.842   6.320  18.865  0.00  0.00    +0.000 A 
ENDBRANCH   1  20
TORSDOF 4
ENDMDL
MODEL 4
REMARK VINA RESULT:      -6.7      2.518      4.670
REMARK  Name = 
REMARK  5 active torsions:
REMARK  status: ('A' for Active; 'I' for Inactive)
REMARK    1  A    between atoms: C_1  and  C_2
REMARK    2  A    between atoms: C_2  and  N_3
REMARK    3  A    between atoms: C_10  and  C_11
REMARK    4  A    between atoms: C_11  and  C_12
REMARK    5  A    between atoms: C_11  and  N_19
REMARK                            x       y       z     vdW  Elec       q    Type
REMARK                         _______ _______ _______ _____ _____    ______ ____
ROOT
ATOM      1  C   UNL     1       5.898   5.454  17.478  0.00  0.00    +0.000 C 
ENDROOT
BRANCH   1   9
ATOM      2  N   UNL     1       3.671   3.651  18.966  0.00  0.00    +0.000 N 
ATOM      3  C   UNL     1       2.410   3.323  19.664  0.00  0.00    +0.000 C 
ATOM      4  C   UNL     1       1.362   4.350  19.251  0.00  0.00    +0.000 C 
ATOM      5  C   UNL     1       2.228   5.423  18.675  0.00  0.00    +0.000 A 
ATOM      6  C   UNL     1       1.780   6.678  18.301  0.00  0.00    +0.000 A 
ATOM      7  C   UNL     1       2.679   7.535  17.696  0.00  0.00    +0.000 A 
ATOM      8  C   UNL     1       3.990   7.103  17.470  0.00  0.00    +0.000 A 
ATOM      9  C   UNL     1       4.465   5.815  17.857  0.00  0.00    +0.000 A 
ATOM     10  C   UNL     1       3.555   4.958  18.497  0.00  0.00    +0.000 A 
BRANCH   2  12
ATOM     11  C   UNL     1       4.567   1.863  20.440  0.00  0.00    +0.000 C 
ATOM     12  C   UNL     1       4.849   2.894  19.362  0.00  0.00    +0.000 C 
ENDBRANCH   2  12
ENDBRANCH   1   9
BRANCH   1  13
ATOM     13  C   UNL     1       6.036   4.985  16.017  0.00  0.00    +0.000 A 
ATOM     14  C   UNL     1       4.991   4.337  15.330  0.00  0.00    +0.000 A 
ATOM     15  C   UNL     1       5.164   3.892  14.018  0.00  0.00    +0.000 A 
ATOM     16  C   UNL     1       6.384   4.087  13.384  0.00  0.00    +0.000 A 
ATOM     17  F   UNL     1       6.554   3.645  12.131  0.00  0.00    +0.000 F 
ATOM     18  C   UNL     1       7.429   4.732  14.032  0.00  0.00    +0.000 A 
ATOM     19  C   UNL     1       7.259   5.179  15.344  0.00  0.00    +0.000 A 
ENDBRANCH   1  13
BRANCH   1  20
ATOM     20  N   UNL     1       6.907   6.484  17.821  0.00  0.00    +0.000 N 
ATOM     21  C   UNL     1       7.837   6.365  18.831  0.00  0.00    +0.000 A 
ATOM     22  C   UNL     1       8.539   7.545  18.824  0.00  0.00    +0.000 A 
ATOM     23  N   UNL     1       8.061   8.384  17.856  0.00  0.00    +0.000 NA
ATOM     24  C   UNL     1       7.075   7.730  17.281  0.00  0.00    +0.000 A 
ENDBRANCH   1  20
TORSDOF 4
ENDMDL
MODEL 5
REMARK VINA RESULT:      -6.6      5.786      9.005
REMARK  Name = 
REMARK  5 active torsions:
REMARK  status: ('A' for Active; 'I' for Inactive)
REMARK    1  A    between atoms: C_1  and  C_2
REMARK    2  A    between atoms: C_2  and  N_3
REMARK    3  A    between atoms: C_10  and  C_11
REMARK    4  A    between atoms: C_11  and  C_12
REMARK    5  A    between atoms: C_11  and  N_19
REMARK                            x       y       z     vdW  Elec       q    Type
REMARK                         _______ _______ _______ _____ _____    ______ ____
ROOT
ATOM      1  C   UNL     1      -0.332  11.051  19.625  0.00  0.00    +0.000 C 
ENDROOT
BRANCH   1   9
ATOM      2  N   UNL     1      -3.272  12.331  19.997  0.00  0.00    +0.000 N 
ATOM      3  C   UNL     1      -4.645  12.749  19.641  0.00  0.00    +0.000 C 
ATOM      4  C   UNL     1      -5.135  11.846  18.515  0.00  0.00    +0.000 C 
ATOM      5  C   UNL     1      -3.845  11.260  18.040  0.00  0.00    +0.000 A 
ATOM      6  C   UNL     1      -3.706  10.488  16.899  0.00  0.00    +0.000 A 
ATOM      7  C   UNL     1      -2.467   9.936  16.636  0.00  0.00    +0.000 A 
ATOM      8  C   UNL     1      -1.414  10.159  17.529  0.00  0.00    +0.000 A 
ATOM      9  C   UNL     1      -1.544  10.958  18.704  0.00  0.00    +0.000 A 
ATOM     10  C   UNL     1      -2.797  11.540  18.952  0.00  0.00    +0.000 A 
BRANCH   2  12
ATOM     11  C   UNL     1      -2.380  12.555  22.304  0.00  0.00    +0.000 C 
ATOM     12  C   UNL     1      -2.555  13.184  20.933  0.00  0.00    +0.000 C 
ENDBRANCH   2  12
ENDBRANCH   1   9
BRANCH   1  13
ATOM     13  C   UNL     1       0.543   9.783  19.603  0.00  0.00    +0.000 A 
ATOM     14  C   UNL     1       0.623   8.902  20.699  0.00  0.00    +0.000 A 
ATOM     15  C   UNL     1       1.454   7.781  20.657  0.00  0.00    +0.000 A 
ATOM     16  C   UNL     1       2.216   7.535  19.523  0.00  0.00    +0.000 A 
ATOM     17  F   UNL     1       3.026   6.469  19.491  0.00  0.00    +0.000 F 
ATOM     18  C   UNL     1       2.151   8.380  18.423  0.00  0.00    +0.000 A 
ATOM     19  C   UNL     1       1.319   9.501  18.461  0.00  0.00    +0.000 A 
ENDBRANCH   1  13
BRANCH   1  20
ATOM     20  N   UNL     1       0.480  12.280  19.456  0.00  0.00    +0.000 N 
ATOM     21  C   UNL     1       1.467  12.694  20.325  0.00  0.00    +0.000 A 
ATOM     22  C   UNL     1       1.931  13.881  19.814  0.00  0.00    +0.000 A 
ATOM     23  N   UNL     1       1.253  14.211  18.674  0.00  0.00    +0.000 NA
ATOM     24  C   UNL     1       0.381  13.245  18.491  0.00  0.00    +0.000 A 
ENDBRANCH   1  20
TORSDOF 4
ENDMDL
MODEL 6
REMARK VINA RESULT:      -6.6      5.582      8.929
REMARK  Name = 
REMARK  5 active torsions:
REMARK  status: ('A' for Active; 'I' for Inactive)
REMARK    1  A    between atoms: C_1  and  C_2
REMARK    2  A    between atoms: C_2  and  N_3
REMARK    3  A    between atoms: C_10  and  C_11
REMARK    4  A    between atoms: C_11  and  C_12
REMARK    5  A    between atoms: C_11  and  N_19
REMARK                            x       y       z     vdW  Elec       q    Type
REMARK                         _______ _______ _______ _____ _____    ______ ____
ROOT
ATOM      1  C   UNL     1       0.068  11.077  19.651  0.00  0.00    +0.000 C 
ENDROOT
BRANCH   1   9
ATOM      2  N   UNL     1      -2.724  12.512  20.407  0.00  0.00    +0.000 N 
ATOM      3  C   UNL     1      -4.106  13.006  20.235  0.00  0.00    +0.000 C 
ATOM      4  C   UNL     1      -4.789  12.139  19.184  0.00  0.00    +0.000 C 
ATOM      5  C   UNL     1      -3.607  11.487  18.543  0.00  0.00    +0.000 A 
ATOM      6  C   UNL     1      -3.662  10.716  17.395  0.00  0.00    +0.000 A 
ATOM      7  C   UNL     1      -2.501  10.099  16.971  0.00  0.00    +0.000 A 
ATOM      8  C   UNL     1      -1.328  10.259  17.717  0.00  0.00    +0.000 A 
ATOM      9  C   UNL     1      -1.259  11.055  18.898  0.00  0.00    +0.000 A 
ATOM     10  C   UNL     1      -2.434  11.704  19.309  0.00  0.00    +0.000 A 
BRANCH   2  12
ATOM     11  C   UNL     1      -1.502  12.660  22.565  0.00  0.00    +0.000 C 
ATOM     12  C   UNL     1      -1.844  13.318  21.240  0.00  0.00    +0.000 C 
ENDBRANCH   2  12
ENDBRANCH   1   9
BRANCH   1  13
ATOM     13  C   UNL     1       0.942   9.841  19.369  0.00  0.00    +0.000 A 
ATOM     14  C   UNL     1       1.615   9.655  18.145  0.00  0.00    +0.000 A 
ATOM     15  C   UNL     1       2.369   8.503  17.910  0.00  0.00    +0.000 A 
ATOM     16  C   UNL     1       2.454   7.528  18.894  0.00  0.00    +0.000 A 
ATOM     17  F   UNL     1       3.164   6.416  18.661  0.00  0.00    +0.000 F 
ATOM     18  C   UNL     1       1.811   7.687  20.115  0.00  0.00    +0.000 A 
ATOM     19  C   UNL     1       1.056   8.838  20.353  0.00  0.00    +0.000 A 
ENDBRANCH   1  13
BRANCH   1  20
ATOM     20  N   UNL     1       0.838  12.336  19.512  0.00  0.00    +0.000 N 
ATOM     21  C   UNL     1       0.703  13.225  18.467  0.00  0.00    +0.000 A 
ATOM     22  C   UNL     1       1.616  14.221  18.713  0.00  0.00    +0.000 A 
ATOM     23  N   UNL     1       2.311  13.963  19.863  0.00  0.00    +0.000 NA
ATOM     24  C   UNL     1       1.835  12.822  20.312  0.00  0.00    +0.000 A 
ENDBRANCH   1  20
TORSDOF 4
ENDMDL
MODEL 7
REMARK VINA RESULT:      -6.4      6.252      9.537
REMARK  Name = 
REMARK  5 active torsions:
REMARK  status: ('A' for Active; 'I' for Inactive)
REMARK    1  A    between atoms: C_1  and  C_2
REMARK    2  A    between atoms: C_2  and  N_3
REMARK    3  A    between atoms: C_10  and  C_11
REMARK    4  A    between atoms: C_11  and  C_12
REMARK    5  A    between atoms: C_11  and  N_19
REMARK                            x       y       z     vdW  Elec       q    Type
REMARK                         _______ _______ _______ _____ _____    ______ ____
ROOT
ATOM      1  C   UNL     1      -0.973  11.233  19.540  0.00  0.00    +0.000 C 
ENDROOT
BRANCH   1   9
ATOM      2  N   UNL     1      -4.058  12.182  19.434  0.00  0.00    +0.000 N 
ATOM      3  C   UNL     1      -5.394  12.453  18.863  0.00  0.00    +0.000 C 
ATOM      4  C   UNL     1      -5.598  11.517  17.677  0.00  0.00    +0.000 C 
ATOM      5  C   UNL     1      -4.194  11.080  17.416  0.00  0.00    +0.000 A 
ATOM      6  C   UNL     1      -3.792  10.342  16.315  0.00  0.00    +0.000 A 
ATOM      7  C   UNL     1      -2.475   9.931  16.255  0.00  0.00    +0.000 A 
ATOM      8  C   UNL     1      -1.607  10.256  17.303  0.00  0.00    +0.000 A 
ATOM      9  C   UNL     1      -2.007  11.020  18.438  0.00  0.00    +0.000 A 
ATOM     10  C   UNL     1      -3.340  11.461  18.482  0.00  0.00    +0.000 A 
BRANCH   2  12
ATOM     11  C   UNL     1      -4.345  12.945  21.780  0.00  0.00    +0.000 C 
ATOM     12  C   UNL     1      -3.595  13.095  20.468  0.00  0.00    +0.000 C 
ENDBRANCH   2  12
ENDBRANCH   1   9
BRANCH   1  13
ATOM     13  C   UNL     1       0.064  10.098  19.622  0.00  0.00    +0.000 A 
ATOM     14  C   UNL     1       0.944   9.801  18.563  0.00  0.00    +0.000 A 
ATOM     15  C   UNL     1       1.847   8.740  18.658  0.00  0.00    +0.000 A 
ATOM     16  C   UNL     1       1.874   7.965  19.809  0.00  0.00    +0.000 A 
ATOM     17  F   UNL     1       2.729   6.937  19.892  0.00  0.00    +0.000 F 
ATOM     18  C   UNL     1       1.026   8.239  20.874  0.00  0.00    +0.000 A 
ATOM     19  C   UNL     1       0.122   9.301  20.783  0.00  0.00    +0.000 A 
ENDBRANCH   1  13
BRANCH   1  20
ATOM     20  N   UNL     1      -0.327  12.567  19.531  0.00  0.00    +0.000 N 
ATOM     21  C   UNL     1      -0.294  13.415  18.445  0.00  0.00    +0.000 A 
ATOM     22  C   UNL     1       0.425  14.511  18.857  0.00  0.00    +0.000 A 
ATOM     23  N   UNL     1       0.842  14.354  20.150  0.00  0.00    +0.000 NA
ATOM     24  C   UNL     1       0.391  13.177  20.524  0.00  0.00    +0.000 A 
ENDBRANCH   1  20
TORSDOF 4
ENDMDL
MODEL 8
REMARK VINA RESULT:      -6.3      6.301      9.514
REMARK  Name = 
REMARK  5 active torsions:
REMARK  status: ('A' for Active; 'I' for Inactive)
REMARK    1  A    between atoms: C_1  and  C_2
REMARK    2  A    between atoms: C_2  and  N_3
REMARK    3  A    between atoms: C_10  and  C_11
REMARK    4  A    between atoms: C_11  and  C_12
REMARK    5  A    between atoms: C_11  and  N_19
REMARK                            x       y       z     vdW  Elec       q    Type
REMARK                         _______ _______ _______ _____ _____    ______ ____
ROOT
ATOM      1  C   UNL     1      -0.997  11.266  19.615  0.00  0.00    +0.000 C 
ENDROOT
BRANCH   1   9
ATOM      2  N   UNL     1      -4.052  12.306  19.519  0.00  0.00    +0.000 N 
ATOM      3  C   UNL     1      -5.383  12.612  18.954  0.00  0.00    +0.000 C 
ATOM      4  C   UNL     1      -5.622  11.671  17.779  0.00  0.00    +0.000 C 
ATOM      5  C   UNL     1      -4.234  11.189  17.513  0.00  0.00    +0.000 A 
ATOM      6  C   UNL     1      -3.862  10.429  16.418  0.00  0.00    +0.000 A 
ATOM      7  C   UNL     1      -2.558   9.977  16.354  0.00  0.00    +0.000 A 
ATOM      8  C   UNL     1      -1.674  10.286  17.393  0.00  0.00    +0.000 A 
ATOM      9  C   UNL     1      -2.044  11.074  18.523  0.00  0.00    +0.000 A 
ATOM     10  C   UNL     1      -3.362  11.555  18.570  0.00  0.00    +0.000 A 
BRANCH   2  12
ATOM     11  C   UNL     1      -3.705  12.674  21.951  0.00  0.00    +0.000 C 
ATOM     12  C   UNL     1      -3.555  13.216  20.541  0.00  0.00    +0.000 C 
ENDBRANCH   2  12
ENDBRANCH   1   9
BRANCH   1  13
ATOM     13  C   UNL     1      -0.021  10.080  19.732  0.00  0.00    +0.000 A 
ATOM     14  C   UNL     1       0.035   9.258  20.875  0.00  0.00    +0.000 A 
ATOM     15  C   UNL     1       0.958   8.214  20.962  0.00  0.00    +0.000 A 
ATOM     16  C   UNL     1       1.834   7.986  19.910  0.00  0.00    +0.000 A 
ATOM     17  F   UNL     1       2.731   6.995  20.002  0.00  0.00    +0.000 F 
ATOM     18  C   UNL     1       1.797   8.773  18.766  0.00  0.00    +0.000 A 
ATOM     19  C   UNL     1       0.874   9.818  18.676  0.00  0.00    +0.000 A 
ENDBRANCH   1  13
BRANCH   1  20
ATOM     20  N   UNL     1      -0.280  12.563  19.563  0.00  0.00    +0.000 N 
ATOM     21  C   UNL     1      -0.263  13.406  18.473  0.00  0.00    +0.000 A 
ATOM     22  C   UNL     1       0.536  14.461  18.837  0.00  0.00    +0.000 A 
ATOM     23  N   UNL     1       1.018  14.284  20.105  0.00  0.00    +0.000 NA
ATOM     24  C   UNL     1       0.526  13.134  20.510  0.00  0.00    +0.000 A 
ENDBRANCH   1  20
TORSDOF 4
ENDMDL
MODEL 9
REMARK VINA RESULT:      -6.3      2.664      5.794
REMARK  Name = 
REMARK  5 active torsions:
REMARK  status: ('A' for Active; 'I' for Inactive)
REMARK    1  A    between atoms: C_1  and  C_2
REMARK    2  A    between atoms: C_2  and  N_3
REMARK    3  A    between atoms: C_10  and  C_11
REMARK    4  A    between atoms: C_11  and  C_12
REMARK    5  A    between atoms: C_11  and  N_19
REMARK                            x       y       z     vdW  Elec       q    Type
REMARK                         _______ _______ _______ _____ _____    ______ ____
ROOT
ATOM      1  C   UNL     1       3.394   5.083  19.473  0.00  0.00    +0.000 C 
ENDROOT
BRANCH   1   9
ATOM      2  N   UNL     1       6.351   5.307  18.195  0.00  0.00    +0.000 N 
ATOM      3  C   UNL     1       7.476   5.032  17.277  0.00  0.00    +0.000 C 
ATOM      4  C   UNL     1       6.896   4.546  15.954  0.00  0.00    +0.000 C 
ATOM      5  C   UNL     1       5.506   4.188  16.368  0.00  0.00    +0.000 A 
ATOM      6  C   UNL     1       4.594   3.524  15.566  0.00  0.00    +0.000 A 
ATOM      7  C   UNL     1       3.313   3.343  16.052  0.00  0.00    +0.000 A 
ATOM      8  C   UNL     1       2.982   3.845  17.315  0.00  0.00    +0.000 A 
ATOM      9  C   UNL     1       3.916   4.524  18.153  0.00  0.00    +0.000 A 
ATOM     10  C   UNL     1       5.224   4.680  17.667  0.00  0.00    +0.000 A 
BRANCH   2  12
ATOM     11  C   UNL     1       8.195   5.663  19.821  0.00  0.00    +0.000 C 
ATOM     12  C   UNL     1       6.697   5.613  19.575  0.00  0.00    +0.000 C 
ENDBRANCH   2  12
ENDBRANCH   1   9
BRANCH   1  13
ATOM     13  C   UNL     1       2.716   6.458  19.321  0.00  0.00    +0.000 A 
ATOM     14  C   UNL     1       2.736   7.179  18.111  0.00  0.00    +0.000 A 
ATOM     15  C   UNL     1       2.143   8.440  18.019  0.00  0.00    +0.000 A 
ATOM     16  C   UNL     1       1.530   8.991  19.136  0.00  0.00    +0.000 A 
ATOM     17  F   UNL     1       0.976  10.208  19.051  0.00  0.00    +0.000 F 
ATOM     18  C   UNL     1       1.485   8.300  20.340  0.00  0.00    +0.000 A 
ATOM     19  C   UNL     1       2.077   7.038  20.434  0.00  0.00    +0.000 A 
ENDBRANCH   1  13
BRANCH   1  20
ATOM     20  N   UNL     1       2.557   4.143  20.255  0.00  0.00    +0.000 N 
ATOM     21  C   UNL     1       3.043   3.243  21.180  0.00  0.00    +0.000 A 
ATOM     22  C   UNL     1       1.945   2.556  21.635  0.00  0.00    +0.000 A 
ATOM     23  N   UNL     1       0.810   2.996  21.012  0.00  0.00    +0.000 NA
ATOM     24  C   UNL     1       1.207   3.934  20.181  0.00  0.00    +0.000 A 
ENDBRANCH   1  20
TORSDOF 4
ENDMDL
