MODEL 1
REMARK VINA RESULT:      -7.8      0.000      0.000
REMARK  Name = 
REMARK  6 active torsions:
REMARK  status: ('A' for Active; 'I' for Inactive)
REMARK    1  A    between atoms: N_11  and  C_12
REMARK    2  A    between atoms: C_12  and  C_13
REMARK    3  A    between atoms: C_13  and  O_14
REMARK    4  A    between atoms: O_14  and  C_15
REMARK    5  A    between atoms: C_15  and  N_17
REMARK    6  A    between atoms: N_17  and  C_18
REMARK                            x       y       z     vdW  Elec       q    Type
REMARK                         _______ _______ _______ _____ _____    ______ ____
ROOT
ATOM      1  C   UNL     1       4.085   7.218  17.590  0.00  0.00    +0.000 C 
ENDROOT
BRANCH   1  12
ATOM      2  O   UNL     1       2.267   7.133  19.935  0.00  0.00    +0.000 OA
ATOM      3  C   UNL     1       2.578   6.155  19.283  0.00  0.00    +0.000 C 
ATOM      4  C   UNL     1       2.034   4.813  19.499  0.00  0.00    +0.000 A 
ATOM      5  C   UNL     1       1.140   4.343  20.446  0.00  0.00    +0.000 A 
ATOM      6  C   UNL     1       0.784   2.992  20.378  0.00  0.00    +0.000 A 
ATOM      7  C   UNL     1       1.315   2.155  19.375  0.00  0.00    +0.000 A 
ATOM      8  C   UNL     1       2.213   2.655  18.424  0.00  0.00    +0.000 A 
ATOM      9  C   UNL     1       2.554   3.992  18.517  0.00  0.00    +0.000 A 
ATOM     10  C   UNL     1       3.428   4.808  17.677  0.00  0.00    +0.000 C 
ATOM     11  O   UNL     1       3.992   4.406  16.678  0.00  0.00    +0.000 OA
ATOM     12  N   UNL     1       3.431   6.070  18.213  0.00  0.00    +0.000 N 
ENDBRANCH   1  12
BRANCH   1  13
ATOM     13  C   UNL     1       4.878   6.790  16.353  0.00  0.00    +0.000 C 
BRANCH  13  14
ATOM     14  O   UNL     1       6.317   6.890  16.538  0.00  0.00    +0.000 OA
BRANCH  14  15
ATOM     15  C   UNL     1       7.079   5.760  16.434  0.00  0.00    +0.000 C 
ATOM     16  S   UNL     1       7.405   4.709  17.688  0.00  0.00    +0.000 S 
BRANCH  15  17
ATOM     17  N   UNL     1       7.613   5.494  15.208  0.00  0.00    +0.000 N 
ATOM     18  H   UNL     1       8.563   5.836  15.115  0.00  0.00    +0.000 HD
BRANCH  17  19
ATOM     19  C   UNL     1       6.906   5.183  13.981  0.00  0.00    +0.000 C 
ATOM     20  C   UNL     1       7.854   4.967  12.805  0.00  0.00    +0.000 C 
ATOM     21  C   UNL     1       7.035   4.167  11.801  0.00  0.00    +0.000 C 
ATOM     22  C   UNL     1       6.015   3.379  12.620  0.00  0.00    +0.000 C 
ATOM     23  C   UNL     1       6.196   3.827  14.068  0.00  0.00    +0.000 C 
ENDBRANCH  17  19
ENDBRANCH  15  17
ENDBRANCH  14  15
ENDBRANCH  13  14
ENDBRANCH   1  13
TORSDOF 6
ENDMDL
MODEL 2
REMARK VINA RESULT:      -7.8      1.887      3.257
REMARK  Name = 
REMARK  6 active torsions:
REMARK  status: ('A' for Active; 'I' for Inactive)
REMARK    1  A    between atoms: N_11  and  C_12
REMARK    2  A    between atoms: C_12  and  C_13
REMARK    3  A    between atoms: C_13  and  O_14
REMARK    4  A    between atoms: O_14  and  C_15
REMARK    5  A    between atoms: C_15  and  N_17
REMARK    6  A    between atoms: N_17  and  C_18
REMARK                            x       y       z     vdW  Elec       q    Type
REMARK                         _______ _______ _______ _____ _____    ______ ____
ROOT
ATOM      1  C   UNL     1       4.225   4.261  18.536  0.00  0.00    +0.000 C 
ENDROOT
BRANCH   1  12
ATOM      2  O   UNL     1       2.542   5.139  20.819  0.00  0.00    +0.000 OA
ATOM      3  C   UNL     1       2.707   5.793  19.808  0.00  0.00    +0.000 C 
ATOM      4  C   UNL     1       2.179   7.144  19.604  0.00  0.00    +0.000 A 
ATOM      5  C   UNL     1       1.387   7.935  20.418  0.00  0.00    +0.000 A 
ATOM      6  C   UNL     1       1.064   9.214  19.952  0.00  0.00    +0.000 A 
ATOM      7  C   UNL     1       1.539   9.670  18.705  0.00  0.00    +0.000 A 
ATOM      8  C   UNL     1       2.344   8.853  17.902  0.00  0.00    +0.000 A 
ATOM      9  C   UNL     1       2.644   7.591  18.382  0.00  0.00    +0.000 A 
ATOM     10  C   UNL     1       3.467   6.529  17.808  0.00  0.00    +0.000 C 
ATOM     11  O   UNL     1       4.083   6.625  16.765  0.00  0.00    +0.000 OA
ATOM     12  N   UNL     1       3.426   5.475  18.684  0.00  0.00    +0.000 N 
ENDBRANCH   1  12
BRANCH   1  13
ATOM     13  C   UNL     1       5.698   4.535  18.852  0.00  0.00    +0.000 C 
BRANCH  13  14
ATOM     14  O   UNL     1       6.554   4.454  17.679  0.00  0.00    +0.000 OA
BRANCH  14  15
ATOM     15  C   UNL     1       7.078   5.604  17.160  0.00  0.00    +0.000 C 
ATOM     16  S   UNL     1       7.651   6.885  18.062  0.00  0.00    +0.000 S 
BRANCH  15  17
ATOM     17  N   UNL     1       7.118   5.698  15.799  0.00  0.00    +0.000 N 
ATOM     18  H   UNL     1       6.936   6.638  15.469  0.00  0.00    +0.000 HD
BRANCH  17  19
ATOM     19  C   UNL     1       6.983   4.625  14.833  0.00  0.00    +0.000 C 
ATOM     20  C   UNL     1       5.529   4.386  14.436  0.00  0.00    +0.000 C 
ATOM     21  C   UNL     1       5.616   3.654  13.103  0.00  0.00    +0.000 C 
ATOM     22  C   UNL     1       6.928   4.102  12.461  0.00  0.00    +0.000 C 
ATOM     23  C   UNL     1       7.620   4.994  13.488  0.00  0.00    +0.000 C 
ENDBRANCH  17  19
ENDBRANCH  15  17
ENDBRANCH  14  15
ENDBRANCH  13  14
ENDBRANCH   1  13
TORSDOF 6
ENDMDL
MODEL 3
REMARK VINA RESULT:      -7.8      1.414      1.901
REMARK  Name = 
REMARK  6 active torsions:
REMARK  status: ('A' for Active; 'I' for Inactive)
REMARK    1  A    between atoms: N_11  and  C_12
REMARK    2  A    between atoms: C_12  and  C_13
REMARK    3  A    between atoms: C_13  and  O_14
REMARK    4  A    between atoms: O_14  and  C_15
REMARK    5  A    between atoms: C_15  and  N_17
REMARK    6  A    between atoms: N_17  and  C_18
REMARK                            x       y       z     vdW  Elec       q    Type
REMARK                         _______ _______ _______ _____ _____    ______ ____
ROOT
ATOM      1  C   UNL     1       4.341   4.700  16.800  0.00  0.00    +0.000 C 
ENDROOT
BRANCH   1  12
ATOM      2  O   UNL     1       5.415   3.592  19.336  0.00  0.00    +0.000 OA
ATOM      3  C   UNL     1       4.231   3.635  19.064  0.00  0.00    +0.000 C 
ATOM      4  C   UNL     1       3.159   3.234  19.977  0.00  0.00    +0.000 A 
ATOM      5  C   UNL     1       3.213   2.706  21.255  0.00  0.00    +0.000 A 
ATOM      6  C   UNL     1       1.996   2.447  21.895  0.00  0.00    +0.000 A 
ATOM      7  C   UNL     1       0.771   2.725  21.256  0.00  0.00    +0.000 A 
ATOM      8  C   UNL     1       0.741   3.265  19.964  0.00  0.00    +0.000 A 
ATOM      9  C   UNL     1       1.957   3.506  19.351  0.00  0.00    +0.000 A 
ATOM     10  C   UNL     1       2.263   4.078  18.041  0.00  0.00    +0.000 C 
ATOM     11  O   UNL     1       1.427   4.492  17.261  0.00  0.00    +0.000 OA
ATOM     12  N   UNL     1       3.628   4.086  17.917  0.00  0.00    +0.000 N 
ENDBRANCH   1  12
BRANCH   1  13
ATOM     13  C   UNL     1       4.706   6.152  17.117  0.00  0.00    +0.000 C 
BRANCH  13  14
ATOM     14  O   UNL     1       5.945   6.576  16.486  0.00  0.00    +0.000 OA
BRANCH  14  15
ATOM     15  C   UNL     1       7.000   5.708  16.446  0.00  0.00    +0.000 C 
ATOM     16  S   UNL     1       7.642   4.923  17.770  0.00  0.00    +0.000 S 
BRANCH  15  17
ATOM     17  N   UNL     1       7.564   5.488  15.223  0.00  0.00    +0.000 N 
ATOM     18  H   UNL     1       8.500   5.871  15.152  0.00  0.00    +0.000 HD
BRANCH  17  19
ATOM     19  C   UNL     1       6.889   5.171  13.980  0.00  0.00    +0.000 C 
ATOM     20  C   UNL     1       7.859   5.061  12.807  0.00  0.00    +0.000 C 
ATOM     21  C   UNL     1       7.105   4.242  11.768  0.00  0.00    +0.000 C 
ATOM     22  C   UNL     1       6.135   3.358  12.550  0.00  0.00    +0.000 C 
ATOM     23  C   UNL     1       6.273   3.768  14.014  0.00  0.00    +0.000 C 
ENDBRANCH  17  19
ENDBRANCH  15  17
ENDBRANCH  14  15
ENDBRANCH  13  14
ENDBRANCH   1  13
TORSDOF 6
ENDMDL
MODEL 4
REMARK VINA RESULT:      -7.7      1.912      6.718
REMARK  Name = 
REMARK  6 active torsions:
REMARK  status: ('A' for Active; 'I' for Inactive)
REMARK    1  A    between atoms: N_11  and  C_12
REMARK    2  A    between atoms: C_12  and  C_13
REMARK    3  A    between atoms: C_13  and  O_14
REMARK    4  A    between atoms: O_14  and  C_15
REMARK    5  A    between atoms: C_15  and  N_17
REMARK    6  A    between atoms: N_17  and  C_18
REMARK                            x       y       z     vdW  Elec       q    Type
REMARK                         _______ _______ _______ _____ _____    ______ ____
ROOT
ATOM      1  C   UNL     1       5.836   5.132  18.010  0.00  0.00    +0.000 C 
ENDROOT
BRANCH   1  12
ATOM      2  O   UNL     1       4.422   3.283  16.168  0.00  0.00    +0.000 OA
ATOM      3  C   UNL     1       5.388   3.948  15.850  0.00  0.00    +0.000 C 
ATOM      4  C   UNL     1       5.940   4.006  14.495  0.00  0.00    +0.000 A 
ATOM      5  C   UNL     1       5.566   3.343  13.340  0.00  0.00    +0.000 A 
ATOM      6  C   UNL     1       6.279   3.634  12.172  0.00  0.00    +0.000 A 
ATOM      7  C   UNL     1       7.331   4.574  12.184  0.00  0.00    +0.000 A 
ATOM      8  C   UNL     1       7.687   5.237  13.364  0.00  0.00    +0.000 A 
ATOM      9  C   UNL     1       6.970   4.927  14.506  0.00  0.00    +0.000 A 
ATOM     10  C   UNL     1       7.076   5.454  15.864  0.00  0.00    +0.000 C 
ATOM     11  O   UNL     1       7.841   6.337  16.201  0.00  0.00    +0.000 OA
ATOM     12  N   UNL     1       6.138   4.800  16.620  0.00  0.00    +0.000 N 
ENDBRANCH   1  12
BRANCH   1  13
ATOM     13  C   UNL     1       5.167   6.505  18.111  0.00  0.00    +0.000 C 
BRANCH  13  14
ATOM     14  O   UNL     1       3.844   6.537  17.506  0.00  0.00    +0.000 OA
BRANCH  14  15
ATOM     15  C   UNL     1       2.799   7.048  18.224  0.00  0.00    +0.000 C 
ATOM     16  S   UNL     1       2.070   8.520  17.933  0.00  0.00    +0.000 S 
BRANCH  15  17
ATOM     17  N   UNL     1       2.338   6.287  19.258  0.00  0.00    +0.000 N 
ATOM     18  H   UNL     1       2.316   6.795  20.135  0.00  0.00    +0.000 HD
BRANCH  17  19
ATOM     19  C   UNL     1       2.281   4.840  19.338  0.00  0.00    +0.000 C 
ATOM     20  C   UNL     1       1.398   4.359  20.485  0.00  0.00    +0.000 C 
ATOM     21  C   UNL     1       1.036   2.928  20.109  0.00  0.00    +0.000 C 
ATOM     22  C   UNL     1       1.079   2.869  18.583  0.00  0.00    +0.000 C 
ATOM     23  C   UNL     1       1.574   4.236  18.119  0.00  0.00    +0.000 C 
ENDBRANCH  17  19
ENDBRANCH  15  17
ENDBRANCH  14  15
ENDBRANCH  13  14
ENDBRANCH   1  13
TORSDOF 6
ENDMDL
MODEL 5
REMARK VINA RESULT:      -7.7      1.898      7.060
REMARK  Name = 
REMARK  6 active torsions:
REMARK  status: ('A' for Active; 'I' for Inactive)
REMARK    1  A    between atoms: N_11  and  C_12
REMARK    2  A    between atoms: C_12  and  C_13
REMARK    3  A    between atoms: C_13  and  O_14
REMARK    4  A    between atoms: O_14  and  C_15
REMARK    5  A    between atoms: C_15  and  N_17
REMARK    6  A    between atoms: N_17  and  C_18
REMARK                            x       y       z     vdW  Elec       q    Type
REMARK                         _______ _______ _______ _____ _____    ______ ____
ROOT
ATOM      1  C   UNL     1       5.947   4.922  18.120  0.00  0.00    +0.000 C 
ENDROOT
BRANCH   1  12
ATOM      2  O   UNL     1       4.651   3.019  16.246  0.00  0.00    +0.000 OA
ATOM      3  C   UNL     1       5.553   3.771  15.932  0.00  0.00    +0.000 C 
ATOM      4  C   UNL     1       6.070   3.916  14.569  0.00  0.00    +0.000 A 
ATOM      5  C   UNL     1       5.727   3.259  13.400  0.00  0.00    +0.000 A 
ATOM      6  C   UNL     1       6.390   3.643  12.229  0.00  0.00    +0.000 A 
ATOM      7  C   UNL     1       7.361   4.666  12.252  0.00  0.00    +0.000 A 
ATOM      8  C   UNL     1       7.686   5.321  13.447  0.00  0.00    +0.000 A 
ATOM      9  C   UNL     1       7.021   4.918  14.591  0.00  0.00    +0.000 A 
ATOM     10  C   UNL     1       7.111   5.411  15.963  0.00  0.00    +0.000 C 
ATOM     11  O   UNL     1       7.808   6.343  16.314  0.00  0.00    +0.000 OA
ATOM     12  N   UNL     1       6.246   4.659  16.715  0.00  0.00    +0.000 N 
ENDBRANCH   1  12
BRANCH   1  13
ATOM     13  C   UNL     1       4.876   6.007  18.257  0.00  0.00    +0.000 C 
BRANCH  13  14
ATOM     14  O   UNL     1       4.036   5.830  19.431  0.00  0.00    +0.000 OA
BRANCH  14  15
ATOM     15  C   UNL     1       2.836   6.483  19.492  0.00  0.00    +0.000 C 
ATOM     16  S   UNL     1       2.349   7.687  18.445  0.00  0.00    +0.000 S 
BRANCH  15  17
ATOM     17  N   UNL     1       1.992   6.116  20.499  0.00  0.00    +0.000 N 
ATOM     18  H   UNL     1       2.107   6.686  21.330  0.00  0.00    +0.000 HD
BRANCH  17  19
ATOM     19  C   UNL     1       1.305   4.850  20.663  0.00  0.00    +0.000 C 
ATOM     20  C   UNL     1       1.211   4.071  19.354  0.00  0.00    +0.000 C 
ATOM     21  C   UNL     1       0.968   2.631  19.789  0.00  0.00    +0.000 C 
ATOM     22  C   UNL     1       1.605   2.494  21.170  0.00  0.00    +0.000 C 
ATOM     23  C   UNL     1       2.102   3.886  21.548  0.00  0.00    +0.000 C 
ENDBRANCH  17  19
ENDBRANCH  15  17
ENDBRANCH  14  15
ENDBRANCH  13  14
ENDBRANCH   1  13
TORSDOF 6
ENDMDL
MODEL 6
REMARK VINA RESULT:      -7.6      1.950      6.709
REMARK  Name = 
REMARK  6 active torsions:
REMARK  status: ('A' for Active; 'I' for Inactive)
REMARK    1  A    between atoms: N_11  and  C_12
REMARK    2  A    between atoms: C_12  and  C_13
REMARK    3  A    between atoms: C_13  and  O_14
REMARK    4  A    between atoms: O_14  and  C_15
REMARK    5  A    between atoms: C_15  and  N_17
REMARK    6  A    between atoms: N_17  and  C_18
REMARK                            x       y       z     vdW  Elec       q    Type
REMARK                         _______ _______ _______ _____ _____    ______ ____
ROOT
ATOM      1  C   UNL     1       5.434   5.627  17.991  0.00  0.00    +0.000 C 
ENDROOT
BRANCH   1  12
ATOM      2  O   UNL     1       4.054   3.713  16.190  0.00  0.00    +0.000 OA
ATOM      3  C   UNL     1       5.088   4.285  15.906  0.00  0.00    +0.000 C 
ATOM      4  C   UNL     1       5.754   4.186  14.606  0.00  0.00    +0.000 A 
ATOM      5  C   UNL     1       5.433   3.447  13.481  0.00  0.00    +0.000 A 
ATOM      6  C   UNL     1       6.261   3.587  12.362  0.00  0.00    +0.000 A 
ATOM      7  C   UNL     1       7.371   4.457  12.390  0.00  0.00    +0.000 A 
ATOM      8  C   UNL     1       7.672   5.200  13.537  0.00  0.00    +0.000 A 
ATOM      9  C   UNL     1       6.842   5.039  14.632  0.00  0.00    +0.000 A 
ATOM     10  C   UNL     1       6.869   5.678  15.945  0.00  0.00    +0.000 C 
ATOM     11  O   UNL     1       7.663   6.538  16.275  0.00  0.00    +0.000 OA
ATOM     12  N   UNL     1       5.828   5.154  16.666  0.00  0.00    +0.000 N 
ENDBRANCH   1  12
BRANCH   1  13
ATOM     13  C   UNL     1       4.416   6.766  17.884  0.00  0.00    +0.000 C 
BRANCH  13  14
ATOM     14  O   UNL     1       3.068   6.359  18.250  0.00  0.00    +0.000 OA
BRANCH  14  15
ATOM     15  C   UNL     1       2.655   6.522  19.542  0.00  0.00    +0.000 C 
ATOM     16  S   UNL     1       1.796   7.833  20.112  0.00  0.00    +0.000 S 
BRANCH  15  17
ATOM     17  N   UNL     1       2.988   5.532  20.420  0.00  0.00    +0.000 N 
ATOM     18  H   UNL     1       3.900   5.675  20.840  0.00  0.00    +0.000 HD
BRANCH  17  19
ATOM     19  C   UNL     1       2.432   4.196  20.503  0.00  0.00    +0.000 C 
ATOM     20  C   UNL     1       1.020   4.121  19.928  0.00  0.00    +0.000 C 
ATOM     21  C   UNL     1       0.817   2.644  19.615  0.00  0.00    +0.000 C 
ATOM     22  C   UNL     1       2.207   2.077  19.337  0.00  0.00    +0.000 C 
ATOM     23  C   UNL     1       3.191   3.212  19.605  0.00  0.00    +0.000 C 
ENDBRANCH  17  19
ENDBRANCH  15  17
ENDBRANCH  14  15
ENDBRANCH  13  14
ENDBRANCH   1  13
TORSDOF 6
ENDMDL
MODEL 7
REMARK VINA RESULT:      -7.6      3.205      5.762
REMARK  Name = 
REMARK  6 active torsions:
REMARK  status: ('A' for Active; 'I' for Inactive)
REMARK    1  A    between atoms: N_11  and  C_12
REMARK    2  A    between atoms: C_12  and  C_13
REMARK    3  A    between atoms: C_13  and  O_14
REMARK    4  A    between atoms: O_14  and  C_15
REMARK    5  A    between atoms: C_15  and  N_17
REMARK    6  A    between atoms: N_17  and  C_18
REMARK                            x       y       z     vdW  Elec       q    Type
REMARK                         _______ _______ _______ _____ _____    ______ ____
ROOT
ATOM      1  C   UNL     1       2.722   6.362  18.078  0.00  0.00    +0.000 C 
ENDROOT
BRANCH   1  12
ATOM      2  O   UNL     1       2.036   9.165  17.384  0.00  0.00    +0.000 OA
ATOM      3  C   UNL     1       1.887   8.686  18.491  0.00  0.00    +0.000 C 
ATOM      4  C   UNL     1       1.266   9.386  19.616  0.00  0.00    +0.000 A 
ATOM      5  C   UNL     1       0.773  10.676  19.715  0.00  0.00    +0.000 A 
ATOM      6  C   UNL     1       0.202  11.054  20.936  0.00  0.00    +0.000 A 
ATOM      7  C   UNL     1       0.130  10.144  22.011  0.00  0.00    +0.000 A 
ATOM      8  C   UNL     1       0.630   8.842  21.885  0.00  0.00    +0.000 A 
ATOM      9  C   UNL     1       1.195   8.496  20.671  0.00  0.00    +0.000 A 
ATOM     10  C   UNL     1       1.770   7.231  20.219  0.00  0.00    +0.000 C 
ATOM     11  O   UNL     1       1.802   6.214  20.885  0.00  0.00    +0.000 OA
ATOM     12  N   UNL     1       2.201   7.425  18.933  0.00  0.00    +0.000 N 
ENDBRANCH   1  12
BRANCH   1  13
ATOM     13  C   UNL     1       4.253   6.373  18.066  0.00  0.00    +0.000 C 
BRANCH  13  14
ATOM     14  O   UNL     1       4.834   5.166  18.632  0.00  0.00    +0.000 OA
BRANCH  14  15
ATOM     15  C   UNL     1       4.905   4.039  17.862  0.00  0.00    +0.000 C 
ATOM     16  S   UNL     1       5.253   4.017  16.231  0.00  0.00    +0.000 S 
BRANCH  15  17
ATOM     17  N   UNL     1       4.659   2.853  18.490  0.00  0.00    +0.000 N 
ATOM     18  H   UNL     1       5.417   2.190  18.380  0.00  0.00    +0.000 HD
BRANCH  17  19
ATOM     19  C   UNL     1       3.376   2.318  18.904  0.00  0.00    +0.000 C 
ATOM     20  C   UNL     1       2.887   2.935  20.211  0.00  0.00    +0.000 C 
ATOM     21  C   UNL     1       1.385   2.683  20.210  0.00  0.00    +0.000 C 
ATOM     22  C   UNL     1       0.971   2.614  18.741  0.00  0.00    +0.000 C 
ATOM     23  C   UNL     1       2.260   2.715  17.931  0.00  0.00    +0.000 C 
ENDBRANCH  17  19
ENDBRANCH  15  17
ENDBRANCH  14  15
ENDBRANCH  13  14
ENDBRANCH   1  13
TORSDOF 6
ENDMDL
MODEL 8
REMARK VINA RESULT:      -7.5      1.864      2.515
REMARK  Name = 
REMARK  6 active torsions:
REMARK  status: ('A' for Active; 'I' for Inactive)
REMARK    1  A    between atoms: N_11  and  C_12
REMARK    2  A    between atoms: C_12  and  C_13
REMARK    3  A    between atoms: C_13  and  O_14
REMARK    4  A    between atoms: O_14  and  C_15
REMARK    5  A    between atoms: C_15  and  N_17
REMARK    6  A    between atoms: N_17  and  C_18
REMARK                            x       y       z     vdW  Elec       q    Type
REMARK                         _______ _______ _______ _____ _____    ______ ____
ROOT
ATOM      1  C   UNL     1       6.311   5.146  19.485  0.00  0.00    +0.000 C 
ENDROOT
BRANCH   1  12
ATOM      2  O   UNL     1       5.197   2.479  20.160  0.00  0.00    +0.000 OA
ATOM      3  C   UNL     1       4.597   3.322  19.522  0.00  0.00    +0.000 C 
ATOM      4  C   UNL     1       3.210   3.184  19.073  0.00  0.00    +0.000 A 
ATOM      5  C   UNL     1       2.319   2.134  19.207  0.00  0.00    +0.000 A 
ATOM      6  C   UNL     1       1.031   2.315  18.689  0.00  0.00    +0.000 A 
ATOM      7  C   UNL     1       0.667   3.526  18.066  0.00  0.00    +0.000 A 
ATOM      8  C   UNL     1       1.584   4.577  17.949  0.00  0.00    +0.000 A 
ATOM      9  C   UNL     1       2.852   4.371  18.462  0.00  0.00    +0.000 A 
ATOM     10  C   UNL     1       4.008   5.263  18.521  0.00  0.00    +0.000 C 
ATOM     11  O   UNL     1       4.008   6.415  18.132  0.00  0.00    +0.000 OA
ATOM     12  N   UNL     1       5.022   4.564  19.123  0.00  0.00    +0.000 N 
ENDBRANCH   1  12
BRANCH   1  13
ATOM     13  C   UNL     1       7.400   4.722  18.496  0.00  0.00    +0.000 C 
BRANCH  13  14
ATOM     14  O   UNL     1       6.913   4.608  17.130  0.00  0.00    +0.000 OA
BRANCH  14  15
ATOM     15  C   UNL     1       6.851   5.730  16.352  0.00  0.00    +0.000 C 
ATOM     16  S   UNL     1       7.312   7.256  16.840  0.00  0.00    +0.000 S 
BRANCH  15  17
ATOM     17  N   UNL     1       6.363   5.571  15.088  0.00  0.00    +0.000 N 
ATOM     18  H   UNL     1       5.514   6.100  14.930  0.00  0.00    +0.000 HD
BRANCH  17  19
ATOM     19  C   UNL     1       6.651   4.499  14.156  0.00  0.00    +0.000 C 
ATOM     20  C   UNL     1       5.392   3.976  13.470  0.00  0.00    +0.000 C 
ATOM     21  C   UNL     1       5.905   3.285  12.213  0.00  0.00    +0.000 C 
ATOM     22  C   UNL     1       7.210   3.989  11.848  0.00  0.00    +0.000 C 
ATOM     23  C   UNL     1       7.477   4.995  12.964  0.00  0.00    +0.000 C 
ENDBRANCH  17  19
ENDBRANCH  15  17
ENDBRANCH  14  15
ENDBRANCH  13  14
ENDBRANCH   1  13
TORSDOF 6
ENDMDL
MODEL 9
REMARK VINA RESULT:      -7.4      3.267      5.727
REMARK  Name = 
REMARK  6 active torsions:
REMARK  status: ('A' for Active; 'I' for Inactive)
REMARK    1  A    between atoms: N_11  and  C_12
REMARK    2  A    between atoms: C_12  and  C_13
REMARK    3  A    between atoms: C_13  and  O_14
REMARK    4  A    between atoms: O_14  and  C_15
REMARK    5  A    between atoms: C_15  and  N_17
REMARK    6  A    between atoms: N_17  and  C_18
REMARK                            x       y       z     vdW  Elec       q    Type
REMARK                         _______ _______ _______ _____ _____    ______ ____
ROOT
ATOM      1  C   UNL     1       2.701   6.219  18.102  0.00  0.00    +0.000 C 
ENDROOT
BRANCH   1  12
ATOM      2  O   UNL     1       1.847   6.194  20.945  0.00  0.00    +0.000 OA
ATOM      3  C   UNL     1       1.723   7.154  20.209  0.00  0.00    +0.000 C 
ATOM      4  C   UNL     1       1.222   8.462  20.636  0.00  0.00    +0.000 A 
ATOM      5  C   UNL     1       0.758   8.892  21.866  0.00  0.00    +0.000 A 
ATOM      6  C   UNL     1       0.368  10.232  21.973  0.00  0.00    +0.000 A 
ATOM      7  C   UNL     1       0.457  11.100  20.866  0.00  0.00    +0.000 A 
ATOM      8  C   UNL     1       0.936  10.643  19.632  0.00  0.00    +0.000 A 
ATOM      9  C   UNL     1       1.309   9.313  19.551  0.00  0.00    +0.000 A 
ATOM     10  C   UNL     1       1.863   8.550  18.435  0.00  0.00    +0.000 C 
ATOM     11  O   UNL     1       2.132   9.021  17.347  0.00  0.00    +0.000 OA
ATOM     12  N   UNL     1       2.045   7.267  18.880  0.00  0.00    +0.000 N 
ENDBRANCH   1  12
BRANCH   1  13
ATOM     13  C   UNL     1       4.223   6.305  18.244  0.00  0.00    +0.000 C 
BRANCH  13  14
ATOM     14  O   UNL     1       4.812   5.088  18.779  0.00  0.00    +0.000 OA
BRANCH  14  15
ATOM     15  C   UNL     1       4.897   3.984  17.977  0.00  0.00    +0.000 C 
ATOM     16  S   UNL     1       5.274   4.011  16.352  0.00  0.00    +0.000 S 
BRANCH  15  17
ATOM     17  N   UNL     1       4.639   2.780  18.564  0.00  0.00    +0.000 N 
ATOM     18  H   UNL     1       5.377   2.104  18.405  0.00  0.00    +0.000 HD
BRANCH  17  19
ATOM     19  C   UNL     1       3.356   2.261  18.996  0.00  0.00    +0.000 C 
ATOM     20  C   UNL     1       2.854   2.944  20.265  0.00  0.00    +0.000 C 
ATOM     21  C   UNL     1       1.353   2.683  20.265  0.00  0.00    +0.000 C 
ATOM     22  C   UNL     1       0.951   2.533  18.799  0.00  0.00    +0.000 C 
ATOM     23  C   UNL     1       2.246   2.599  17.995  0.00  0.00    +0.000 C 
ENDBRANCH  17  19
ENDBRANCH  15  17
ENDBRANCH  14  15
ENDBRANCH  13  14
ENDBRANCH   1  13
TORSDOF 6
ENDMDL
