MODEL 1
REMARK VINA RESULT:      -6.8      0.000      0.000
REMARK  Name = 
REMARK  9 active torsions:
REMARK  status: ('A' for Active; 'I' for Inactive)
REMARK    1  A    between atoms: C_1  and  O_2
REMARK    2  A    between atoms: O_2  and  C_3
REMARK    3  A    between atoms: C_5  and  C_6
REMARK    4  A    between atoms: C_18  and  C_19
REMARK    5  A    between atoms: C_19  and  O_20
REMARK    6  A    between atoms: C_25  and  O_26
REMARK    7  A    between atoms: O_26  and  C_27
REMARK    8  A    between atoms: C_28  and  O_29
REMARK    9  A    between atoms: O_29  and  C_30
REMARK                            x       y       z     vdW  Elec       q    Type
REMARK                         _______ _______ _______ _____ _____    ______ ____
ROOT
ATOM      1  C   UNL     1      -1.416  12.060  19.817  0.00  0.00    +0.000 C 
ATOM      2  C   UNL     1      -0.628  12.472  21.094  0.00  0.00    +0.000 A 
ATOM      3  C   UNL     1      -0.834  13.543  21.914  0.00  0.00    +0.000 A 
ATOM      4  C   UNL     1      -1.638  13.230  22.940  0.00  0.00    +0.000 A 
ATOM      5  C   UNL     1      -1.988  11.918  23.139  0.00  0.00    +0.000 A 
ATOM      6  C   UNL     1      -1.237  10.867  22.545  0.00  0.00    +0.000 A 
ATOM      7  C   UNL     1      -0.256  11.264  21.631  0.00  0.00    +0.000 A 
ATOM      8  C   UNL     1       0.549  10.610  20.521  0.00  0.00    +0.000 C 
ATOM      9  N   UNL     1       0.894   9.371  20.462  0.00  0.00    +0.000 NA
ATOM     10  O   UNL     1       1.458   9.193  19.142  0.00  0.00    +0.000 OA
ATOM     11  C   UNL     1       0.957  10.239  18.296  0.00  0.00    +0.000 C 
ATOM     12  C   UNL     1       0.841  11.443  19.214  0.00  0.00    +0.000 C 
ATOM     13  C   UNL     1      -0.353  12.358  18.767  0.00  0.00    +0.000 C 
ATOM     14  O   UNL     1      -3.206  11.895  23.772  0.00  0.00    +0.000 OA
ATOM     15  C   UNL     1      -3.548  13.325  23.783  0.00  0.00    +0.000 C 
ATOM     16  O   UNL     1      -2.393  14.150  23.584  0.00  0.00    +0.000 OA
ENDROOT
BRANCH   1  19
ATOM     17  C   UNL     1      -5.227  12.485  19.606  0.00  0.00    +0.000 A 
ATOM     18  C   UNL     1      -3.965  12.490  20.227  0.00  0.00    +0.000 A 
ATOM     19  C   UNL     1      -2.863  12.115  19.502  0.00  0.00    +0.000 A 
ATOM     20  C   UNL     1      -3.137  11.294  18.424  0.00  0.00    +0.000 A 
ATOM     21  C   UNL     1      -4.233  11.465  17.655  0.00  0.00    +0.000 A 
ATOM     22  C   UNL     1      -5.316  12.142  18.215  0.00  0.00    +0.000 A 
BRANCH  17  24
ATOM     23  C   UNL     1      -7.099  11.780  20.886  0.00  0.00    +0.000 C 
ATOM     24  O   UNL     1      -6.351  12.851  20.304  0.00  0.00    +0.000 OA
ENDBRANCH  17  24
BRANCH  21  25
ATOM     25  O   UNL     1      -3.959  10.950  16.449  0.00  0.00    +0.000 OA
ATOM     26  C   UNL     1      -2.664  10.865  15.933  0.00  0.00    +0.000 C 
ENDBRANCH  21  25
BRANCH  22  27
ATOM     27  O   UNL     1      -6.446  12.344  17.475  0.00  0.00    +0.000 OA
ATOM     28  C   UNL     1      -6.606  13.664  16.957  0.00  0.00    +0.000 C 
ENDBRANCH  22  27
ENDBRANCH   1  19
BRANCH  13  29
ATOM     29  C   UNL     1      -0.219  13.885  18.620  0.00  0.00    +0.000 C 
BRANCH  29  30
ATOM     30  O   UNL     1       1.135  14.287  18.654  0.00  0.00    +0.000 OA
ATOM     31  H   UNL     1       1.186  15.111  19.166  0.00  0.00    +0.000 HD
ENDBRANCH  29  30
ENDBRANCH  13  29
TORSDOF 6
ENDMDL
MODEL 2
REMARK VINA RESULT:      -6.5      5.759      9.668
REMARK  Name = 
REMARK  9 active torsions:
REMARK  status: ('A' for Active; 'I' for Inactive)
REMARK    1  A    between atoms: C_1  and  O_2
REMARK    2  A    between atoms: O_2  and  C_3
REMARK    3  A    between atoms: C_5  and  C_6
REMARK    4  A    between atoms: C_18  and  C_19
REMARK    5  A    between atoms: C_19  and  O_20
REMARK    6  A    between atoms: C_25  and  O_26
REMARK    7  A    between atoms: O_26  and  C_27
REMARK    8  A    between atoms: C_28  and  O_29
REMARK    9  A    between atoms: O_29  and  C_30
REMARK                            x       y       z     vdW  Elec       q    Type
REMARK                         _______ _______ _______ _____ _____    ______ ____
ROOT
ATOM      1  C   UNL     1       2.457   4.782  19.105  0.00  0.00    +0.000 C 
ATOM      2  C   UNL     1       3.406   3.849  18.297  0.00  0.00    +0.000 A 
ATOM      3  C   UNL     1       3.720   3.895  16.971  0.00  0.00    +0.000 A 
ATOM      4  C   UNL     1       4.824   4.622  16.750  0.00  0.00    +0.000 A 
ATOM      5  C   UNL     1       5.566   5.052  17.822  0.00  0.00    +0.000 A 
ATOM      6  C   UNL     1       5.420   4.444  19.099  0.00  0.00    +0.000 A 
ATOM      7  C   UNL     1       4.374   3.523  19.216  0.00  0.00    +0.000 A 
ATOM      8  C   UNL     1       3.592   2.878  20.348  0.00  0.00    +0.000 C 
ATOM      9  N   UNL     1       4.032   2.637  21.534  0.00  0.00    +0.000 NA
ATOM     10  O   UNL     1       2.876   2.213  22.292  0.00  0.00    +0.000 OA
ATOM     11  C   UNL     1       1.701   2.707  21.633  0.00  0.00    +0.000 C 
ATOM     12  C   UNL     1       2.044   2.645  20.154  0.00  0.00    +0.000 C 
ATOM     13  C   UNL     1       1.323   3.800  19.376  0.00  0.00    +0.000 C 
ATOM     14  O   UNL     1       6.214   6.205  17.453  0.00  0.00    +0.000 OA
ATOM     15  C   UNL     1       5.652   6.433  16.114  0.00  0.00    +0.000 C 
ATOM     16  O   UNL     1       5.070   5.241  15.572  0.00  0.00    +0.000 OA
ENDROOT
BRANCH   1  19
ATOM     17  C   UNL     1       2.031   8.502  18.255  0.00  0.00    +0.000 A 
ATOM     18  C   UNL     1       2.419   7.169  18.032  0.00  0.00    +0.000 A 
ATOM     19  C   UNL     1       2.223   6.243  19.025  0.00  0.00    +0.000 A 
ATOM     20  C   UNL     1       2.151   6.773  20.299  0.00  0.00    +0.000 A 
ATOM     21  C   UNL     1       1.533   7.946  20.552  0.00  0.00    +0.000 A 
ATOM     22  C   UNL     1       1.390   8.843  19.493  0.00  0.00    +0.000 A 
BRANCH  17  24
ATOM     23  C   UNL     1       2.605  10.750  17.747  0.00  0.00    +0.000 C 
ATOM     24  O   UNL     1       2.216   9.455  17.283  0.00  0.00    +0.000 OA
ENDBRANCH  17  24
BRANCH  21  25
ATOM     25  O   UNL     1       1.139   7.922  21.832  0.00  0.00    +0.000 OA
ATOM     26  C   UNL     1       1.127   9.056  22.647  0.00  0.00    +0.000 C 
ENDBRANCH  21  25
BRANCH  22  27
ATOM     27  O   UNL     1       0.767  10.041  19.698  0.00  0.00    +0.000 OA
ATOM     28  C   UNL     1      -0.637  10.047  19.442  0.00  0.00    +0.000 C 
ENDBRANCH  22  27
ENDBRANCH   1  19
BRANCH  13  29
ATOM     29  C   UNL     1       0.551   3.562  18.064  0.00  0.00    +0.000 C 
BRANCH  29  30
ATOM     30  O   UNL     1       0.086   2.232  17.977  0.00  0.00    +0.000 OA
ATOM     31  H   UNL     1      -0.548   2.092  18.699  0.00  0.00    +0.000 HD
ENDBRANCH  29  30
ENDBRANCH  13  29
TORSDOF 6
ENDMDL
MODEL 3
REMARK VINA RESULT:      -6.5      2.202      5.228
REMARK  Name = 
REMARK  9 active torsions:
REMARK  status: ('A' for Active; 'I' for Inactive)
REMARK    1  A    between atoms: C_1  and  O_2
REMARK    2  A    between atoms: O_2  and  C_3
REMARK    3  A    between atoms: C_5  and  C_6
REMARK    4  A    between atoms: C_18  and  C_19
REMARK    5  A    between atoms: C_19  and  O_20
REMARK    6  A    between atoms: C_25  and  O_26
REMARK    7  A    between atoms: O_26  and  C_27
REMARK    8  A    between atoms: C_28  and  O_29
REMARK    9  A    between atoms: O_29  and  C_30
REMARK                            x       y       z     vdW  Elec       q    Type
REMARK                         _______ _______ _______ _____ _____    ______ ____
ROOT
ATOM      1  C   UNL     1      -2.915  13.087  22.399  0.00  0.00    +0.000 C 
ATOM      2  C   UNL     1      -1.639  12.478  23.050  0.00  0.00    +0.000 A 
ATOM      3  C   UNL     1      -1.259  11.170  23.119  0.00  0.00    +0.000 A 
ATOM      4  C   UNL     1      -0.469  10.830  22.092  0.00  0.00    +0.000 A 
ATOM      5  C   UNL     1      -0.011  11.812  21.248  0.00  0.00    +0.000 A 
ATOM      6  C   UNL     1      -0.031  13.178  21.643  0.00  0.00    +0.000 A 
ATOM      7  C   UNL     1      -0.692  13.452  22.844  0.00  0.00    +0.000 A 
ATOM      8  C   UNL     1      -1.281  14.675  23.527  0.00  0.00    +0.000 C 
ATOM      9  N   UNL     1      -0.877  15.890  23.388  0.00  0.00    +0.000 NA
ATOM     10  O   UNL     1      -1.864  16.701  24.065  0.00  0.00    +0.000 OA
ATOM     11  C   UNL     1      -3.083  15.948  24.147  0.00  0.00    +0.000 C 
ATOM     12  C   UNL     1      -2.628  14.511  24.331  0.00  0.00    +0.000 C 
ATOM     13  C   UNL     1      -3.647  13.523  23.663  0.00  0.00    +0.000 C 
ATOM     14  O   UNL     1       0.216  11.243  20.020  0.00  0.00    +0.000 OA
ATOM     15  C   UNL     1      -0.285   9.878  20.240  0.00  0.00    +0.000 C 
ATOM     16  O   UNL     1      -0.367   9.560  21.635  0.00  0.00    +0.000 OA
ENDROOT
BRANCH   1  19
ATOM     17  C   UNL     1      -4.188  12.043  18.931  0.00  0.00    +0.000 A 
ATOM     18  C   UNL     1      -3.226  12.382  19.898  0.00  0.00    +0.000 A 
ATOM     19  C   UNL     1      -3.641  12.735  21.157  0.00  0.00    +0.000 A 
ATOM     20  C   UNL     1      -4.935  13.218  21.221  0.00  0.00    +0.000 A 
ATOM     21  C   UNL     1      -5.930  12.700  20.470  0.00  0.00    +0.000 A 
ATOM     22  C   UNL     1      -5.574  12.020  19.306  0.00  0.00    +0.000 A 
BRANCH  17  24
ATOM     23  C   UNL     1      -2.413  11.422  17.481  0.00  0.00    +0.000 C 
ATOM     24  O   UNL     1      -3.807  11.689  17.660  0.00  0.00    +0.000 OA
ENDBRANCH  17  24
BRANCH  21  25
ATOM     25  O   UNL     1      -7.081  12.943  21.111  0.00  0.00    +0.000 OA
ATOM     26  C   UNL     1      -7.612  12.085  22.076  0.00  0.00    +0.000 C 
ENDBRANCH  21  25
BRANCH  22  27
ATOM     27  O   UNL     1      -6.544  11.474  18.515  0.00  0.00    +0.000 OA
ATOM     28  C   UNL     1      -6.929  10.143  18.857  0.00  0.00    +0.000 C 
ENDBRANCH  22  27
ENDBRANCH   1  19
BRANCH  13  29
ATOM     29  C   UNL     1      -4.182  12.271  24.381  0.00  0.00    +0.000 C 
BRANCH  29  30
ATOM     30  O   UNL     1      -4.505  12.549  25.727  0.00  0.00    +0.000 OA
ATOM     31  H   UNL     1      -4.222  13.459  25.917  0.00  0.00    +0.000 HD
ENDBRANCH  29  30
ENDBRANCH  13  29
TORSDOF 6
ENDMDL
MODEL 4
REMARK VINA RESULT:      -6.5      1.092      1.134
REMARK  Name = 
REMARK  9 active torsions:
REMARK  status: ('A' for Active; 'I' for Inactive)
REMARK    1  A    between atoms: C_1  and  O_2
REMARK    2  A    between atoms: O_2  and  C_3
REMARK    3  A    between atoms: C_5  and  C_6
REMARK    4  A    between atoms: C_18  and  C_19
REMARK    5  A    between atoms: C_19  and  O_20
REMARK    6  A    between atoms: C_25  and  O_26
REMARK    7  A    between atoms: O_26  and  C_27
REMARK    8  A    between atoms: C_28  and  O_29
REMARK    9  A    between atoms: O_29  and  C_30
REMARK                            x       y       z     vdW  Elec       q    Type
REMARK                         _______ _______ _______ _____ _____    ______ ____
ROOT
ATOM      1  C   UNL     1      -0.642  11.428  19.609  0.00  0.00    +0.000 C 
ATOM      2  C   UNL     1       0.187  11.791  20.876  0.00  0.00    +0.000 A 
ATOM      3  C   UNL     1       0.118  12.915  21.646  0.00  0.00    +0.000 A 
ATOM      4  C   UNL     1      -0.726  12.756  22.676  0.00  0.00    +0.000 A 
ATOM      5  C   UNL     1      -1.246  11.511  22.928  0.00  0.00    +0.000 A 
ATOM      6  C   UNL     1      -0.635  10.345  22.388  0.00  0.00    +0.000 A 
ATOM      7  C   UNL     1       0.395  10.570  21.470  0.00  0.00    +0.000 A 
ATOM      8  C   UNL     1       1.114   9.767  20.398  0.00  0.00    +0.000 C 
ATOM      9  N   UNL     1       1.294   8.492  20.397  0.00  0.00    +0.000 NA
ATOM     10  O   UNL     1       1.837   8.184  19.093  0.00  0.00    +0.000 OA
ATOM     11  C   UNL     1       1.482   9.246  18.197  0.00  0.00    +0.000 C 
ATOM     12  C   UNL     1       1.519  10.496  19.060  0.00  0.00    +0.000 C 
ATOM     13  C   UNL     1       0.458  11.538  18.560  0.00  0.00    +0.000 C 
ATOM     14  O   UNL     1      -2.460  11.675  23.546  0.00  0.00    +0.000 OA
ATOM     15  C   UNL     1      -2.612  13.137  23.492  0.00  0.00    +0.000 C 
ATOM     16  O   UNL     1      -1.358  13.794  23.270  0.00  0.00    +0.000 OA
ENDROOT
BRANCH   1  19
ATOM     17  C   UNL     1      -4.338  12.417  19.286  0.00  0.00    +0.000 A 
ATOM     18  C   UNL     1      -3.080  12.332  19.908  0.00  0.00    +0.000 A 
ATOM     19  C   UNL     1      -2.067  11.657  19.275  0.00  0.00    +0.000 A 
ATOM     20  C   UNL     1      -2.491  10.707  18.365  0.00  0.00    +0.000 A 
ATOM     21  C   UNL     1      -3.561  10.908  17.567  0.00  0.00    +0.000 A 
ATOM     22  C   UNL     1      -4.509  11.843  17.982  0.00  0.00    +0.000 A 
BRANCH  17  24
ATOM     23  C   UNL     1      -5.635  12.718  21.253  0.00  0.00    +0.000 C 
ATOM     24  O   UNL     1      -5.374  13.082  19.894  0.00  0.00    +0.000 OA
ENDBRANCH  17  24
BRANCH  21  25
ATOM     25  O   UNL     1      -3.398  10.143  16.480  0.00  0.00    +0.000 OA
ATOM     26  C   UNL     1      -3.020  10.656  15.237  0.00  0.00    +0.000 C 
ENDBRANCH  21  25
BRANCH  22  27
ATOM     27  O   UNL     1      -5.608  12.085  17.207  0.00  0.00    +0.000 OA
ATOM     28  C   UNL     1      -6.851  11.664  17.768  0.00  0.00    +0.000 C 
ENDBRANCH  22  27
ENDBRANCH   1  19
BRANCH  13  29
ATOM     29  C   UNL     1       0.791  13.026  18.348  0.00  0.00    +0.000 C 
BRANCH  29  30
ATOM     30  O   UNL     1       1.989  13.184  17.616  0.00  0.00    +0.000 OA
ATOM     31  H   UNL     1       2.552  13.809  18.101  0.00  0.00    +0.000 HD
ENDBRANCH  29  30
ENDBRANCH  13  29
TORSDOF 6
ENDMDL
MODEL 5
REMARK VINA RESULT:      -6.5      1.415      1.718
REMARK  Name = 
REMARK  9 active torsions:
REMARK  status: ('A' for Active; 'I' for Inactive)
REMARK    1  A    between atoms: C_1  and  O_2
REMARK    2  A    between atoms: O_2  and  C_3
REMARK    3  A    between atoms: C_5  and  C_6
REMARK    4  A    between atoms: C_18  and  C_19
REMARK    5  A    between atoms: C_19  and  O_20
REMARK    6  A    between atoms: C_25  and  O_26
REMARK    7  A    between atoms: O_26  and  C_27
REMARK    8  A    between atoms: C_28  and  O_29
REMARK    9  A    between atoms: O_29  and  C_30
REMARK                            x       y       z     vdW  Elec       q    Type
REMARK                         _______ _______ _______ _____ _____    ______ ____
ROOT
ATOM      1  C   UNL     1      -2.378  12.285  20.426  0.00  0.00    +0.000 C 
ATOM      2  C   UNL     1      -1.730  13.129  21.562  0.00  0.00    +0.000 A 
ATOM      3  C   UNL     1      -1.857  14.464  21.810  0.00  0.00    +0.000 A 
ATOM      4  C   UNL     1      -2.851  14.713  22.674  0.00  0.00    +0.000 A 
ATOM      5  C   UNL     1      -3.463  13.661  23.309  0.00  0.00    +0.000 A 
ATOM      6  C   UNL     1      -2.838  12.385  23.371  0.00  0.00    +0.000 A 
ATOM      7  C   UNL     1      -1.673  12.244  22.611  0.00  0.00    +0.000 A 
ATOM      8  C   UNL     1      -0.843  11.094  22.066  0.00  0.00    +0.000 C 
ATOM      9  N   UNL     1      -0.728   9.924  22.592  0.00  0.00    +0.000 NA
ATOM     10  O   UNL     1      -0.013   9.134  21.615  0.00  0.00    +0.000 OA
ATOM     11  C   UNL     1      -0.177   9.752  20.330  0.00  0.00    +0.000 C 
ATOM     12  C   UNL     1      -0.208  11.241  20.630  0.00  0.00    +0.000 C 
ATOM     13  C   UNL     1      -1.130  11.987  19.603  0.00  0.00    +0.000 C 
ATOM     14  O   UNL     1      -4.746  14.040  23.617  0.00  0.00    +0.000 OA
ATOM     15  C   UNL     1      -4.817  15.359  22.971  0.00  0.00    +0.000 C 
ATOM     16  O   UNL     1      -3.513  15.893  22.709  0.00  0.00    +0.000 OA
ENDROOT
BRANCH   1  19
ATOM     17  C   UNL     1      -6.066  12.673  19.429  0.00  0.00    +0.000 A 
ATOM     18  C   UNL     1      -4.967  12.648  20.307  0.00  0.00    +0.000 A 
ATOM     19  C   UNL     1      -3.724  12.345  19.811  0.00  0.00    +0.000 A 
ATOM     20  C   UNL     1      -3.736  11.606  18.643  0.00  0.00    +0.000 A 
ATOM     21  C   UNL     1      -4.647  11.820  17.670  0.00  0.00    +0.000 A 
ATOM     22  C   UNL     1      -5.844  12.437  18.030  0.00  0.00    +0.000 A 
BRANCH  17  24
ATOM     23  C   UNL     1      -7.433  13.181  21.303  0.00  0.00    +0.000 C 
ATOM     24  O   UNL     1      -7.323  12.969  19.893  0.00  0.00    +0.000 OA
ENDBRANCH  17  24
BRANCH  21  25
ATOM     25  O   UNL     1      -4.105  11.403  16.518  0.00  0.00    +0.000 OA
ATOM     26  C   UNL     1      -2.978  10.582  16.459  0.00  0.00    +0.000 C 
ENDBRANCH  21  25
BRANCH  22  27
ATOM     27  O   UNL     1      -6.795  12.680  17.081  0.00  0.00    +0.000 OA
ATOM     28  C   UNL     1      -6.892  14.037  16.652  0.00  0.00    +0.000 C 
ENDBRANCH  22  27
ENDBRANCH   1  19
BRANCH  13  29
ATOM     29  C   UNL     1      -0.696  13.275  18.880  0.00  0.00    +0.000 C 
BRANCH  29  30
ATOM     30  O   UNL     1      -0.848  13.155  17.482  0.00  0.00    +0.000 OA
ATOM     31  H   UNL     1      -0.177  12.528  17.164  0.00  0.00    +0.000 HD
ENDBRANCH  29  30
ENDBRANCH  13  29
TORSDOF 6
ENDMDL
MODEL 6
REMARK VINA RESULT:      -6.4      5.923      9.281
REMARK  Name = 
REMARK  9 active torsions:
REMARK  status: ('A' for Active; 'I' for Inactive)
REMARK    1  A    between atoms: C_1  and  O_2
REMARK    2  A    between atoms: O_2  and  C_3
REMARK    3  A    between atoms: C_5  and  C_6
REMARK    4  A    between atoms: C_18  and  C_19
REMARK    5  A    between atoms: C_19  and  O_20
REMARK    6  A    between atoms: C_25  and  O_26
REMARK    7  A    between atoms: O_26  and  C_27
REMARK    8  A    between atoms: C_28  and  O_29
REMARK    9  A    between atoms: O_29  and  C_30
REMARK                            x       y       z     vdW  Elec       q    Type
REMARK                         _______ _______ _______ _____ _____    ______ ____
ROOT
ATOM      1  C   UNL     1       4.141   5.493  18.357  0.00  0.00    +0.000 C 
ATOM      2  C   UNL     1       4.284   3.950  18.500  0.00  0.00    +0.000 A 
ATOM      3  C   UNL     1       4.095   3.175  19.607  0.00  0.00    +0.000 A 
ATOM      4  C   UNL     1       2.840   2.710  19.675  0.00  0.00    +0.000 A 
ATOM      5  C   UNL     1       1.999   2.898  18.605  0.00  0.00    +0.000 A 
ATOM      6  C   UNL     1       2.517   3.217  17.320  0.00  0.00    +0.000 A 
ATOM      7  C   UNL     1       3.887   3.487  17.269  0.00  0.00    +0.000 A 
ATOM      8  C   UNL     1       4.843   4.169  16.304  0.00  0.00    +0.000 C 
ATOM      9  N   UNL     1       4.708   4.243  15.026  0.00  0.00    +0.000 NA
ATOM     10  O   UNL     1       5.744   5.149  14.583  0.00  0.00    +0.000 OA
ATOM     11  C   UNL     1       6.133   5.964  15.697  0.00  0.00    +0.000 C 
ATOM     12  C   UNL     1       6.014   5.042  16.899  0.00  0.00    +0.000 C 
ATOM     13  C   UNL     1       5.610   5.858  18.177  0.00  0.00    +0.000 C 
ATOM     14  O   UNL     1       0.711   2.927  19.080  0.00  0.00    +0.000 OA
ATOM     15  C   UNL     1       0.939   2.866  20.531  0.00  0.00    +0.000 C 
ATOM     16  O   UNL     1       2.247   2.370  20.842  0.00  0.00    +0.000 OA
ENDROOT
BRANCH   1  19
ATOM     17  C   UNL     1       1.582   7.514  20.386  0.00  0.00    +0.000 A 
ATOM     18  C   UNL     1       2.375   6.397  20.064  0.00  0.00    +0.000 A 
ATOM     19  C   UNL     1       3.167   6.442  18.945  0.00  0.00    +0.000 A 
ATOM     20  C   UNL     1       2.743   7.333  17.977  0.00  0.00    +0.000 A 
ATOM     21  C   UNL     1       2.219   8.536  18.292  0.00  0.00    +0.000 A 
ATOM     22  C   UNL     1       1.668   8.688  19.564  0.00  0.00    +0.000 A 
BRANCH  17  24
ATOM     23  C   UNL     1       0.966   8.579  22.417  0.00  0.00    +0.000 C 
ATOM     24  O   UNL     1       0.776   7.500  21.497  0.00  0.00    +0.000 OA
ENDBRANCH  17  24
BRANCH  21  25
ATOM     25  O   UNL     1       2.426   9.348  17.248  0.00  0.00    +0.000 OA
ATOM     26  C   UNL     1       2.675  10.716  17.383  0.00  0.00    +0.000 C 
ENDBRANCH  21  25
BRANCH  22  27
ATOM     27  O   UNL     1       1.129   9.888  19.933  0.00  0.00    +0.000 OA
ATOM     28  C   UNL     1      -0.183  10.142  19.433  0.00  0.00    +0.000 C 
ENDBRANCH  22  27
ENDBRANCH   1  19
BRANCH  13  29
ATOM     29  C   UNL     1       6.329   5.694  19.528  0.00  0.00    +0.000 C 
BRANCH  29  30
ATOM     30  O   UNL     1       7.666   5.276  19.350  0.00  0.00    +0.000 OA
ATOM     31  H   UNL     1       7.956   5.577  18.474  0.00  0.00    +0.000 HD
ENDBRANCH  29  30
ENDBRANCH  13  29
TORSDOF 6
ENDMDL
MODEL 7
REMARK VINA RESULT:      -6.4      0.959      1.068
REMARK  Name = 
REMARK  9 active torsions:
REMARK  status: ('A' for Active; 'I' for Inactive)
REMARK    1  A    between atoms: C_1  and  O_2
REMARK    2  A    between atoms: O_2  and  C_3
REMARK    3  A    between atoms: C_5  and  C_6
REMARK    4  A    between atoms: C_18  and  C_19
REMARK    5  A    between atoms: C_19  and  O_20
REMARK    6  A    between atoms: C_25  and  O_26
REMARK    7  A    between atoms: O_26  and  C_27
REMARK    8  A    between atoms: C_28  and  O_29
REMARK    9  A    between atoms: O_29  and  C_30
REMARK                            x       y       z     vdW  Elec       q    Type
REMARK                         _______ _______ _______ _____ _____    ______ ____
ROOT
ATOM      1  C   UNL     1      -1.933  12.715  20.450  0.00  0.00    +0.000 C 
ATOM      2  C   UNL     1      -1.357  13.105  21.842  0.00  0.00    +0.000 A 
ATOM      3  C   UNL     1      -1.816  14.039  22.724  0.00  0.00    +0.000 A 
ATOM      4  C   UNL     1      -2.660  13.503  23.617  0.00  0.00    +0.000 A 
ATOM      5  C   UNL     1      -2.811  12.138  23.656  0.00  0.00    +0.000 A 
ATOM      6  C   UNL     1      -1.844  11.281  23.064  0.00  0.00    +0.000 A 
ATOM      7  C   UNL     1      -0.851  11.916  22.311  0.00  0.00    +0.000 A 
ATOM      8  C   UNL     1       0.158  11.512  21.250  0.00  0.00    +0.000 C 
ATOM      9  N   UNL     1       0.703  10.352  21.123  0.00  0.00    +0.000 NA
ATOM     10  O   UNL     1       1.421  10.402  19.868  0.00  0.00    +0.000 OA
ATOM     11  C   UNL     1       0.847  11.443  19.065  0.00  0.00    +0.000 C 
ATOM     12  C   UNL     1       0.444  12.513  20.065  0.00  0.00    +0.000 C 
ATOM     13  C   UNL     1      -0.829  13.280  19.563  0.00  0.00    +0.000 C 
ATOM     14  O   UNL     1      -4.068  11.866  24.136  0.00  0.00    +0.000 OA
ATOM     15  C   UNL     1      -4.636  13.219  24.234  0.00  0.00    +0.000 C 
ATOM     16  O   UNL     1      -3.615  14.224  24.246  0.00  0.00    +0.000 OA
ENDROOT
BRANCH   1  19
ATOM     17  C   UNL     1      -5.718  12.648  19.804  0.00  0.00    +0.000 A 
ATOM     18  C   UNL     1      -4.546  12.814  20.564  0.00  0.00    +0.000 A 
ATOM     19  C   UNL     1      -3.329  12.585  19.973  0.00  0.00    +0.000 A 
ATOM     20  C   UNL     1      -3.371  11.738  18.881  0.00  0.00    +0.000 A 
ATOM     21  C   UNL     1      -4.386  11.768  17.991  0.00  0.00    +0.000 A 
ATOM     22  C   UNL     1      -5.603  12.300  18.416  0.00  0.00    +0.000 A 
BRANCH  17  24
ATOM     23  C   UNL     1      -7.343  11.940  21.384  0.00  0.00    +0.000 C 
ATOM     24  O   UNL     1      -6.951  12.865  20.367  0.00  0.00    +0.000 OA
ENDBRANCH  17  24
BRANCH  21  25
ATOM     25  O   UNL     1      -3.913  11.296  16.831  0.00  0.00    +0.000 OA
ATOM     26  C   UNL     1      -2.554  11.075  16.595  0.00  0.00    +0.000 C 
ENDBRANCH  21  25
BRANCH  22  27
ATOM     27  O   UNL     1      -6.659  12.356  17.551  0.00  0.00    +0.000 OA
ATOM     28  C   UNL     1      -6.834  13.608  16.888  0.00  0.00    +0.000 C 
ENDBRANCH  22  27
ENDBRANCH   1  19
BRANCH  13  29
ATOM     29  C   UNL     1      -0.929  14.816  19.569  0.00  0.00    +0.000 C 
BRANCH  29  30
ATOM     30  O   UNL     1      -0.533  15.360  18.327  0.00  0.00    +0.000 OA
ATOM     31  H   UNL     1      -0.943  16.237  18.244  0.00  0.00    +0.000 HD
ENDBRANCH  29  30
ENDBRANCH  13  29
TORSDOF 6
ENDMDL
MODEL 8
REMARK VINA RESULT:      -6.3      1.800      3.929
REMARK  Name = 
REMARK  9 active torsions:
REMARK  status: ('A' for Active; 'I' for Inactive)
REMARK    1  A    between atoms: C_1  and  O_2
REMARK    2  A    between atoms: O_2  and  C_3
REMARK    3  A    between atoms: C_5  and  C_6
REMARK    4  A    between atoms: C_18  and  C_19
REMARK    5  A    between atoms: C_19  and  O_20
REMARK    6  A    between atoms: C_25  and  O_26
REMARK    7  A    between atoms: O_26  and  C_27
REMARK    8  A    between atoms: C_28  and  O_29
REMARK    9  A    between atoms: O_29  and  C_30
REMARK                            x       y       z     vdW  Elec       q    Type
REMARK                         _______ _______ _______ _____ _____    ______ ____
ROOT
ATOM      1  C   UNL     1      -0.650  11.095  19.718  0.00  0.00    +0.000 C 
ATOM      2  C   UNL     1       0.488  12.051  20.179  0.00  0.00    +0.000 A 
ATOM      3  C   UNL     1       1.166  12.984  19.450  0.00  0.00    +0.000 A 
ATOM      4  C   UNL     1       0.594  14.193  19.542  0.00  0.00    +0.000 A 
ATOM      5  C   UNL     1      -0.425  14.383  20.442  0.00  0.00    +0.000 A 
ATOM      6  C   UNL     1      -0.625  13.473  21.517  0.00  0.00    +0.000 A 
ATOM      7  C   UNL     1       0.159  12.316  21.486  0.00  0.00    +0.000 A 
ATOM      8  C   UNL     1       0.126  10.942  22.134  0.00  0.00    +0.000 C 
ATOM      9  N   UNL     1      -0.377  10.657  23.284  0.00  0.00    +0.000 NA
ATOM     10  O   UNL     1      -0.352   9.213  23.366  0.00  0.00    +0.000 OA
ATOM     11  C   UNL     1      -0.288   8.690  22.031  0.00  0.00    +0.000 C 
ATOM     12  C   UNL     1       0.561   9.695  21.272  0.00  0.00    +0.000 C 
ATOM     13  C   UNL     1       0.107   9.773  19.772  0.00  0.00    +0.000 C 
ATOM     14  O   UNL     1      -1.225  15.393  19.970  0.00  0.00    +0.000 OA
ATOM     15  C   UNL     1      -0.615  15.650  18.657  0.00  0.00    +0.000 C 
ATOM     16  O   UNL     1       0.721  15.138  18.582  0.00  0.00    +0.000 OA
ENDROOT
BRANCH   1  19
ATOM     17  C   UNL     1      -3.178  11.438  16.848  0.00  0.00    +0.000 A 
ATOM     18  C   UNL     1      -1.914  11.233  17.431  0.00  0.00    +0.000 A 
ATOM     19  C   UNL     1      -1.789  11.306  18.795  0.00  0.00    +0.000 A 
ATOM     20  C   UNL     1      -2.762  12.063  19.421  0.00  0.00    +0.000 A 
ATOM     21  C   UNL     1      -4.049  12.049  19.017  0.00  0.00    +0.000 A 
ATOM     22  C   UNL     1      -4.310  11.661  17.702  0.00  0.00    +0.000 A 
BRANCH  17  24
ATOM     23  C   UNL     1      -2.942  10.146  14.869  0.00  0.00    +0.000 C 
ATOM     24  O   UNL     1      -3.337  11.375  15.486  0.00  0.00    +0.000 OA
ENDBRANCH  17  24
BRANCH  21  25
ATOM     25  O   UNL     1      -4.803  12.383  20.072  0.00  0.00    +0.000 OA
ATOM     26  C   UNL     1      -4.271  12.894  21.258  0.00  0.00    +0.000 C 
ENDBRANCH  21  25
BRANCH  22  27
ATOM     27  O   UNL     1      -5.597  11.627  17.247  0.00  0.00    +0.000 OA
ATOM     28  C   UNL     1      -6.207  12.903  17.055  0.00  0.00    +0.000 C 
ENDBRANCH  22  27
ENDBRANCH   1  19
BRANCH  13  29
ATOM     29  C   UNL     1       1.103   9.725  18.599  0.00  0.00    +0.000 C 
BRANCH  29  30
ATOM     30  O   UNL     1       1.749   8.472  18.525  0.00  0.00    +0.000 OA
ATOM     31  H   UNL     1       2.200   8.422  17.666  0.00  0.00    +0.000 HD
ENDBRANCH  29  30
ENDBRANCH  13  29
TORSDOF 6
ENDMDL
MODEL 9
REMARK VINA RESULT:      -6.2      6.263      9.902
REMARK  Name = 
REMARK  9 active torsions:
REMARK  status: ('A' for Active; 'I' for Inactive)
REMARK    1  A    between atoms: C_1  and  O_2
REMARK    2  A    between atoms: O_2  and  C_3
REMARK    3  A    between atoms: C_5  and  C_6
REMARK    4  A    between atoms: C_18  and  C_19
REMARK    5  A    between atoms: C_19  and  O_20
REMARK    6  A    between atoms: C_25  and  O_26
REMARK    7  A    between atoms: O_26  and  C_27
REMARK    8  A    between atoms: C_28  and  O_29
REMARK    9  A    between atoms: O_29  and  C_30
REMARK                            x       y       z     vdW  Elec       q    Type
REMARK                         _______ _______ _______ _____ _____    ______ ____
ROOT
ATOM      1  C   UNL     1       4.662   5.399  17.776  0.00  0.00    +0.000 C 
ATOM      2  C   UNL     1       4.594   3.863  18.021  0.00  0.00    +0.000 A 
ATOM      3  C   UNL     1       4.077   3.192  19.089  0.00  0.00    +0.000 A 
ATOM      4  C   UNL     1       2.794   2.860  18.889  0.00  0.00    +0.000 A 
ATOM      5  C   UNL     1       2.240   3.053  17.648  0.00  0.00    +0.000 A 
ATOM      6  C   UNL     1       3.064   3.227  16.502  0.00  0.00    +0.000 A 
ATOM      7  C   UNL     1       4.433   3.356  16.754  0.00  0.00    +0.000 A 
ATOM      8  C   UNL     1       5.651   3.869  16.004  0.00  0.00    +0.000 C 
ATOM      9  N   UNL     1       5.814   3.864  14.727  0.00  0.00    +0.000 NA
ATOM     10  O   UNL     1       7.018   4.629  14.492  0.00  0.00    +0.000 OA
ATOM     11  C   UNL     1       7.238   5.480  15.626  0.00  0.00    +0.000 C 
ATOM     12  C   UNL     1       6.750   4.662  16.810  0.00  0.00    +0.000 C 
ATOM     13  C   UNL     1       6.165   5.603  17.921  0.00  0.00    +0.000 C 
ATOM     14  O   UNL     1       0.890   3.244  17.811  0.00  0.00    +0.000 OA
ATOM     15  C   UNL     1       0.780   3.264  19.277  0.00  0.00    +0.000 C 
ATOM     16  O   UNL     1       1.921   2.665  19.904  0.00  0.00    +0.000 OA
ENDROOT
BRANCH   1  19
ATOM     17  C   UNL     1       2.363   8.469  17.983  0.00  0.00    +0.000 A 
ATOM     18  C   UNL     1       3.405   7.675  17.471  0.00  0.00    +0.000 A 
ATOM     19  C   UNL     1       3.694   6.479  18.079  0.00  0.00    +0.000 A 
ATOM     20  C   UNL     1       3.307   6.401  19.404  0.00  0.00    +0.000 A 
ATOM     21  C   UNL     1       2.153   6.945  19.845  0.00  0.00    +0.000 A 
ATOM     22  C   UNL     1       1.596   7.978  19.092  0.00  0.00    +0.000 A 
BRANCH  17  24
ATOM     23  C   UNL     1       2.428  10.837  18.137  0.00  0.00    +0.000 C 
ATOM     24  O   UNL     1       2.051   9.672  17.400  0.00  0.00    +0.000 OA
ENDBRANCH  17  24
BRANCH  21  25
ATOM     25  O   UNL     1       1.787   6.268  20.941  0.00  0.00    +0.000 OA
ATOM     26  C   UNL     1       2.529   5.207  21.466  0.00  0.00    +0.000 C 
ENDBRANCH  21  25
BRANCH  22  27
ATOM     27  O   UNL     1       0.427   8.558  19.496  0.00  0.00    +0.000 OA
ATOM     28  C   UNL     1       0.517   9.341  20.685  0.00  0.00    +0.000 C 
ENDBRANCH  22  27
ENDBRANCH   1  19
BRANCH  13  29
ATOM     29  C   UNL     1       6.541   5.466  19.408  0.00  0.00    +0.000 C 
BRANCH  29  30
ATOM     30  O   UNL     1       7.920   5.207  19.567  0.00  0.00    +0.000 OA
ATOM     31  H   UNL     1       8.358   5.409  18.724  0.00  0.00    +0.000 HD
ENDBRANCH  29  30
ENDBRANCH  13  29
TORSDOF 6
ENDMDL
