MODEL 1
REMARK VINA RESULT:      -6.2      0.000      0.000
REMARK  Name = 
REMARK  3 active torsions:
REMARK  status: ('A' for Active; 'I' for Inactive)
REMARK    1  A    between atoms: C_2  and  C_3
REMARK    2  A    between atoms: C_7  and  C_8
REMARK    3  A    between atoms: N_9  and  N_10
REMARK                            x       y       z     vdW  Elec       q    Type
REMARK                         _______ _______ _______ _____ _____    ______ ____
ROOT
ATOM      1  C   UNL     1       4.035   3.619  18.774  0.00  0.00    +0.000 C 
ATOM      2  N   UNL     1       3.368   4.129  19.758  0.00  0.00    +0.000 NA
ENDROOT
BRANCH   2   3
ATOM      3  N   UNL     1       2.991   3.286  20.759  0.00  0.00    +0.000 N 
ATOM      4  C   UNL     1       1.679   3.102  21.086  0.00  0.00    +0.000 C 
ATOM      5  N   UNL     1       0.709   3.686  20.465  0.00  0.00    +0.000 NA
ATOM      6  N   UNL     1       1.413   2.305  22.133  0.00  0.00    +0.000 N 
ATOM      7  H   UNL     1       3.680   2.807  21.325  0.00  0.00    +0.000 HD
ATOM      8  H   UNL     1       1.195   4.259  19.754  0.00  0.00    +0.000 HD
ATOM      9  H   UNL     1       2.074   1.650  22.515  0.00  0.00    +0.000 HD
ATOM     10  H   UNL     1       0.428   2.091  22.251  0.00  0.00    +0.000 HD
ENDBRANCH   2   3
BRANCH   1  15
ATOM     11  C   UNL     1       5.384   4.729  15.429  0.00  0.00    +0.000 A 
ATOM     12  C   UNL     1       5.314   6.118  15.558  0.00  0.00    +0.000 A 
ATOM     13  C   UNL     1       4.832   6.695  16.738  0.00  0.00    +0.000 A 
ATOM     14  C   UNL     1       4.417   5.880  17.795  0.00  0.00    +0.000 A 
ATOM     15  C   UNL     1       4.483   4.488  17.664  0.00  0.00    +0.000 A 
ATOM     16  C   UNL     1       4.964   3.913  16.484  0.00  0.00    +0.000 A 
BRANCH  11  18
ATOM     17  N   UNL     1       6.298   3.651  13.253  0.00  0.00    +0.000 NA
ATOM     18  C   UNL     1       5.885   4.138  14.226  0.00  0.00    +0.000 C 
ENDBRANCH  11  18
ENDBRANCH   1  15
TORSDOF 3
ENDMDL
MODEL 2
REMARK VINA RESULT:      -6.1      2.435      6.328
REMARK  Name = 
REMARK  3 active torsions:
REMARK  status: ('A' for Active; 'I' for Inactive)
REMARK    1  A    between atoms: C_2  and  C_3
REMARK    2  A    between atoms: C_7  and  C_8
REMARK    3  A    between atoms: N_9  and  N_10
REMARK                            x       y       z     vdW  Elec       q    Type
REMARK                         _______ _______ _______ _____ _____    ______ ____
ROOT
ATOM      1  C   UNL     1       4.151   5.321  17.147  0.00  0.00    +0.000 C 
ATOM      2  N   UNL     1       5.017   6.203  16.767  0.00  0.00    +0.000 NA
ENDROOT
BRANCH   2   3
ATOM      3  N   UNL     1       5.716   5.940  15.628  0.00  0.00    +0.000 N 
ATOM      4  C   UNL     1       6.939   5.337  15.661  0.00  0.00    +0.000 C 
ATOM      5  N   UNL     1       7.508   4.954  16.756  0.00  0.00    +0.000 NA
ATOM      6  N   UNL     1       7.580   5.184  14.491  0.00  0.00    +0.000 N 
ATOM      7  H   UNL     1       5.368   6.232  14.723  0.00  0.00    +0.000 HD
ATOM      8  H   UNL     1       6.827   5.229  17.483  0.00  0.00    +0.000 HD
ATOM      9  H   UNL     1       7.125   5.243  13.596  0.00  0.00    +0.000 HD
ATOM     10  H   UNL     1       8.416   4.612  14.548  0.00  0.00    +0.000 HD
ENDBRANCH   2   3
BRANCH   1  15
ATOM     11  C   UNL     1       2.348   4.719  20.408  0.00  0.00    +0.000 A 
ATOM     12  C   UNL     1       1.862   5.998  20.687  0.00  0.00    +0.000 A 
ATOM     13  C   UNL     1       2.116   7.058  19.809  0.00  0.00    +0.000 A 
ATOM     14  C   UNL     1       2.861   6.839  18.647  0.00  0.00    +0.000 A 
ATOM     15  C   UNL     1       3.352   5.558  18.369  0.00  0.00    +0.000 A 
ATOM     16  C   UNL     1       3.098   4.501  19.248  0.00  0.00    +0.000 A 
BRANCH  11  18
ATOM     17  N   UNL     1       1.856   2.749  22.022  0.00  0.00    +0.000 NA
ATOM     18  C   UNL     1       2.081   3.633  21.300  0.00  0.00    +0.000 C 
ENDBRANCH  11  18
ENDBRANCH   1  15
TORSDOF 3
ENDMDL
MODEL 3
REMARK VINA RESULT:      -6.1      1.822      6.276
REMARK  Name = 
REMARK  3 active torsions:
REMARK  status: ('A' for Active; 'I' for Inactive)
REMARK    1  A    between atoms: C_2  and  C_3
REMARK    2  A    between atoms: C_7  and  C_8
REMARK    3  A    between atoms: N_9  and  N_10
REMARK                            x       y       z     vdW  Elec       q    Type
REMARK                         _______ _______ _______ _____ _____    ______ ____
ROOT
ATOM      1  C   UNL     1       3.949   3.890  17.041  0.00  0.00    +0.000 C 
ATOM      2  N   UNL     1       5.232   3.996  16.923  0.00  0.00    +0.000 NA
ENDROOT
BRANCH   2   3
ATOM      3  N   UNL     1       5.798   3.485  15.794  0.00  0.00    +0.000 N 
ATOM      4  C   UNL     1       6.214   4.288  14.773  0.00  0.00    +0.000 C 
ATOM      5  N   UNL     1       6.130   5.576  14.810  0.00  0.00    +0.000 NA
ATOM      6  N   UNL     1       6.694   3.685  13.673  0.00  0.00    +0.000 N 
ATOM      7  H   UNL     1       5.877   2.485  15.657  0.00  0.00    +0.000 HD
ATOM      8  H   UNL     1       5.694   5.757  15.730  0.00  0.00    +0.000 HD
ATOM      9  H   UNL     1       6.999   2.727  13.653  0.00  0.00    +0.000 HD
ATOM     10  H   UNL     1       7.116   4.320  13.004  0.00  0.00    +0.000 HD
ENDBRANCH   2   3
BRANCH   1  15
ATOM     11  C   UNL     1       2.232   4.085  20.397  0.00  0.00    +0.000 A 
ATOM     12  C   UNL     1       2.023   5.461  20.513  0.00  0.00    +0.000 A 
ATOM     13  C   UNL     1       2.437   6.327  19.495  0.00  0.00    +0.000 A 
ATOM     14  C   UNL     1       3.063   5.816  18.354  0.00  0.00    +0.000 A 
ATOM     15  C   UNL     1       3.277   4.437  18.240  0.00  0.00    +0.000 A 
ATOM     16  C   UNL     1       2.864   3.574  19.259  0.00  0.00    +0.000 A 
BRANCH  11  18
ATOM     17  N   UNL     1       1.458   2.469  22.273  0.00  0.00    +0.000 NA
ATOM     18  C   UNL     1       1.802   3.198  21.433  0.00  0.00    +0.000 C 
ENDBRANCH  11  18
ENDBRANCH   1  15
TORSDOF 3
ENDMDL
MODEL 4
REMARK VINA RESULT:      -6.0      1.925      2.449
REMARK  Name = 
REMARK  3 active torsions:
REMARK  status: ('A' for Active; 'I' for Inactive)
REMARK    1  A    between atoms: C_2  and  C_3
REMARK    2  A    between atoms: C_7  and  C_8
REMARK    3  A    between atoms: N_9  and  N_10
REMARK                            x       y       z     vdW  Elec       q    Type
REMARK                         _______ _______ _______ _____ _____    ______ ____
ROOT
ATOM      1  C   UNL     1       4.429   3.471  19.184  0.00  0.00    +0.000 C 
ATOM      2  N   UNL     1       3.369   3.912  19.779  0.00  0.00    +0.000 NA
ENDROOT
BRANCH   2   3
ATOM      3  N   UNL     1       2.931   3.220  20.867  0.00  0.00    +0.000 N 
ATOM      4  C   UNL     1       1.602   3.029  21.109  0.00  0.00    +0.000 C 
ATOM      5  N   UNL     1       0.673   3.461  20.323  0.00  0.00    +0.000 NA
ATOM      6  N   UNL     1       1.269   2.394  22.245  0.00  0.00    +0.000 N 
ATOM      7  H   UNL     1       3.582   2.870  21.559  0.00  0.00    +0.000 HD
ATOM      8  H   UNL     1       1.202   3.937  19.572  0.00  0.00    +0.000 HD
ATOM      9  H   UNL     1       1.914   1.840  22.781  0.00  0.00    +0.000 HD
ATOM     10  H   UNL     1       0.286   2.155  22.312  0.00  0.00    +0.000 HD
ENDBRANCH   2   3
BRANCH   1  15
ATOM     11  C   UNL     1       6.266   6.001  17.072  0.00  0.00    +0.000 A 
ATOM     12  C   UNL     1       5.979   5.539  15.786  0.00  0.00    +0.000 A 
ATOM     13  C   UNL     1       5.181   4.403  15.605  0.00  0.00    +0.000 A 
ATOM     14  C   UNL     1       4.667   3.727  16.716  0.00  0.00    +0.000 A 
ATOM     15  C   UNL     1       4.959   4.188  18.005  0.00  0.00    +0.000 A 
ATOM     16  C   UNL     1       5.758   5.322  18.183  0.00  0.00    +0.000 A 
BRANCH  11  18
ATOM     17  N   UNL     1       7.725   8.120  17.410  0.00  0.00    +0.000 NA
ATOM     18  C   UNL     1       7.075   7.167  17.258  0.00  0.00    +0.000 C 
ENDBRANCH  11  18
ENDBRANCH   1  15
TORSDOF 3
ENDMDL
MODEL 5
REMARK VINA RESULT:      -6.0      1.615      6.397
REMARK  Name = 
REMARK  3 active torsions:
REMARK  status: ('A' for Active; 'I' for Inactive)
REMARK    1  A    between atoms: C_2  and  C_3
REMARK    2  A    between atoms: C_7  and  C_8
REMARK    3  A    between atoms: N_9  and  N_10
REMARK                            x       y       z     vdW  Elec       q    Type
REMARK                         _______ _______ _______ _____ _____    ______ ____
ROOT
ATOM      1  C   UNL     1       5.473   4.013  15.529  0.00  0.00    +0.000 C 
ATOM      2  N   UNL     1       5.715   4.415  14.324  0.00  0.00    +0.000 NA
ENDROOT
BRANCH   2   3
ATOM      3  N   UNL     1       6.449   3.590  13.528  0.00  0.00    +0.000 N 
ATOM      4  C   UNL     1       5.966   3.118  12.343  0.00  0.00    +0.000 C 
ATOM      5  N   UNL     1       4.802   3.434  11.881  0.00  0.00    +0.000 NA
ATOM      6  N   UNL     1       6.738   2.254  11.664  0.00  0.00    +0.000 N 
ATOM      7  H   UNL     1       7.361   3.259  13.820  0.00  0.00    +0.000 HD
ATOM      8  H   UNL     1       4.420   4.059  12.610  0.00  0.00    +0.000 HD
ATOM      9  H   UNL     1       7.722   2.137  11.833  0.00  0.00    +0.000 HD
ATOM     10  H   UNL     1       6.399   2.041  10.732  0.00  0.00    +0.000 HD
ENDBRANCH   2   3
BRANCH   1  15
ATOM     11  C   UNL     1       2.951   5.071  18.130  0.00  0.00    +0.000 A 
ATOM     12  C   UNL     1       3.161   6.451  18.164  0.00  0.00    +0.000 A 
ATOM     13  C   UNL     1       4.122   7.040  17.335  0.00  0.00    +0.000 A 
ATOM     14  C   UNL     1       4.877   6.246  16.467  0.00  0.00    +0.000 A 
ATOM     15  C   UNL     1       4.670   4.862  16.436  0.00  0.00    +0.000 A 
ATOM     16  C   UNL     1       3.710   4.275  17.266  0.00  0.00    +0.000 A 
BRANCH  11  18
ATOM     17  N   UNL     1       1.153   3.977  19.648  0.00  0.00    +0.000 NA
ATOM     18  C   UNL     1       1.962   4.468  18.971  0.00  0.00    +0.000 C 
ENDBRANCH  11  18
ENDBRANCH   1  15
TORSDOF 3
ENDMDL
MODEL 6
REMARK VINA RESULT:      -5.9      2.342      6.074
REMARK  Name = 
REMARK  3 active torsions:
REMARK  status: ('A' for Active; 'I' for Inactive)
REMARK    1  A    between atoms: C_2  and  C_3
REMARK    2  A    between atoms: C_7  and  C_8
REMARK    3  A    between atoms: N_9  and  N_10
REMARK                            x       y       z     vdW  Elec       q    Type
REMARK                         _______ _______ _______ _____ _____    ______ ____
ROOT
ATOM      1  C   UNL     1       4.412   6.068  16.984  0.00  0.00    +0.000 C 
ATOM      2  N   UNL     1       5.441   5.316  16.761  0.00  0.00    +0.000 NA
ENDROOT
BRANCH   2   3
ATOM      3  N   UNL     1       6.325   5.736  15.813  0.00  0.00    +0.000 N 
ATOM      4  C   UNL     1       6.754   4.909  14.817  0.00  0.00    +0.000 C 
ATOM      5  N   UNL     1       6.341   3.693  14.682  0.00  0.00    +0.000 NA
ATOM      6  N   UNL     1       7.680   5.394  13.973  0.00  0.00    +0.000 N 
ATOM      7  H   UNL     1       6.731   6.662  15.853  0.00  0.00    +0.000 HD
ATOM      8  H   UNL     1       5.686   3.578  15.474  0.00  0.00    +0.000 HD
ATOM      9  H   UNL     1       7.878   6.374  13.869  0.00  0.00    +0.000 HD
ATOM     10  H   UNL     1       7.863   4.797  13.173  0.00  0.00    +0.000 HD
ENDBRANCH   2   3
BRANCH   1  15
ATOM     11  C   UNL     1       1.752   4.112  18.813  0.00  0.00    +0.000 A 
ATOM     12  C   UNL     1       1.569   4.903  19.949  0.00  0.00    +0.000 A 
ATOM     13  C   UNL     1       2.309   6.080  20.118  0.00  0.00    +0.000 A 
ATOM     14  C   UNL     1       3.237   6.467  19.147  0.00  0.00    +0.000 A 
ATOM     15  C   UNL     1       3.424   5.671  18.010  0.00  0.00    +0.000 A 
ATOM     16  C   UNL     1       2.685   4.496  17.843  0.00  0.00    +0.000 A 
BRANCH  11  18
ATOM     17  N   UNL     1       0.364   1.945  18.485  0.00  0.00    +0.000 NA
ATOM     18  C   UNL     1       0.990   2.915  18.634  0.00  0.00    +0.000 C 
ENDBRANCH  11  18
ENDBRANCH   1  15
TORSDOF 3
ENDMDL
MODEL 7
REMARK VINA RESULT:      -5.9      1.459      1.719
REMARK  Name = 
REMARK  3 active torsions:
REMARK  status: ('A' for Active; 'I' for Inactive)
REMARK    1  A    between atoms: C_2  and  C_3
REMARK    2  A    between atoms: C_7  and  C_8
REMARK    3  A    between atoms: N_9  and  N_10
REMARK                            x       y       z     vdW  Elec       q    Type
REMARK                         _______ _______ _______ _____ _____    ______ ____
ROOT
ATOM      1  C   UNL     1       3.841   4.519  18.227  0.00  0.00    +0.000 C 
ATOM      2  N   UNL     1       3.668   3.599  19.120  0.00  0.00    +0.000 NA
ENDROOT
BRANCH   2   3
ATOM      3  N   UNL     1       2.516   3.645  19.846  0.00  0.00    +0.000 N 
ATOM      4  C   UNL     1       1.497   2.764  19.631  0.00  0.00    +0.000 C 
ATOM      5  N   UNL     1       1.556   1.818  18.754  0.00  0.00    +0.000 NA
ATOM      6  N   UNL     1       0.375   2.935  20.349  0.00  0.00    +0.000 N 
ATOM      7  H   UNL     1       2.362   4.371  20.534  0.00  0.00    +0.000 HD
ATOM      8  H   UNL     1       2.491   1.947  18.330  0.00  0.00    +0.000 HD
ATOM      9  H   UNL     1       0.332   3.485  21.189  0.00  0.00    +0.000 HD
ATOM     10  H   UNL     1      -0.295   2.179  20.255  0.00  0.00    +0.000 HD
ENDBRANCH   2   3
BRANCH   1  15
ATOM     11  C   UNL     1       6.140   4.192  15.252  0.00  0.00    +0.000 A 
ATOM     12  C   UNL     1       7.371   4.519  15.824  0.00  0.00    +0.000 A 
ATOM     13  C   UNL     1       7.454   4.842  17.184  0.00  0.00    +0.000 A 
ATOM     14  C   UNL     1       6.301   4.838  17.975  0.00  0.00    +0.000 A 
ATOM     15  C   UNL     1       5.067   4.514  17.399  0.00  0.00    +0.000 A 
ATOM     16  C   UNL     1       4.985   4.193  16.041  0.00  0.00    +0.000 A 
BRANCH  11  18
ATOM     17  N   UNL     1       5.987   3.586  12.734  0.00  0.00    +0.000 NA
ATOM     18  C   UNL     1       6.054   3.853  13.864  0.00  0.00    +0.000 C 
ENDBRANCH  11  18
ENDBRANCH   1  15
TORSDOF 3
ENDMDL
MODEL 8
REMARK VINA RESULT:      -5.9      1.171      1.189
REMARK  Name = 
REMARK  3 active torsions:
REMARK  status: ('A' for Active; 'I' for Inactive)
REMARK    1  A    between atoms: C_2  and  C_3
REMARK    2  A    between atoms: C_7  and  C_8
REMARK    3  A    between atoms: N_9  and  N_10
REMARK                            x       y       z     vdW  Elec       q    Type
REMARK                         _______ _______ _______ _____ _____    ______ ____
ROOT
ATOM      1  C   UNL     1       3.957   3.520  18.519  0.00  0.00    +0.000 C 
ATOM      2  N   UNL     1       4.230   3.245  19.753  0.00  0.00    +0.000 NA
ENDROOT
BRANCH   2   3
ATOM      3  N   UNL     1       3.256   2.641  20.488  0.00  0.00    +0.000 N 
ATOM      4  C   UNL     1       2.400   3.357  21.272  0.00  0.00    +0.000 C 
ATOM      5  N   UNL     1       2.431   4.646  21.355  0.00  0.00    +0.000 NA
ATOM      6  N   UNL     1       1.519   2.665  22.012  0.00  0.00    +0.000 N 
ATOM      7  H   UNL     1       3.172   1.632  20.514  0.00  0.00    +0.000 HD
ATOM      8  H   UNL     1       3.214   4.904  20.731  0.00  0.00    +0.000 HD
ATOM      9  H   UNL     1       1.281   1.704  21.838  0.00  0.00    +0.000 HD
ATOM     10  H   UNL     1       0.819   3.240  22.468  0.00  0.00    +0.000 HD
ENDBRANCH   2   3
BRANCH   1  15
ATOM     11  C   UNL     1       6.062   4.404  15.514  0.00  0.00    +0.000 A 
ATOM     12  C   UNL     1       6.896   5.388  16.049  0.00  0.00    +0.000 A 
ATOM     13  C   UNL     1       6.777   5.761  17.393  0.00  0.00    +0.000 A 
ATOM     14  C   UNL     1       5.819   5.148  18.206  0.00  0.00    +0.000 A 
ATOM     15  C   UNL     1       4.980   4.165  17.668  0.00  0.00    +0.000 A 
ATOM     16  C   UNL     1       5.100   3.794  16.325  0.00  0.00    +0.000 A 
BRANCH  11  18
ATOM     17  N   UNL     1       6.284   3.693  13.029  0.00  0.00    +0.000 NA
ATOM     18  C   UNL     1       6.188   4.015  14.143  0.00  0.00    +0.000 C 
ENDBRANCH  11  18
ENDBRANCH   1  15
TORSDOF 3
ENDMDL
MODEL 9
REMARK VINA RESULT:      -5.8      3.403      5.538
REMARK  Name = 
REMARK  3 active torsions:
REMARK  status: ('A' for Active; 'I' for Inactive)
REMARK    1  A    between atoms: C_2  and  C_3
REMARK    2  A    between atoms: C_7  and  C_8
REMARK    3  A    between atoms: N_9  and  N_10
REMARK                            x       y       z     vdW  Elec       q    Type
REMARK                         _______ _______ _______ _____ _____    ______ ____
ROOT
ATOM      1  C   UNL     1       3.471   4.896  19.275  0.00  0.00    +0.000 C 
ATOM      2  N   UNL     1       3.735   4.223  18.202  0.00  0.00    +0.000 NA
ENDROOT
BRANCH   2   3
ATOM      3  N   UNL     1       4.268   2.980  18.362  0.00  0.00    +0.000 N 
ATOM      4  C   UNL     1       3.516   1.852  18.216  0.00  0.00    +0.000 C 
ATOM      5  N   UNL     1       2.265   1.876  17.895  0.00  0.00    +0.000 NA
ATOM      6  N   UNL     1       4.116   0.676  18.463  0.00  0.00    +0.000 N 
ATOM      7  H   UNL     1       5.232   2.859  18.646  0.00  0.00    +0.000 HD
ATOM      8  H   UNL     1       2.062   2.886  17.812  0.00  0.00    +0.000 HD
ATOM      9  H   UNL     1       5.113   0.558  18.493  0.00  0.00    +0.000 HD
ATOM     10  H   UNL     1       3.560  -0.133  18.209  0.00  0.00    +0.000 HD
ENDBRANCH   2   3
BRANCH   1  15
ATOM     11  C   UNL     1       1.615   8.064  20.148  0.00  0.00    +0.000 A 
ATOM     12  C   UNL     1       1.774   8.802  18.974  0.00  0.00    +0.000 A 
ATOM     13  C   UNL     1       2.482   8.266  17.892  0.00  0.00    +0.000 A 
ATOM     14  C   UNL     1       3.035   6.985  17.985  0.00  0.00    +0.000 A 
ATOM     15  C   UNL     1       2.880   6.247  19.165  0.00  0.00    +0.000 A 
ATOM     16  C   UNL     1       2.173   6.785  20.244  0.00  0.00    +0.000 A 
BRANCH  11  18
ATOM     17  N   UNL     1       0.285   9.041  22.150  0.00  0.00    +0.000 NA
ATOM     18  C   UNL     1       0.884   8.607  21.251  0.00  0.00    +0.000 C 
ENDBRANCH  11  18
ENDBRANCH   1  15
TORSDOF 3
ENDMDL
