MODEL 1
REMARK VINA RESULT:      -8.1      0.000      0.000
REMARK  Name = 
REMARK  10 active torsions:
REMARK  status: ('A' for Active; 'I' for Inactive)
REMARK    1  A    between atoms: C_1  and  C_2
REMARK    2  A    between atoms: C_2  and  C_3
REMARK    3  A    between atoms: C_8  and  C_9
REMARK    4  A    between atoms: C_9  and  C_10
REMARK    5  A    between atoms: C_12  and  N_13
REMARK    6  A    between atoms: N_13  and  C_14
REMARK    7  A    between atoms: C_14  and  C_15
REMARK    8  A    between atoms: C_15  and  O_16
REMARK    9  A    between atoms: C_15  and  C_17
REMARK   10  A    between atoms: C_20  and  O_21
REMARK                            x       y       z     vdW  Elec       q    Type
REMARK                         _______ _______ _______ _____ _____    ______ ____
ROOT
ATOM      1  C   UNL     1       4.214   2.985  17.993  0.00  0.00    +0.000 C 
ENDROOT
BRANCH   1   2
ATOM      2  C   UNL     1       5.197   3.650  17.056  0.00  0.00    +0.000 A 
ATOM      3  C   UNL     1       5.200   3.272  15.700  0.00  0.00    +0.000 A 
ATOM      4  C   UNL     1       6.019   3.906  14.765  0.00  0.00    +0.000 A 
ATOM      5  C   UNL     1       6.844   4.937  15.184  0.00  0.00    +0.000 A 
ATOM      6  C   UNL     1       6.856   5.331  16.524  0.00  0.00    +0.000 A 
ATOM      7  N   UNL     1       7.693   6.392  16.905  0.00  0.00    +0.000 N 
ATOM      8  C   UNL     1       7.795   6.867  18.182  0.00  0.00    +0.000 A 
ATOM      9  O   UNL     1       8.531   7.795  18.488  0.00  0.00    +0.000 OA
ATOM     10  C   UNL     1       6.954   6.194  19.196  0.00  0.00    +0.000 A 
ATOM     11  C   UNL     1       6.133   5.184  18.868  0.00  0.00    +0.000 A 
ATOM     12  C   UNL     1       6.042   4.692  17.480  0.00  0.00    +0.000 A 
ATOM     13  H   UNL     1       8.257   6.832  16.189  0.00  0.00    +0.000 HD
BRANCH   5  14
ATOM     14  O   UNL     1       7.650   5.589  14.293  0.00  0.00    +0.000 OA
ATOM     15  H   UNL     1       7.543   6.547  14.426  0.00  0.00    +0.000 HD
ENDBRANCH   5  14
ENDBRANCH   1   2
BRANCH   1  16
ATOM     16  O   UNL     1       3.924   1.649  17.552  0.00  0.00    +0.000 OA
ATOM     17  H   UNL     1       3.974   1.067  18.328  0.00  0.00    +0.000 HD
ENDBRANCH   1  16
BRANCH   1  18
ATOM     18  C   UNL     1       2.921   3.826  18.066  0.00  0.00    +0.000 C 
BRANCH  18  19
ATOM     19  N   UNL     1       2.992   4.694  19.232  0.00  0.00    +0.000 NA
ATOM     20  H   UNL     1       2.873   4.159  20.092  0.00  0.00    +0.000 HD
BRANCH  19  28
ATOM     21  C   UNL     1       0.663   9.902  20.894  0.00  0.00    +0.000 A 
ATOM     22  C   UNL     1       0.931   8.585  21.283  0.00  0.00    +0.000 A 
ATOM     23  C   UNL     1       1.481   7.724  20.374  0.00  0.00    +0.000 A 
ATOM     24  C   UNL     1       1.827   8.146  19.099  0.00  0.00    +0.000 A 
ATOM     25  C   UNL     1       1.585   9.444  18.683  0.00  0.00    +0.000 A 
ATOM     26  C   UNL     1       0.966  10.349  19.569  0.00  0.00    +0.000 A 
ATOM     27  C   UNL     1       2.514   7.038  18.362  0.00  0.00    +0.000 C 
ATOM     28  C   UNL     1       2.052   5.804  19.183  0.00  0.00    +0.000 C 
ATOM     29  C   UNL     1       1.829   6.302  20.620  0.00  0.00    +0.000 C 
BRANCH  21  31
ATOM     30  C   UNL     1      -0.663   9.942  23.063  0.00  0.00    +0.000 C 
ATOM     31  C   UNL     1       0.015  10.737  21.964  0.00  0.00    +0.000 C 
ENDBRANCH  21  31
BRANCH  26  32
ATOM     32  C   UNL     1       0.618  11.759  19.116  0.00  0.00    +0.000 C 
ATOM     33  C   UNL     1      -0.775  12.002  18.530  0.00  0.00    +0.000 C 
ENDBRANCH  26  32
ENDBRANCH  19  28
ENDBRANCH  18  19
ENDBRANCH   1  18
TORSDOF 8
ENDMDL
MODEL 2
REMARK VINA RESULT:      -8.1      5.381      9.841
REMARK  Name = 
REMARK  10 active torsions:
REMARK  status: ('A' for Active; 'I' for Inactive)
REMARK    1  A    between atoms: C_1  and  C_2
REMARK    2  A    between atoms: C_2  and  C_3
REMARK    3  A    between atoms: C_8  and  C_9
REMARK    4  A    between atoms: C_9  and  C_10
REMARK    5  A    between atoms: C_12  and  N_13
REMARK    6  A    between atoms: N_13  and  C_14
REMARK    7  A    between atoms: C_14  and  C_15
REMARK    8  A    between atoms: C_15  and  O_16
REMARK    9  A    between atoms: C_15  and  C_17
REMARK   10  A    between atoms: C_20  and  O_21
REMARK                            x       y       z     vdW  Elec       q    Type
REMARK                         _______ _______ _______ _____ _____    ______ ____
ROOT
ATOM      1  C   UNL     1      -0.526  11.436  18.749  0.00  0.00    +0.000 C 
ENDROOT
BRANCH   1   2
ATOM      2  C   UNL     1      -1.974  11.533  18.328  0.00  0.00    +0.000 A 
ATOM      3  C   UNL     1      -2.339  11.083  17.045  0.00  0.00    +0.000 A 
ATOM      4  C   UNL     1      -3.669  11.063  16.627  0.00  0.00    +0.000 A 
ATOM      5  C   UNL     1      -4.655  11.491  17.500  0.00  0.00    +0.000 A 
ATOM      6  C   UNL     1      -4.318  11.940  18.779  0.00  0.00    +0.000 A 
ATOM      7  N   UNL     1      -5.348  12.349  19.642  0.00  0.00    +0.000 N 
ATOM      8  C   UNL     1      -5.148  12.808  20.912  0.00  0.00    +0.000 A 
ATOM      9  O   UNL     1      -6.062  13.157  21.644  0.00  0.00    +0.000 OA
ATOM     10  C   UNL     1      -3.742  12.862  21.370  0.00  0.00    +0.000 A 
ATOM     11  C   UNL     1      -2.730  12.468  20.579  0.00  0.00    +0.000 A 
ATOM     12  C   UNL     1      -2.978  11.975  19.211  0.00  0.00    +0.000 A 
ATOM     13  H   UNL     1      -6.300  12.302  19.300  0.00  0.00    +0.000 HD
BRANCH   5  14
ATOM     14  O   UNL     1      -5.971  11.474  17.129  0.00  0.00    +0.000 OA
ATOM     15  H   UNL     1      -6.016  11.435  16.158  0.00  0.00    +0.000 HD
ENDBRANCH   5  14
ENDBRANCH   1   2
BRANCH   1  16
ATOM     16  O   UNL     1       0.230  12.531  18.206  0.00  0.00    +0.000 OA
ATOM     17  H   UNL     1      -0.360  13.031  17.619  0.00  0.00    +0.000 HD
ENDBRANCH   1  16
BRANCH   1  18
ATOM     18  C   UNL     1       0.059  10.087  18.277  0.00  0.00    +0.000 C 
BRANCH  18  19
ATOM     19  N   UNL     1       1.480  10.260  18.010  0.00  0.00    +0.000 NA
ATOM     20  H   UNL     1       1.645  10.431  17.017  0.00  0.00    +0.000 HD
BRANCH  19  28
ATOM     21  C   UNL     1       2.506   4.845  20.231  0.00  0.00    +0.000 A 
ATOM     22  C   UNL     1       1.944   6.103  20.478  0.00  0.00    +0.000 A 
ATOM     23  C   UNL     1       2.075   7.085  19.535  0.00  0.00    +0.000 A 
ATOM     24  C   UNL     1       2.703   6.841  18.322  0.00  0.00    +0.000 A 
ATOM     25  C   UNL     1       3.262   5.605  18.040  0.00  0.00    +0.000 A 
ATOM     26  C   UNL     1       3.201   4.583  19.008  0.00  0.00    +0.000 A 
ATOM     27  C   UNL     1       2.598   8.046  17.440  0.00  0.00    +0.000 C 
ATOM     28  C   UNL     1       2.296   9.154  18.485  0.00  0.00    +0.000 C 
ATOM     29  C   UNL     1       1.542   8.466  19.635  0.00  0.00    +0.000 C 
BRANCH  21  31
ATOM     30  C   UNL     1       1.214   2.868  21.170  0.00  0.00    +0.000 C 
ATOM     31  C   UNL     1       2.338   3.867  21.361  0.00  0.00    +0.000 C 
ENDBRANCH  21  31
BRANCH  26  32
ATOM     32  C   UNL     1       3.873   3.240  18.757  0.00  0.00    +0.000 C 
ATOM     33  C   UNL     1       3.076   2.165  18.014  0.00  0.00    +0.000 C 
ENDBRANCH  26  32
ENDBRANCH  19  28
ENDBRANCH  18  19
ENDBRANCH   1  18
TORSDOF 8
ENDMDL
MODEL 3
REMARK VINA RESULT:      -8.1      3.116      5.546
REMARK  Name = 
REMARK  10 active torsions:
REMARK  status: ('A' for Active; 'I' for Inactive)
REMARK    1  A    between atoms: C_1  and  C_2
REMARK    2  A    between atoms: C_2  and  C_3
REMARK    3  A    between atoms: C_8  and  C_9
REMARK    4  A    between atoms: C_9  and  C_10
REMARK    5  A    between atoms: C_12  and  N_13
REMARK    6  A    between atoms: N_13  and  C_14
REMARK    7  A    between atoms: C_14  and  C_15
REMARK    8  A    between atoms: C_15  and  O_16
REMARK    9  A    between atoms: C_15  and  C_17
REMARK   10  A    between atoms: C_20  and  O_21
REMARK                            x       y       z     vdW  Elec       q    Type
REMARK                         _______ _______ _______ _____ _____    ______ ____
ROOT
ATOM      1  C   UNL     1       2.315   7.064  20.052  0.00  0.00    +0.000 C 
ENDROOT
BRANCH   1   2
ATOM      2  C   UNL     1       2.331   5.641  19.542  0.00  0.00    +0.000 A 
ATOM      3  C   UNL     1       1.369   4.737  20.029  0.00  0.00    +0.000 A 
ATOM      4  C   UNL     1       1.272   3.435  19.537  0.00  0.00    +0.000 A 
ATOM      5  C   UNL     1       2.143   3.026  18.541  0.00  0.00    +0.000 A 
ATOM      6  C   UNL     1       3.105   3.907  18.040  0.00  0.00    +0.000 A 
ATOM      7  N   UNL     1       3.958   3.460  17.018  0.00  0.00    +0.000 N 
ATOM      8  C   UNL     1       4.937   4.223  16.448  0.00  0.00    +0.000 A 
ATOM      9  O   UNL     1       5.666   3.812  15.557  0.00  0.00    +0.000 OA
ATOM     10  C   UNL     1       5.075   5.600  16.971  0.00  0.00    +0.000 A 
ATOM     11  C   UNL     1       4.271   6.068  17.940  0.00  0.00    +0.000 A 
ATOM     12  C   UNL     1       3.220   5.220  18.535  0.00  0.00    +0.000 A 
ATOM     13  H   UNL     1       3.840   2.512  16.681  0.00  0.00    +0.000 HD
BRANCH   5  14
ATOM     14  O   UNL     1       2.069   1.762  18.026  0.00  0.00    +0.000 OA
ATOM     15  H   UNL     1       2.706   1.690  17.295  0.00  0.00    +0.000 HD
ENDBRANCH   5  14
ENDBRANCH   1   2
BRANCH   1  16
ATOM     16  O   UNL     1       1.781   7.115  21.385  0.00  0.00    +0.000 OA
ATOM     17  H   UNL     1       0.903   6.701  21.365  0.00  0.00    +0.000 HD
ENDBRANCH   1  16
BRANCH   1  18
ATOM     18  C   UNL     1       1.478   7.944  19.098  0.00  0.00    +0.000 C 
BRANCH  18  19
ATOM     19  N   UNL     1       1.401   9.289  19.650  0.00  0.00    +0.000 NA
ATOM     20  H   UNL     1       1.193   9.262  20.649  0.00  0.00    +0.000 HD
BRANCH  19  28
ATOM     21  C   UNL     1      -3.306  10.512  16.236  0.00  0.00    +0.000 A 
ATOM     22  C   UNL     1      -2.036   9.926  16.277  0.00  0.00    +0.000 A 
ATOM     23  C   UNL     1      -1.306  10.006  17.431  0.00  0.00    +0.000 A 
ATOM     24  C   UNL     1      -1.822  10.606  18.570  0.00  0.00    +0.000 A 
ATOM     25  C   UNL     1      -3.079  11.189  18.568  0.00  0.00    +0.000 A 
ATOM     26  C   UNL     1      -3.841  11.180  17.383  0.00  0.00    +0.000 A 
ATOM     27  C   UNL     1      -0.866  10.447  19.711  0.00  0.00    +0.000 C 
ATOM     28  C   UNL     1       0.455  10.145  18.951  0.00  0.00    +0.000 C 
ATOM     29  C   UNL     1       0.049   9.441  17.647  0.00  0.00    +0.000 C 
BRANCH  21  31
ATOM     30  C   UNL     1      -3.099   9.915  13.773  0.00  0.00    +0.000 C 
ATOM     31  C   UNL     1      -3.989  10.401  14.900  0.00  0.00    +0.000 C 
ENDBRANCH  21  31
BRANCH  26  32
ATOM     32  C   UNL     1      -5.192  11.878  17.328  0.00  0.00    +0.000 C 
ATOM     33  C   UNL     1      -6.341  11.289  18.151  0.00  0.00    +0.000 C 
ENDBRANCH  26  32
ENDBRANCH  19  28
ENDBRANCH  18  19
ENDBRANCH   1  18
TORSDOF 8
ENDMDL
MODEL 4
REMARK VINA RESULT:      -8.0      2.434      4.380
REMARK  Name = 
REMARK  10 active torsions:
REMARK  status: ('A' for Active; 'I' for Inactive)
REMARK    1  A    between atoms: C_1  and  C_2
REMARK    2  A    between atoms: C_2  and  C_3
REMARK    3  A    between atoms: C_8  and  C_9
REMARK    4  A    between atoms: C_9  and  C_10
REMARK    5  A    between atoms: C_12  and  N_13
REMARK    6  A    between atoms: N_13  and  C_14
REMARK    7  A    between atoms: C_14  and  C_15
REMARK    8  A    between atoms: C_15  and  O_16
REMARK    9  A    between atoms: C_15  and  C_17
REMARK   10  A    between atoms: C_20  and  O_21
REMARK                            x       y       z     vdW  Elec       q    Type
REMARK                         _______ _______ _______ _____ _____    ______ ____
ROOT
ATOM      1  C   UNL     1       2.682   6.873  19.498  0.00  0.00    +0.000 C 
ENDROOT
BRANCH   1   2
ATOM      2  C   UNL     1       3.124   5.492  19.072  0.00  0.00    +0.000 A 
ATOM      3  C   UNL     1       2.234   4.415  19.240  0.00  0.00    +0.000 A 
ATOM      4  C   UNL     1       2.543   3.132  18.788  0.00  0.00    +0.000 A 
ATOM      5  C   UNL     1       3.755   2.916  18.154  0.00  0.00    +0.000 A 
ATOM      6  C   UNL     1       4.654   3.970  17.974  0.00  0.00    +0.000 A 
ATOM      7  N   UNL     1       5.865   3.716  17.311  0.00  0.00    +0.000 N 
ATOM      8  C   UNL     1       6.824   4.659  17.076  0.00  0.00    +0.000 A 
ATOM      9  O   UNL     1       7.871   4.412  16.493  0.00  0.00    +0.000 OA
ATOM     10  C   UNL     1       6.529   6.023  17.567  0.00  0.00    +0.000 A 
ATOM     11  C   UNL     1       5.377   6.309  18.196  0.00  0.00    +0.000 A 
ATOM     12  C   UNL     1       4.359   5.268  18.434  0.00  0.00    +0.000 A 
ATOM     13  H   UNL     1       6.040   2.772  16.987  0.00  0.00    +0.000 HD
BRANCH   5  14
ATOM     14  O   UNL     1       4.087   1.675  17.688  0.00  0.00    +0.000 OA
ATOM     15  H   UNL     1       3.706   1.568  16.799  0.00  0.00    +0.000 HD
ENDBRANCH   5  14
ENDBRANCH   1   2
BRANCH   1  16
ATOM     16  O   UNL     1       1.839   6.795  20.659  0.00  0.00    +0.000 OA
ATOM     17  H   UNL     1       1.013   6.360  20.393  0.00  0.00    +0.000 HD
ENDBRANCH   1  16
BRANCH   1  18
ATOM     18  C   UNL     1       1.938   7.559  18.332  0.00  0.00    +0.000 C 
BRANCH  18  19
ATOM     19  N   UNL     1       2.536   8.866  18.099  0.00  0.00    +0.000 NA
ATOM     20  H   UNL     1       3.301   9.038  18.753  0.00  0.00    +0.000 HD
BRANCH  19  28
ATOM     21  C   UNL     1      -2.853  11.326  18.556  0.00  0.00    +0.000 A 
ATOM     22  C   UNL     1      -2.033  10.485  17.796  0.00  0.00    +0.000 A 
ATOM     23  C   UNL     1      -0.728  10.315  18.170  0.00  0.00    +0.000 A 
ATOM     24  C   UNL     1      -0.223  10.914  19.315  0.00  0.00    +0.000 A 
ATOM     25  C   UNL     1      -1.008  11.745  20.096  0.00  0.00    +0.000 A 
ATOM     26  C   UNL     1      -2.342  11.994  19.714  0.00  0.00    +0.000 A 
ATOM     27  C   UNL     1       1.186  10.464  19.549  0.00  0.00    +0.000 C 
ATOM     28  C   UNL     1       1.574   9.956  18.134  0.00  0.00    +0.000 C 
ATOM     29  C   UNL     1       0.272   9.462  17.482  0.00  0.00    +0.000 C 
BRANCH  21  31
ATOM     30  C   UNL     1      -4.384  11.209  16.530  0.00  0.00    +0.000 C 
ATOM     31  C   UNL     1      -4.250  11.470  18.018  0.00  0.00    +0.000 C 
ENDBRANCH  21  31
BRANCH  26  32
ATOM     32  C   UNL     1      -3.206  12.962  20.509  0.00  0.00    +0.000 C 
ATOM     33  C   UNL     1      -3.172  12.869  22.036  0.00  0.00    +0.000 C 
ENDBRANCH  26  32
ENDBRANCH  19  28
ENDBRANCH  18  19
ENDBRANCH   1  18
TORSDOF 8
ENDMDL
MODEL 5
REMARK VINA RESULT:      -7.9      4.275      8.972
REMARK  Name = 
REMARK  10 active torsions:
REMARK  status: ('A' for Active; 'I' for Inactive)
REMARK    1  A    between atoms: C_1  and  C_2
REMARK    2  A    between atoms: C_2  and  C_3
REMARK    3  A    between atoms: C_8  and  C_9
REMARK    4  A    between atoms: C_9  and  C_10
REMARK    5  A    between atoms: C_12  and  N_13
REMARK    6  A    between atoms: N_13  and  C_14
REMARK    7  A    between atoms: C_14  and  C_15
REMARK    8  A    between atoms: C_15  and  O_16
REMARK    9  A    between atoms: C_15  and  C_17
REMARK   10  A    between atoms: C_20  and  O_21
REMARK                            x       y       z     vdW  Elec       q    Type
REMARK                         _______ _______ _______ _____ _____    ______ ____
ROOT
ATOM      1  C   UNL     1      -0.291   9.331  20.929  0.00  0.00    +0.000 C 
ENDROOT
BRANCH   1   2
ATOM      2  C   UNL     1      -0.462  10.663  20.236  0.00  0.00    +0.000 A 
ATOM      3  C   UNL     1       0.141  11.802  20.800  0.00  0.00    +0.000 A 
ATOM      4  C   UNL     1       0.096  13.044  20.167  0.00  0.00    +0.000 A 
ATOM      5  C   UNL     1      -0.554  13.155  18.949  0.00  0.00    +0.000 A 
ATOM      6  C   UNL     1      -1.158  12.038  18.368  0.00  0.00    +0.000 A 
ATOM      7  N   UNL     1      -1.793  12.187  17.124  0.00  0.00    +0.000 N 
ATOM      8  C   UNL     1      -2.419  11.173  16.457  0.00  0.00    +0.000 A 
ATOM      9  O   UNL     1      -2.963  11.328  15.372  0.00  0.00    +0.000 OA
ATOM     10  C   UNL     1      -2.406   9.851  17.121  0.00  0.00    +0.000 A 
ATOM     11  C   UNL     1      -1.800   9.666  18.305  0.00  0.00    +0.000 A 
ATOM     12  C   UNL     1      -1.130  10.780  19.002  0.00  0.00    +0.000 A 
ATOM     13  H   UNL     1      -1.786  13.104  16.695  0.00  0.00    +0.000 HD
BRANCH   5  14
ATOM     14  O   UNL     1      -0.608  14.354  18.294  0.00  0.00    +0.000 OA
ATOM     15  H   UNL     1      -0.773  14.181  17.351  0.00  0.00    +0.000 HD
ENDBRANCH   5  14
ENDBRANCH   1   2
BRANCH   1  16
ATOM     16  O   UNL     1      -0.688   9.426  22.307  0.00  0.00    +0.000 OA
ATOM     17  H   UNL     1      -1.044  10.319  22.448  0.00  0.00    +0.000 HD
ENDBRANCH   1  16
BRANCH   1  18
ATOM     18  C   UNL     1       1.181   8.877  20.819  0.00  0.00    +0.000 C 
BRANCH  18  19
ATOM     19  N   UNL     1       1.497   8.653  19.416  0.00  0.00    +0.000 NA
ATOM     20  H   UNL     1       0.655   8.433  18.883  0.00  0.00    +0.000 HD
BRANCH  19  28
ATOM     21  C   UNL     1       3.693   3.510  17.405  0.00  0.00    +0.000 A 
ATOM     22  C   UNL     1       2.762   4.107  18.262  0.00  0.00    +0.000 A 
ATOM     23  C   UNL     1       2.745   5.470  18.378  0.00  0.00    +0.000 A 
ATOM     24  C   UNL     1       3.592   6.268  17.624  0.00  0.00    +0.000 A 
ATOM     25  C   UNL     1       4.520   5.712  16.759  0.00  0.00    +0.000 A 
ATOM     26  C   UNL     1       4.611   4.310  16.652  0.00  0.00    +0.000 A 
ATOM     27  C   UNL     1       3.280   7.713  17.860  0.00  0.00    +0.000 C 
ATOM     28  C   UNL     1       2.516   7.635  19.210  0.00  0.00    +0.000 C 
ATOM     29  C   UNL     1       1.827   6.261  19.235  0.00  0.00    +0.000 C 
BRANCH  21  31
ATOM     30  C   UNL     1       3.737   1.367  18.770  0.00  0.00    +0.000 C 
ATOM     31  C   UNL     1       3.645   2.007  17.400  0.00  0.00    +0.000 C 
ENDBRANCH  21  31
BRANCH  26  32
ATOM     32  C   UNL     1       5.671   3.669  15.769  0.00  0.00    +0.000 C 
ATOM     33  C   UNL     1       6.109   4.421  14.509  0.00  0.00    +0.000 C 
ENDBRANCH  26  32
ENDBRANCH  19  28
ENDBRANCH  18  19
ENDBRANCH   1  18
TORSDOF 8
ENDMDL
MODEL 6
REMARK VINA RESULT:      -7.9      3.113      8.111
REMARK  Name = 
REMARK  10 active torsions:
REMARK  status: ('A' for Active; 'I' for Inactive)
REMARK    1  A    between atoms: C_1  and  C_2
REMARK    2  A    between atoms: C_2  and  C_3
REMARK    3  A    between atoms: C_8  and  C_9
REMARK    4  A    between atoms: C_9  and  C_10
REMARK    5  A    between atoms: C_12  and  N_13
REMARK    6  A    between atoms: N_13  and  C_14
REMARK    7  A    between atoms: C_14  and  C_15
REMARK    8  A    between atoms: C_15  and  O_16
REMARK    9  A    between atoms: C_15  and  C_17
REMARK   10  A    between atoms: C_20  and  O_21
REMARK                            x       y       z     vdW  Elec       q    Type
REMARK                         _______ _______ _______ _____ _____    ______ ____
ROOT
ATOM      1  C   UNL     1       2.049   5.706  19.739  0.00  0.00    +0.000 C 
ENDROOT
BRANCH   1   2
ATOM      2  C   UNL     1       2.053   7.153  19.303  0.00  0.00    +0.000 A 
ATOM      3  C   UNL     1       2.533   7.471  18.018  0.00  0.00    +0.000 A 
ATOM      4  C   UNL     1       2.484   8.773  17.520  0.00  0.00    +0.000 A 
ATOM      5  C   UNL     1       1.944   9.775  18.309  0.00  0.00    +0.000 A 
ATOM      6  C   UNL     1       1.459   9.483  19.586  0.00  0.00    +0.000 A 
ATOM      7  N   UNL     1       0.903  10.523  20.349  0.00  0.00    +0.000 N 
ATOM      8  C   UNL     1       0.399  10.366  21.608  0.00  0.00    +0.000 A 
ATOM      9  O   UNL     1      -0.082  11.288  22.251  0.00  0.00    +0.000 OA
ATOM     10  C   UNL     1       0.463   8.998  22.168  0.00  0.00    +0.000 A 
ATOM     11  C   UNL     1       0.976   7.975  21.466  0.00  0.00    +0.000 A 
ATOM     12  C   UNL     1       1.512   8.175  20.106  0.00  0.00    +0.000 A 
ATOM     13  H   UNL     1       0.874  11.449  19.939  0.00  0.00    +0.000 HD
BRANCH   5  14
ATOM     14  O   UNL     1       1.868  11.061  17.849  0.00  0.00    +0.000 OA
ATOM     15  H   UNL     1       1.186  11.099  17.156  0.00  0.00    +0.000 HD
ENDBRANCH   5  14
ENDBRANCH   1   2
BRANCH   1  16
ATOM     16  O   UNL     1       2.680   5.567  21.023  0.00  0.00    +0.000 OA
ATOM     17  H   UNL     1       2.718   4.618  21.229  0.00  0.00    +0.000 HD
ENDBRANCH   1  16
BRANCH   1  18
ATOM     18  C   UNL     1       2.774   4.846  18.682  0.00  0.00    +0.000 C 
BRANCH  18  19
ATOM     19  N   UNL     1       4.070   4.447  19.211  0.00  0.00    +0.000 NA
ATOM     20  H   UNL     1       4.443   5.162  19.837  0.00  0.00    +0.000 HD
BRANCH  19  28
ATOM     21  C   UNL     1       6.096   3.914  13.651  0.00  0.00    +0.000 A 
ATOM     22  C   UNL     1       5.139   3.477  14.574  0.00  0.00    +0.000 A 
ATOM     23  C   UNL     1       5.197   3.940  15.859  0.00  0.00    +0.000 A 
ATOM     24  C   UNL     1       6.149   4.871  16.248  0.00  0.00    +0.000 A 
ATOM     25  C   UNL     1       7.106   5.332  15.359  0.00  0.00    +0.000 A 
ATOM     26  C   UNL     1       7.118   4.837  14.040  0.00  0.00    +0.000 A 
ATOM     27  C   UNL     1       5.908   5.289  17.665  0.00  0.00    +0.000 C 
ATOM     28  C   UNL     1       5.037   4.111  18.178  0.00  0.00    +0.000 C 
ATOM     29  C   UNL     1       4.265   3.584  16.958  0.00  0.00    +0.000 C 
BRANCH  21  31
ATOM     30  C   UNL     1       4.558   3.359  11.705  0.00  0.00    +0.000 C 
ATOM     31  C   UNL     1       5.957   3.298  12.286  0.00  0.00    +0.000 C 
ENDBRANCH  21  31
BRANCH  26  32
ATOM     32  C   UNL     1       8.203   5.266  13.063  0.00  0.00    +0.000 C 
ATOM     33  C   UNL     1       7.790   6.109  11.854  0.00  0.00    +0.000 C 
ENDBRANCH  26  32
ENDBRANCH  19  28
ENDBRANCH  18  19
ENDBRANCH   1  18
TORSDOF 8
ENDMDL
MODEL 7
REMARK VINA RESULT:      -7.9      5.777     10.348
REMARK  Name = 
REMARK  10 active torsions:
REMARK  status: ('A' for Active; 'I' for Inactive)
REMARK    1  A    between atoms: C_1  and  C_2
REMARK    2  A    between atoms: C_2  and  C_3
REMARK    3  A    between atoms: C_8  and  C_9
REMARK    4  A    between atoms: C_9  and  C_10
REMARK    5  A    between atoms: C_12  and  N_13
REMARK    6  A    between atoms: N_13  and  C_14
REMARK    7  A    between atoms: C_14  and  C_15
REMARK    8  A    between atoms: C_15  and  O_16
REMARK    9  A    between atoms: C_15  and  C_17
REMARK   10  A    between atoms: C_20  and  O_21
REMARK                            x       y       z     vdW  Elec       q    Type
REMARK                         _______ _______ _______ _____ _____    ______ ____
ROOT
ATOM      1  C   UNL     1      -1.584  12.353  18.701  0.00  0.00    +0.000 C 
ENDROOT
BRANCH   1   2
ATOM      2  C   UNL     1      -3.045  11.980  18.609  0.00  0.00    +0.000 A 
ATOM      3  C   UNL     1      -3.489  11.252  17.489  0.00  0.00    +0.000 A 
ATOM      4  C   UNL     1      -4.805  10.800  17.384  0.00  0.00    +0.000 A 
ATOM      5  C   UNL     1      -5.693  11.071  18.411  0.00  0.00    +0.000 A 
ATOM      6  C   UNL     1      -5.275  11.789  19.534  0.00  0.00    +0.000 A 
ATOM      7  N   UNL     1      -6.201  12.028  20.563  0.00  0.00    +0.000 N 
ATOM      8  C   UNL     1      -5.915  12.717  21.707  0.00  0.00    +0.000 A 
ATOM      9  O   UNL     1      -6.739  12.910  22.589  0.00  0.00    +0.000 OA
ATOM     10  C   UNL     1      -4.532  13.228  21.830  0.00  0.00    +0.000 A 
ATOM     11  C   UNL     1      -3.615  13.010  20.873  0.00  0.00    +0.000 A 
ATOM     12  C   UNL     1      -3.952  12.260  19.649  0.00  0.00    +0.000 A 
ATOM     13  H   UNL     1      -7.140  11.667  20.450  0.00  0.00    +0.000 HD
BRANCH   5  14
ATOM     14  O   UNL     1      -6.987  10.633  18.348  0.00  0.00    +0.000 OA
ATOM     15  H   UNL     1      -7.575  11.389  18.511  0.00  0.00    +0.000 HD
ENDBRANCH   5  14
ENDBRANCH   1   2
BRANCH   1  16
ATOM     16  O   UNL     1      -1.138  12.946  17.470  0.00  0.00    +0.000 OA
ATOM     17  H   UNL     1      -1.803  13.602  17.203  0.00  0.00    +0.000 HD
ENDBRANCH   1  16
BRANCH   1  18
ATOM     18  C   UNL     1      -0.750  11.096  19.031  0.00  0.00    +0.000 C 
BRANCH  18  19
ATOM     19  N   UNL     1       0.557  11.223  18.401  0.00  0.00    +0.000 NA
ATOM     20  H   UNL     1       0.472  11.223  17.384  0.00  0.00    +0.000 HD
BRANCH  19  28
ATOM     21  C   UNL     1       2.312   5.812  20.118  0.00  0.00    +0.000 A 
ATOM     22  C   UNL     1       1.521   6.921  20.439  0.00  0.00    +0.000 A 
ATOM     23  C   UNL     1       1.561   8.021  19.628  0.00  0.00    +0.000 A 
ATOM     24  C   UNL     1       2.324   8.036  18.470  0.00  0.00    +0.000 A 
ATOM     25  C   UNL     1       3.112   6.953  18.116  0.00  0.00    +0.000 A 
ATOM     26  C   UNL     1       3.146   5.821  18.955  0.00  0.00    +0.000 A 
ATOM     27  C   UNL     1       2.089   9.308  17.717  0.00  0.00    +0.000 C 
ATOM     28  C   UNL     1       1.508  10.213  18.838  0.00  0.00    +0.000 C 
ATOM     29  C   UNL     1       0.788   9.274  19.819  0.00  0.00    +0.000 C 
BRANCH  21  31
ATOM     30  C   UNL     1       1.197   3.621  20.766  0.00  0.00    +0.000 C 
ATOM     31  C   UNL     1       2.220   4.686  21.111  0.00  0.00    +0.000 C 
ENDBRANCH  21  31
BRANCH  26  32
ATOM     32  C   UNL     1       4.060   4.647  18.634  0.00  0.00    +0.000 C 
ATOM     33  C   UNL     1       5.556   4.803  18.917  0.00  0.00    +0.000 C 
ENDBRANCH  26  32
ENDBRANCH  19  28
ENDBRANCH  18  19
ENDBRANCH   1  18
TORSDOF 8
ENDMDL
MODEL 8
REMARK VINA RESULT:      -7.8      5.299      9.649
REMARK  Name = 
REMARK  10 active torsions:
REMARK  status: ('A' for Active; 'I' for Inactive)
REMARK    1  A    between atoms: C_1  and  C_2
REMARK    2  A    between atoms: C_2  and  C_3
REMARK    3  A    between atoms: C_8  and  C_9
REMARK    4  A    between atoms: C_9  and  C_10
REMARK    5  A    between atoms: C_12  and  N_13
REMARK    6  A    between atoms: N_13  and  C_14
REMARK    7  A    between atoms: C_14  and  C_15
REMARK    8  A    between atoms: C_15  and  O_16
REMARK    9  A    between atoms: C_15  and  C_17
REMARK   10  A    between atoms: C_20  and  O_21
REMARK                            x       y       z     vdW  Elec       q    Type
REMARK                         _______ _______ _______ _____ _____    ______ ____
ROOT
ATOM      1  C   UNL     1      -1.333  11.445  19.505  0.00  0.00    +0.000 C 
ENDROOT
BRANCH   1   2
ATOM      2  C   UNL     1      -2.153  11.169  18.265  0.00  0.00    +0.000 A 
ATOM      3  C   UNL     1      -1.572  10.430  17.219  0.00  0.00    +0.000 A 
ATOM      4  C   UNL     1      -2.299  10.065  16.087  0.00  0.00    +0.000 A 
ATOM      5  C   UNL     1      -3.630  10.437  15.995  0.00  0.00    +0.000 A 
ATOM      6  C   UNL     1      -4.231  11.169  17.022  0.00  0.00    +0.000 A 
ATOM      7  N   UNL     1      -5.587  11.512  16.899  0.00  0.00    +0.000 N 
ATOM      8  C   UNL     1      -6.285  12.225  17.832  0.00  0.00    +0.000 A 
ATOM      9  O   UNL     1      -7.467  12.509  17.703  0.00  0.00    +0.000 OA
ATOM     10  C   UNL     1      -5.527  12.644  19.031  0.00  0.00    +0.000 A 
ATOM     11  C   UNL     1      -4.232  12.326  19.190  0.00  0.00    +0.000 A 
ATOM     12  C   UNL     1      -3.504  11.553  18.166  0.00  0.00    +0.000 A 
ATOM     13  H   UNL     1      -6.080  11.212  16.067  0.00  0.00    +0.000 HD
BRANCH   5  14
ATOM     14  O   UNL     1      -4.379  10.086  14.905  0.00  0.00    +0.000 OA
ATOM     15  H   UNL     1      -5.254   9.796  15.214  0.00  0.00    +0.000 HD
ENDBRANCH   5  14
ENDBRANCH   1   2
BRANCH   1  16
ATOM     16  O   UNL     1      -0.215  12.290  19.190  0.00  0.00    +0.000 OA
ATOM     17  H   UNL     1       0.026  12.771  19.998  0.00  0.00    +0.000 HD
ENDBRANCH   1  16
BRANCH   1  18
ATOM     18  C   UNL     1      -0.850  10.110  20.111  0.00  0.00    +0.000 C 
BRANCH  18  19
ATOM     19  N   UNL     1       0.399  10.343  20.821  0.00  0.00    +0.000 NA
ATOM     20  H   UNL     1       0.773  11.268  20.606  0.00  0.00    +0.000 HD
BRANCH  19  28
ATOM     21  C   UNL     1       2.373   4.826  19.832  0.00  0.00    +0.000 A 
ATOM     22  C   UNL     1       1.729   5.672  20.742  0.00  0.00    +0.000 A 
ATOM     23  C   UNL     1       1.589   6.997  20.432  0.00  0.00    +0.000 A 
ATOM     24  C   UNL     1       2.022   7.502  19.215  0.00  0.00    +0.000 A 
ATOM     25  C   UNL     1       2.655   6.692  18.286  0.00  0.00    +0.000 A 
ATOM     26  C   UNL     1       2.872   5.333  18.590  0.00  0.00    +0.000 A 
ATOM     27  C   UNL     1       1.637   8.943  19.092  0.00  0.00    +0.000 C 
ATOM     28  C   UNL     1       1.400   9.315  20.581  0.00  0.00    +0.000 C 
ATOM     29  C   UNL     1       0.934   8.026  21.277  0.00  0.00    +0.000 C 
BRANCH  21  31
ATOM     30  C   UNL     1       2.082   3.175  21.743  0.00  0.00    +0.000 C 
ATOM     31  C   UNL     1       2.510   3.406  20.307  0.00  0.00    +0.000 C 
ENDBRANCH  21  31
BRANCH  26  32
ATOM     32  C   UNL     1       3.633   4.437  17.624  0.00  0.00    +0.000 C 
ATOM     33  C   UNL     1       2.865   3.304  16.939  0.00  0.00    +0.000 C 
ENDBRANCH  26  32
ENDBRANCH  19  28
ENDBRANCH  18  19
ENDBRANCH   1  18
TORSDOF 8
ENDMDL
MODEL 9
REMARK VINA RESULT:      -7.8      1.056      1.494
REMARK  Name = 
REMARK  10 active torsions:
REMARK  status: ('A' for Active; 'I' for Inactive)
REMARK    1  A    between atoms: C_1  and  C_2
REMARK    2  A    between atoms: C_2  and  C_3
REMARK    3  A    between atoms: C_8  and  C_9
REMARK    4  A    between atoms: C_9  and  C_10
REMARK    5  A    between atoms: C_12  and  N_13
REMARK    6  A    between atoms: N_13  and  C_14
REMARK    7  A    between atoms: C_14  and  C_15
REMARK    8  A    between atoms: C_15  and  O_16
REMARK    9  A    between atoms: C_15  and  C_17
REMARK   10  A    between atoms: C_20  and  O_21
REMARK                            x       y       z     vdW  Elec       q    Type
REMARK                         _______ _______ _______ _____ _____    ______ ____
ROOT
ATOM      1  C   UNL     1       4.328   3.083  18.813  0.00  0.00    +0.000 C 
ENDROOT
BRANCH   1   2
ATOM      2  C   UNL     1       5.110   3.736  17.696  0.00  0.00    +0.000 A 
ATOM      3  C   UNL     1       4.859   3.336  16.370  0.00  0.00    +0.000 A 
ATOM      4  C   UNL     1       5.480   3.957  15.287  0.00  0.00    +0.000 A 
ATOM      5  C   UNL     1       6.362   4.999  15.525  0.00  0.00    +0.000 A 
ATOM      6  C   UNL     1       6.625   5.416  16.832  0.00  0.00    +0.000 A 
ATOM      7  N   UNL     1       7.511   6.487  17.031  0.00  0.00    +0.000 N 
ATOM      8  C   UNL     1       7.850   6.984  18.257  0.00  0.00    +0.000 A 
ATOM      9  O   UNL     1       8.623   7.920  18.403  0.00  0.00    +0.000 OA
ATOM     10  C   UNL     1       7.222   6.325  19.423  0.00  0.00    +0.000 A 
ATOM     11  C   UNL     1       6.361   5.305  19.273  0.00  0.00    +0.000 A 
ATOM     12  C   UNL     1       6.012   4.790  17.935  0.00  0.00    +0.000 A 
ATOM     13  H   UNL     1       7.926   6.918  16.214  0.00  0.00    +0.000 HD
BRANCH   5  14
ATOM     14  O   UNL     1       6.980   5.640  14.487  0.00  0.00    +0.000 OA
ATOM     15  H   UNL     1       7.594   5.017  14.063  0.00  0.00    +0.000 HD
ENDBRANCH   5  14
ENDBRANCH   1   2
BRANCH   1  16
ATOM     16  O   UNL     1       5.157   2.153  19.529  0.00  0.00    +0.000 OA
ATOM     17  H   UNL     1       4.703   1.936  20.359  0.00  0.00    +0.000 HD
ENDBRANCH   1  16
BRANCH   1  18
ATOM     18  C   UNL     1       3.090   2.370  18.228  0.00  0.00    +0.000 C 
BRANCH  18  19
ATOM     19  N   UNL     1       1.976   2.534  19.150  0.00  0.00    +0.000 NA
ATOM     20  H   UNL     1       1.265   1.819  18.993  0.00  0.00    +0.000 HD
BRANCH  19  28
ATOM     21  C   UNL     1       1.507   8.296  20.524  0.00  0.00    +0.000 A 
ATOM     22  C   UNL     1       1.464   6.988  21.019  0.00  0.00    +0.000 A 
ATOM     23  C   UNL     1       1.587   5.943  20.144  0.00  0.00    +0.000 A 
ATOM     24  C   UNL     1       1.807   6.157  18.792  0.00  0.00    +0.000 A 
ATOM     25  C   UNL     1       1.864   7.438  18.268  0.00  0.00    +0.000 A 
ATOM     26  C   UNL     1       1.684   8.543  19.125  0.00  0.00    +0.000 A 
ATOM     27  C   UNL     1       2.020   4.850  18.094  0.00  0.00    +0.000 C 
ATOM     28  C   UNL     1       1.387   3.863  19.112  0.00  0.00    +0.000 C 
ATOM     29  C   UNL     1       1.566   4.502  20.499  0.00  0.00    +0.000 C 
BRANCH  21  31
ATOM     30  C   UNL     1       0.022   9.237  22.360  0.00  0.00    +0.000 C 
ATOM     31  C   UNL     1       1.313   9.355  21.573  0.00  0.00    +0.000 C 
ENDBRANCH  21  31
BRANCH  26  32
ATOM     32  C   UNL     1       1.665   9.958  18.568  0.00  0.00    +0.000 C 
ATOM     33  C   UNL     1       0.334  10.713  18.567  0.00  0.00    +0.000 C 
ENDBRANCH  26  32
ENDBRANCH  19  28
ENDBRANCH  18  19
ENDBRANCH   1  18
TORSDOF 8
ENDMDL
