MODEL 1
REMARK VINA RESULT:      -6.0      0.000      0.000
REMARK  Name = 
REMARK  4 active torsions:
REMARK  status: ('A' for Active; 'I' for Inactive)
REMARK    1  A    between atoms: C_1  and  N_2
REMARK    2  A    between atoms: N_2  and  C_3
REMARK    3  A    between atoms: C_4  and  C_6
REMARK    4  A    between atoms: C_6  and  N_7
REMARK                            x       y       z     vdW  Elec       q    Type
REMARK                         _______ _______ _______ _____ _____    ______ ____
ROOT
ATOM      1  N   UNL     1      -0.665  11.882  19.816  0.00  0.00    +0.000 NA
ATOM      2  C   UNL     1      -0.817  13.321  19.507  0.00  0.00    +0.000 C 
ATOM      3  C   UNL     1      -1.034  14.098  20.825  0.00  0.00    +0.000 C 
ATOM      4  C   UNL     1      -2.383  14.830  20.898  0.00  0.00    +0.000 C 
ATOM      5  C   UNL     1      -3.649  13.971  20.868  0.00  0.00    +0.000 C 
ATOM      6  N   UNL     1      -3.898  13.374  22.175  0.00  0.00    +0.000 N 
ATOM      7  C   UNL     1      -5.233  13.101  22.481  0.00  0.00    +0.000 A 
ATOM      8  N   UNL     1      -6.203  13.359  21.591  0.00  0.00    +0.000 NA
ATOM      9  C   UNL     1      -7.475  13.099  21.957  0.00  0.00    +0.000 A 
ATOM     10  C   UNL     1      -7.828  12.597  23.185  0.00  0.00    +0.000 A 
ATOM     11  C   UNL     1      -6.781  12.372  24.035  0.00  0.00    +0.000 A 
ATOM     12  N   UNL     1      -5.505  12.612  23.707  0.00  0.00    +0.000 NA
ATOM     13  C   UNL     1      -2.980  12.365  22.692  0.00  0.00    +0.000 C 
ATOM     14  C   UNL     1      -1.672  13.004  23.135  0.00  0.00    +0.000 C 
ATOM     15  C   UNL     1      -0.645  13.221  22.031  0.00  0.00    +0.000 C 
ATOM     16  S   UNL     1       0.010  11.693  21.356  0.00  0.00    +0.000 S 
ATOM     17  O   UNL     1       1.440  11.859  21.215  0.00  0.00    +0.000 OA
ATOM     18  O   UNL     1      -0.564  10.530  21.991  0.00  0.00    +0.000 OA
ENDROOT
BRANCH   1  19
ATOM     19  C   UNL     1      -1.797  11.008  19.439  0.00  0.00    +0.000 C 
BRANCH  19  23
ATOM     20  C   UNL     1      -2.651  10.427  15.751  0.00  0.00    +0.000 C 
ATOM     21  N   UNL     1      -2.746  10.873  17.129  0.00  0.00    +0.000 N 
ATOM     22  C   UNL     1      -3.960  11.546  17.564  0.00  0.00    +0.000 C 
ATOM     23  C   UNL     1      -1.695  10.563  17.983  0.00  0.00    +0.000 C 
ATOM     24  O   UNL     1      -0.706   9.930  17.598  0.00  0.00    +0.000 OA
ENDBRANCH  19  23
ENDBRANCH   1  19
TORSDOF 2
ENDMDL
MODEL 2
REMARK VINA RESULT:      -6.0      1.360      1.474
REMARK  Name = 
REMARK  4 active torsions:
REMARK  status: ('A' for Active; 'I' for Inactive)
REMARK    1  A    between atoms: C_1  and  N_2
REMARK    2  A    between atoms: N_2  and  C_3
REMARK    3  A    between atoms: C_4  and  C_6
REMARK    4  A    between atoms: C_6  and  N_7
REMARK                            x       y       z     vdW  Elec       q    Type
REMARK                         _______ _______ _______ _____ _____    ______ ____
ROOT
ATOM      1  N   UNL     1      -0.838  11.753  18.508  0.00  0.00    +0.000 NA
ATOM      2  C   UNL     1      -0.711  13.226  18.542  0.00  0.00    +0.000 C 
ATOM      3  C   UNL     1      -0.323  13.664  19.972  0.00  0.00    +0.000 C 
ATOM      4  C   UNL     1      -1.361  14.577  20.642  0.00  0.00    +0.000 C 
ATOM      5  C   UNL     1      -2.751  13.990  20.897  0.00  0.00    +0.000 C 
ATOM      6  N   UNL     1      -2.739  13.132  22.075  0.00  0.00    +0.000 N 
ATOM      7  C   UNL     1      -3.946  13.027  22.771  0.00  0.00    +0.000 A 
ATOM      8  N   UNL     1      -5.041  13.670  22.337  0.00  0.00    +0.000 NA
ATOM      9  C   UNL     1      -6.168  13.551  23.068  0.00  0.00    +0.000 A 
ATOM     10  C   UNL     1      -6.252  12.821  24.228  0.00  0.00    +0.000 A 
ATOM     11  C   UNL     1      -5.091  12.205  24.604  0.00  0.00    +0.000 A 
ATOM     12  N   UNL     1      -3.953  12.295  23.903  0.00  0.00    +0.000 NA
ATOM     13  C   UNL     1      -1.992  11.878  22.046  0.00  0.00    +0.000 C 
ATOM     14  C   UNL     1      -0.495  12.144  22.115  0.00  0.00    +0.000 C 
ATOM     15  C   UNL     1       0.175  12.454  20.784  0.00  0.00    +0.000 C 
ATOM     16  S   UNL     1       0.196  11.060  19.654  0.00  0.00    +0.000 S 
ATOM     17  O   UNL     1       1.512  11.004  19.058  0.00  0.00    +0.000 OA
ATOM     18  O   UNL     1      -0.434   9.892  20.224  0.00  0.00    +0.000 OA
ENDROOT
BRANCH   1  19
ATOM     19  C   UNL     1      -2.212  11.216  18.394  0.00  0.00    +0.000 C 
BRANCH  19  23
ATOM     20  C   UNL     1      -3.751  10.082  15.075  0.00  0.00    +0.000 C 
ATOM     21  N   UNL     1      -3.553  10.792  16.326  0.00  0.00    +0.000 N 
ATOM     22  C   UNL     1      -4.581  11.717  16.775  0.00  0.00    +0.000 C 
ATOM     23  C   UNL     1      -2.417  10.490  17.067  0.00  0.00    +0.000 C 
ATOM     24  O   UNL     1      -1.595   9.649  16.690  0.00  0.00    +0.000 OA
ENDBRANCH  19  23
ENDBRANCH   1  19
TORSDOF 2
ENDMDL
MODEL 3
REMARK VINA RESULT:      -5.8      3.481      5.683
REMARK  Name = 
REMARK  4 active torsions:
REMARK  status: ('A' for Active; 'I' for Inactive)
REMARK    1  A    between atoms: C_1  and  N_2
REMARK    2  A    between atoms: N_2  and  C_3
REMARK    3  A    between atoms: C_4  and  C_6
REMARK    4  A    between atoms: C_6  and  N_7
REMARK                            x       y       z     vdW  Elec       q    Type
REMARK                         _______ _______ _______ _____ _____    ______ ____
ROOT
ATOM      1  N   UNL     1       0.838  14.342  20.456  0.00  0.00    +0.000 NA
ATOM      2  C   UNL     1      -0.212  14.062  21.459  0.00  0.00    +0.000 C 
ATOM      3  C   UNL     1      -0.404  12.533  21.574  0.00  0.00    +0.000 C 
ATOM      4  C   UNL     1      -1.815  12.057  21.196  0.00  0.00    +0.000 C 
ATOM      5  C   UNL     1      -2.272  12.289  19.754  0.00  0.00    +0.000 C 
ATOM      6  N   UNL     1      -1.692  11.291  18.864  0.00  0.00    +0.000 N 
ATOM      7  C   UNL     1      -2.434  10.984  17.720  0.00  0.00    +0.000 A 
ATOM      8  N   UNL     1      -3.593  11.611  17.471  0.00  0.00    +0.000 NA
ATOM      9  C   UNL     1      -4.276  11.250  16.365  0.00  0.00    +0.000 A 
ATOM     10  C   UNL     1      -3.854  10.278  15.492  0.00  0.00    +0.000 A 
ATOM     11  C   UNL     1      -2.669   9.684  15.823  0.00  0.00    +0.000 A 
ATOM     12  N   UNL     1      -1.959  10.018  16.909  0.00  0.00    +0.000 NA
ATOM     13  C   UNL     1      -0.253  11.289  18.623  0.00  0.00    +0.000 C 
ATOM     14  C   UNL     1       0.495  10.765  19.841  0.00  0.00    +0.000 C 
ATOM     15  C   UNL     1       0.783  11.797  20.923  0.00  0.00    +0.000 C 
ATOM     16  S   UNL     1       1.945  13.063  20.411  0.00  0.00    +0.000 S 
ATOM     17  O   UNL     1       2.873  13.267  21.502  0.00  0.00    +0.000 OA
ATOM     18  O   UNL     1       2.396  12.867  19.053  0.00  0.00    +0.000 OA
ENDROOT
BRANCH   1  19
ATOM     19  C   UNL     1       0.380  14.912  19.170  0.00  0.00    +0.000 C 
BRANCH  19  23
ATOM     20  C   UNL     1       0.962  18.617  18.396  0.00  0.00    +0.000 C 
ATOM     21  N   UNL     1       0.291  17.368  18.704  0.00  0.00    +0.000 N 
ATOM     22  C   UNL     1      -1.162  17.346  18.745  0.00  0.00    +0.000 C 
ATOM     23  C   UNL     1       1.079  16.235  18.869  0.00  0.00    +0.000 C 
ATOM     24  O   UNL     1       2.309  16.273  18.760  0.00  0.00    +0.000 OA
ENDBRANCH  19  23
ENDBRANCH   1  19
TORSDOF 2
ENDMDL
MODEL 4
REMARK VINA RESULT:      -5.8      8.399     11.818
REMARK  Name = 
REMARK  4 active torsions:
REMARK  status: ('A' for Active; 'I' for Inactive)
REMARK    1  A    between atoms: C_1  and  N_2
REMARK    2  A    between atoms: N_2  and  C_3
REMARK    3  A    between atoms: C_4  and  C_6
REMARK    4  A    between atoms: C_6  and  N_7
REMARK                            x       y       z     vdW  Elec       q    Type
REMARK                         _______ _______ _______ _____ _____    ______ ____
ROOT
ATOM      1  N   UNL     1       1.627   4.336  20.979  0.00  0.00    +0.000 NA
ATOM      2  C   UNL     1       0.620   4.243  19.899  0.00  0.00    +0.000 C 
ATOM      3  C   UNL     1       0.986   3.064  18.970  0.00  0.00    +0.000 C 
ATOM      4  C   UNL     1       1.273   3.485  17.521  0.00  0.00    +0.000 C 
ATOM      5  C   UNL     1       2.469   4.410  17.283  0.00  0.00    +0.000 C 
ATOM      6  N   UNL     1       3.717   3.658  17.317  0.00  0.00    +0.000 N 
ATOM      7  C   UNL     1       4.768   4.177  16.555  0.00  0.00    +0.000 A 
ATOM      8  N   UNL     1       4.612   5.318  15.868  0.00  0.00    +0.000 NA
ATOM      9  C   UNL     1       5.654   5.752  15.130  0.00  0.00    +0.000 A 
ATOM     10  C   UNL     1       6.853   5.089  15.039  0.00  0.00    +0.000 A 
ATOM     11  C   UNL     1       6.925   3.932  15.762  0.00  0.00    +0.000 A 
ATOM     12  N   UNL     1       5.915   3.470  16.511  0.00  0.00    +0.000 NA
ATOM     13  C   UNL     1       4.167   3.064  18.571  0.00  0.00    +0.000 C 
ATOM     14  C   UNL     1       3.322   1.848  18.924  0.00  0.00    +0.000 C 
ATOM     15  C   UNL     1       2.019   2.148  19.653  0.00  0.00    +0.000 C 
ATOM     16  S   UNL     1       2.261   2.802  21.306  0.00  0.00    +0.000 S 
ATOM     17  O   UNL     1       1.323   2.132  22.179  0.00  0.00    +0.000 OA
ATOM     18  O   UNL     1       3.662   2.924  21.640  0.00  0.00    +0.000 OA
ENDROOT
BRANCH   1  19
ATOM     19  C   UNL     1       2.565   5.477  20.903  0.00  0.00    +0.000 C 
BRANCH  19  23
ATOM     20  C   UNL     1       1.507   8.767  19.254  0.00  0.00    +0.000 C 
ATOM     21  N   UNL     1       2.198   7.514  19.500  0.00  0.00    +0.000 N 
ATOM     22  C   UNL     1       3.283   7.128  18.614  0.00  0.00    +0.000 C 
ATOM     23  C   UNL     1       1.829   6.784  20.624  0.00  0.00    +0.000 C 
ATOM     24  O   UNL     1       0.947   7.174  21.396  0.00  0.00    +0.000 OA
ENDBRANCH  19  23
ENDBRANCH   1  19
TORSDOF 2
ENDMDL
MODEL 5
REMARK VINA RESULT:      -5.7      4.413      7.837
REMARK  Name = 
REMARK  4 active torsions:
REMARK  status: ('A' for Active; 'I' for Inactive)
REMARK    1  A    between atoms: C_1  and  N_2
REMARK    2  A    between atoms: N_2  and  C_3
REMARK    3  A    between atoms: C_4  and  C_6
REMARK    4  A    between atoms: C_6  and  N_7
REMARK                            x       y       z     vdW  Elec       q    Type
REMARK                         _______ _______ _______ _____ _____    ______ ____
ROOT
ATOM      1  N   UNL     1       0.434  12.640  20.048  0.00  0.00    +0.000 NA
ATOM      2  C   UNL     1      -0.263  12.382  18.769  0.00  0.00    +0.000 C 
ATOM      3  C   UNL     1      -0.940  10.994  18.836  0.00  0.00    +0.000 C 
ATOM      4  C   UNL     1      -0.419  10.001  17.786  0.00  0.00    +0.000 C 
ATOM      5  C   UNL     1       1.055   9.598  17.871  0.00  0.00    +0.000 C 
ATOM      6  N   UNL     1       1.257   8.604  18.918  0.00  0.00    +0.000 N 
ATOM      7  C   UNL     1       2.328   7.727  18.733  0.00  0.00    +0.000 A 
ATOM      8  N   UNL     1       3.122   7.838  17.657  0.00  0.00    +0.000 NA
ATOM      9  C   UNL     1       4.123   6.944  17.522  0.00  0.00    +0.000 A 
ATOM     10  C   UNL     1       4.364   5.928  18.414  0.00  0.00    +0.000 A 
ATOM     11  C   UNL     1       3.505   5.881  19.475  0.00  0.00    +0.000 A 
ATOM     12  N   UNL     1       2.503   6.753  19.648  0.00  0.00    +0.000 NA
ATOM     13  C   UNL     1       1.068   8.980  20.315  0.00  0.00    +0.000 C 
ATOM     14  C   UNL     1      -0.411   9.143  20.633  0.00  0.00    +0.000 C 
ATOM     15  C   UNL     1      -1.006  10.503  20.295  0.00  0.00    +0.000 C 
ATOM     16  S   UNL     1      -0.360  11.836  21.307  0.00  0.00    +0.000 S 
ATOM     17  O   UNL     1      -1.479  12.664  21.701  0.00  0.00    +0.000 OA
ATOM     18  O   UNL     1       0.614  11.365  22.265  0.00  0.00    +0.000 OA
ENDROOT
BRANCH   1  19
ATOM     19  C   UNL     1       1.911  12.589  20.011  0.00  0.00    +0.000 C 
BRANCH  19  23
ATOM     20  C   UNL     1       3.773  15.930  20.214  0.00  0.00    +0.000 C 
ATOM     21  N   UNL     1       3.172  14.723  19.676  0.00  0.00    +0.000 N 
ATOM     22  C   UNL     1       3.343  14.427  18.263  0.00  0.00    +0.000 C 
ATOM     23  C   UNL     1       2.526  13.872  20.564  0.00  0.00    +0.000 C 
ATOM     24  O   UNL     1       2.457  14.118  21.772  0.00  0.00    +0.000 OA
ENDBRANCH  19  23
ENDBRANCH   1  19
TORSDOF 2
ENDMDL
MODEL 6
REMARK VINA RESULT:      -5.7      2.839      4.082
REMARK  Name = 
REMARK  4 active torsions:
REMARK  status: ('A' for Active; 'I' for Inactive)
REMARK    1  A    between atoms: C_1  and  N_2
REMARK    2  A    between atoms: N_2  and  C_3
REMARK    3  A    between atoms: C_4  and  C_6
REMARK    4  A    between atoms: C_6  and  N_7
REMARK                            x       y       z     vdW  Elec       q    Type
REMARK                         _______ _______ _______ _____ _____    ______ ____
ROOT
ATOM      1  N   UNL     1      -0.705  12.587  23.005  0.00  0.00    +0.000 NA
ATOM      2  C   UNL     1      -0.067  13.133  21.787  0.00  0.00    +0.000 C 
ATOM      3  C   UNL     1      -0.952  14.266  21.220  0.00  0.00    +0.000 C 
ATOM      4  C   UNL     1      -1.479  13.989  19.804  0.00  0.00    +0.000 C 
ATOM      5  C   UNL     1      -2.411  12.788  19.625  0.00  0.00    +0.000 C 
ATOM      6  N   UNL     1      -3.761  13.114  20.068  0.00  0.00    +0.000 N 
ATOM      7  C   UNL     1      -4.798  12.415  19.444  0.00  0.00    +0.000 A 
ATOM      8  N   UNL     1      -4.530  11.485  18.515  0.00  0.00    +0.000 NA
ATOM      9  C   UNL     1      -5.575  10.866  17.929  0.00  0.00    +0.000 A 
ATOM     10  C   UNL     1      -6.888  11.140  18.224  0.00  0.00    +0.000 A 
ATOM     11  C   UNL     1      -7.073  12.106  19.174  0.00  0.00    +0.000 A 
ATOM     12  N   UNL     1      -6.061  12.740  19.782  0.00  0.00    +0.000 NA
ATOM     13  C   UNL     1      -4.016  13.358  21.484  0.00  0.00    +0.000 C 
ATOM     14  C   UNL     1      -3.456  14.710  21.905  0.00  0.00    +0.000 C 
ATOM     15  C   UNL     1      -1.979  14.718  22.275  0.00  0.00    +0.000 C 
ATOM     16  S   UNL     1      -1.613  13.793  23.768  0.00  0.00    +0.000 S 
ATOM     17  O   UNL     1      -0.692  14.584  24.554  0.00  0.00    +0.000 OA
ATOM     18  O   UNL     1      -2.800  13.206  24.346  0.00  0.00    +0.000 OA
ENDROOT
BRANCH   1  19
ATOM     19  C   UNL     1      -1.301  11.238  22.883  0.00  0.00    +0.000 C 
BRANCH  19  23
ATOM     20  C   UNL     1       1.134   8.550  21.652  0.00  0.00    +0.000 C 
ATOM     21  N   UNL     1       0.127   9.595  21.650  0.00  0.00    +0.000 N 
ATOM     22  C   UNL     1      -0.515   9.945  20.394  0.00  0.00    +0.000 C 
ATOM     23  C   UNL     1      -0.225  10.155  22.873  0.00  0.00    +0.000 C 
ATOM     24  O   UNL     1       0.291   9.787  23.933  0.00  0.00    +0.000 OA
ENDBRANCH  19  23
ENDBRANCH   1  19
TORSDOF 2
ENDMDL
MODEL 7
REMARK VINA RESULT:      -5.5      4.433      7.772
REMARK  Name = 
REMARK  4 active torsions:
REMARK  status: ('A' for Active; 'I' for Inactive)
REMARK    1  A    between atoms: C_1  and  N_2
REMARK    2  A    between atoms: N_2  and  C_3
REMARK    3  A    between atoms: C_4  and  C_6
REMARK    4  A    between atoms: C_6  and  N_7
REMARK                            x       y       z     vdW  Elec       q    Type
REMARK                         _______ _______ _______ _____ _____    ______ ____
ROOT
ATOM      1  N   UNL     1       0.475  12.747  19.825  0.00  0.00    +0.000 NA
ATOM      2  C   UNL     1      -0.256  12.422  18.581  0.00  0.00    +0.000 C 
ATOM      3  C   UNL     1      -0.943  11.048  18.746  0.00  0.00    +0.000 C 
ATOM      4  C   UNL     1      -0.458   9.990  17.743  0.00  0.00    +0.000 C 
ATOM      5  C   UNL     1       1.014   9.577  17.817  0.00  0.00    +0.000 C 
ATOM      6  N   UNL     1       1.233   8.643  18.915  0.00  0.00    +0.000 N 
ATOM      7  C   UNL     1       2.291   7.745  18.756  0.00  0.00    +0.000 A 
ATOM      8  N   UNL     1       3.059   7.785  17.657  0.00  0.00    +0.000 NA
ATOM      9  C   UNL     1       4.048   6.873  17.550  0.00  0.00    +0.000 A 
ATOM     10  C   UNL     1       4.302   5.910  18.494  0.00  0.00    +0.000 A 
ATOM     11  C   UNL     1       3.468   5.933  19.577  0.00  0.00    +0.000 A 
ATOM     12  N   UNL     1       2.479   6.825  19.722  0.00  0.00    +0.000 NA
ATOM     13  C   UNL     1       1.082   9.102  20.292  0.00  0.00    +0.000 C 
ATOM     14  C   UNL     1      -0.388   9.299  20.635  0.00  0.00    +0.000 C 
ATOM     15  C   UNL     1      -0.978  10.644  20.232  0.00  0.00    +0.000 C 
ATOM     16  S   UNL     1      -0.295  12.026  21.148  0.00  0.00    +0.000 S 
ATOM     17  O   UNL     1      -1.396  12.887  21.519  0.00  0.00    +0.000 OA
ATOM     18  O   UNL     1       0.698  11.602  22.108  0.00  0.00    +0.000 OA
ENDROOT
BRANCH   1  19
ATOM     19  C   UNL     1       1.951  12.678  19.756  0.00  0.00    +0.000 C 
BRANCH  19  23
ATOM     20  C   UNL     1       3.382  16.230  19.802  0.00  0.00    +0.000 C 
ATOM     21  N   UNL     1       2.835  14.964  20.254  0.00  0.00    +0.000 N 
ATOM     22  C   UNL     1       2.543  14.793  21.668  0.00  0.00    +0.000 C 
ATOM     23  C   UNL     1       2.547  14.004  19.291  0.00  0.00    +0.000 C 
ATOM     24  O   UNL     1       2.744  14.205  18.089  0.00  0.00    +0.000 OA
ENDBRANCH  19  23
ENDBRANCH   1  19
TORSDOF 2
ENDMDL
MODEL 8
REMARK VINA RESULT:      -5.5      3.405      5.789
REMARK  Name = 
REMARK  4 active torsions:
REMARK  status: ('A' for Active; 'I' for Inactive)
REMARK    1  A    between atoms: C_1  and  N_2
REMARK    2  A    between atoms: N_2  and  C_3
REMARK    3  A    between atoms: C_4  and  C_6
REMARK    4  A    between atoms: C_6  and  N_7
REMARK                            x       y       z     vdW  Elec       q    Type
REMARK                         _______ _______ _______ _____ _____    ______ ____
ROOT
ATOM      1  N   UNL     1       0.646  14.430  20.426  0.00  0.00    +0.000 NA
ATOM      2  C   UNL     1      -0.421  14.169  21.417  0.00  0.00    +0.000 C 
ATOM      3  C   UNL     1      -0.605  12.642  21.568  0.00  0.00    +0.000 C 
ATOM      4  C   UNL     1      -2.005  12.145  21.176  0.00  0.00    +0.000 C 
ATOM      5  C   UNL     1      -2.435  12.335  19.720  0.00  0.00    +0.000 C 
ATOM      6  N   UNL     1      -1.831  11.318  18.868  0.00  0.00    +0.000 N 
ATOM      7  C   UNL     1      -2.547  10.976  17.718  0.00  0.00    +0.000 A 
ATOM      8  N   UNL     1      -3.707  11.586  17.431  0.00  0.00    +0.000 NA
ATOM      9  C   UNL     1      -4.365  11.191  16.322  0.00  0.00    +0.000 A 
ATOM     10  C   UNL     1      -3.919  10.200  15.483  0.00  0.00    +0.000 A 
ATOM     11  C   UNL     1      -2.736   9.624  15.853  0.00  0.00    +0.000 A 
ATOM     12  N   UNL     1      -2.050   9.991  16.943  0.00  0.00    +0.000 NA
ATOM     13  C   UNL     1      -0.387  11.321  18.655  0.00  0.00    +0.000 C 
ATOM     14  C   UNL     1       0.341  10.836  19.900  0.00  0.00    +0.000 C 
ATOM     15  C   UNL     1       0.600  11.898  20.960  0.00  0.00    +0.000 C 
ATOM     16  S   UNL     1       1.763  13.159  20.437  0.00  0.00    +0.000 S 
ATOM     17  O   UNL     1       2.668  13.400  21.540  0.00  0.00    +0.000 OA
ATOM     18  O   UNL     1       2.242  12.930  19.094  0.00  0.00    +0.000 OA
ENDROOT
BRANCH   1  19
ATOM     19  C   UNL     1       0.209  14.962  19.117  0.00  0.00    +0.000 C 
BRANCH  19  23
ATOM     20  C   UNL     1       1.274  18.631  18.846  0.00  0.00    +0.000 C 
ATOM     21  N   UNL     1       1.324  17.180  18.813  0.00  0.00    +0.000 N 
ATOM     22  C   UNL     1       2.594  16.530  18.536  0.00  0.00    +0.000 C 
ATOM     23  C   UNL     1       0.160  16.488  19.126  0.00  0.00    +0.000 C 
ATOM     24  O   UNL     1      -0.887  17.071  19.424  0.00  0.00    +0.000 OA
ENDBRANCH  19  23
ENDBRANCH   1  19
TORSDOF 2
ENDMDL
MODEL 9
REMARK VINA RESULT:      -5.5     10.387     12.069
REMARK  Name = 
REMARK  4 active torsions:
REMARK  status: ('A' for Active; 'I' for Inactive)
REMARK    1  A    between atoms: C_1  and  N_2
REMARK    2  A    between atoms: N_2  and  C_3
REMARK    3  A    between atoms: C_4  and  C_6
REMARK    4  A    between atoms: C_6  and  N_7
REMARK                            x       y       z     vdW  Elec       q    Type
REMARK                         _______ _______ _______ _____ _____    ______ ____
ROOT
ATOM      1  N   UNL     1       9.452  14.200  18.134  0.00  0.00    +0.000 NA
ATOM      2  C   UNL     1      10.288  15.129  18.924  0.00  0.00    +0.000 C 
ATOM      3  C   UNL     1      11.019  14.333  20.028  0.00  0.00    +0.000 C 
ATOM      4  C   UNL     1      10.657  14.776  21.454  0.00  0.00    +0.000 C 
ATOM      5  C   UNL     1       9.203  14.597  21.897  0.00  0.00    +0.000 C 
ATOM      6  N   UNL     1       8.942  13.209  22.257  0.00  0.00    +0.000 N 
ATOM      7  C   UNL     1       7.938  13.000  23.207  0.00  0.00    +0.000 A 
ATOM      8  N   UNL     1       7.255  14.036  23.715  0.00  0.00    +0.000 NA
ATOM      9  C   UNL     1       6.317  13.770  24.648  0.00  0.00    +0.000 A 
ATOM     10  C   UNL     1       6.034  12.508  25.108  0.00  0.00    +0.000 A 
ATOM     11  C   UNL     1       6.782  11.511  24.545  0.00  0.00    +0.000 A 
ATOM     12  N   UNL     1       7.717  11.733  23.612  0.00  0.00    +0.000 NA
ATOM     13  C   UNL     1       8.968  12.179  21.224  0.00  0.00    +0.000 C 
ATOM     14  C   UNL     1      10.398  11.889  20.790  0.00  0.00    +0.000 C 
ATOM     15  C   UNL     1      10.958  12.823  19.726  0.00  0.00    +0.000 C 
ATOM     16  S   UNL     1      10.149  12.658  18.133  0.00  0.00    +0.000 S 
ATOM     17  O   UNL     1      11.181  12.660  17.120  0.00  0.00    +0.000 OA
ATOM     18  O   UNL     1       9.105  11.660  18.158  0.00  0.00    +0.000 OA
ENDROOT
BRANCH   1  19
ATOM     19  C   UNL     1       7.989  14.303  18.334  0.00  0.00    +0.000 C 
BRANCH  19  23
ATOM     20  C   UNL     1       6.193  17.402  19.687  0.00  0.00    +0.000 C 
ATOM     21  N   UNL     1       6.615  16.024  19.519  0.00  0.00    +0.000 N 
ATOM     22  C   UNL     1       5.979  14.994  20.325  0.00  0.00    +0.000 C 
ATOM     23  C   UNL     1       7.557  15.753  18.534  0.00  0.00    +0.000 C 
ATOM     24  O   UNL     1       8.028  16.642  17.818  0.00  0.00    +0.000 OA
ENDBRANCH  19  23
ENDBRANCH   1  19
TORSDOF 2
ENDMDL
