MODEL 1
REMARK VINA RESULT:      -8.8      0.000      0.000
REMARK  Name = 
REMARK  5 active torsions:
REMARK  status: ('A' for Active; 'I' for Inactive)
REMARK    1  A    between atoms: C_1  and  C_2
REMARK    2  A    between atoms: C_12  and  N_13
REMARK    3  A    between atoms: N_13  and  C_14
REMARK    4  A    between atoms: C_17  and  C_18
REMARK    5  A    between atoms: C_21  and  N_22
REMARK                            x       y       z     vdW  Elec       q    Type
REMARK                         _______ _______ _______ _____ _____    ______ ____
ROOT
ATOM      1  N   UNL     1       0.545  10.899  18.573  0.00  0.00    +0.000 N 
ATOM      2  H   UNL     1       0.796  11.199  17.624  0.00  0.00    +0.000 HD
ENDROOT
BRANCH   1  14
ATOM      3  C   UNL     1      -7.110  12.749  19.018  0.00  0.00    +0.000 C 
ATOM      4  C   UNL     1      -5.755  12.204  18.687  0.00  0.00    +0.000 A 
ATOM      5  C   UNL     1      -5.524  11.410  17.568  0.00  0.00    +0.000 A 
ATOM      6  C   UNL     1      -4.226  10.945  17.327  0.00  0.00    +0.000 A 
ATOM      7  C   UNL     1      -3.197  11.292  18.206  0.00  0.00    +0.000 A 
ATOM      8  C   UNL     1      -3.510  12.087  19.284  0.00  0.00    +0.000 A 
ATOM      9  N   UNL     1      -4.766  12.538  19.540  0.00  0.00    +0.000 NA
ATOM     10  C   UNL     1      -2.475  12.519  20.235  0.00  0.00    +0.000 C 
ATOM     11  O   UNL     1      -2.779  13.116  21.266  0.00  0.00    +0.000 OA
ATOM     12  C   UNL     1      -1.058  12.203  19.906  0.00  0.00    +0.000 C 
ATOM     13 BR   UNL     1       0.218  13.149  20.926  0.00  0.00    +0.000 Br
ATOM     14  C   UNL     1      -0.731  11.336  18.926  0.00  0.00    +0.000 C 
ATOM     15  C   UNL     1      -1.813  10.841  17.996  0.00  0.00    +0.000 C 
ATOM     16  O   UNL     1      -1.535  10.106  17.053  0.00  0.00    +0.000 OA
ENDBRANCH   1  14
BRANCH   1  17
ATOM     17  C   UNL     1       1.115   9.633  18.852  0.00  0.00    +0.000 A 
ATOM     18  C   UNL     1       1.064   8.996  20.096  0.00  0.00    +0.000 A 
ATOM     19  C   UNL     1       1.731   7.780  20.322  0.00  0.00    +0.000 A 
ATOM     20  C   UNL     1       2.448   7.134  19.303  0.00  0.00    +0.000 A 
ATOM     21  C   UNL     1       2.478   7.778  18.054  0.00  0.00    +0.000 A 
ATOM     22  C   UNL     1       1.838   9.005  17.837  0.00  0.00    +0.000 A 
BRANCH  20  23
ATOM     23  C   UNL     1       3.120   5.825  19.510  0.00  0.00    +0.000 A 
ATOM     24  C   UNL     1       2.516   4.782  20.233  0.00  0.00    +0.000 A 
ATOM     25  C   UNL     1       3.125   3.523  20.352  0.00  0.00    +0.000 A 
ATOM     26  C   UNL     1       4.372   3.273  19.784  0.00  0.00    +0.000 A 
ATOM     27  C   UNL     1       4.968   4.285  19.036  0.00  0.00    +0.000 A 
ATOM     28  C   UNL     1       4.372   5.547  18.932  0.00  0.00    +0.000 A 
BRANCH  26  29
ATOM     29  N   UNL     1       4.896   1.978  19.757  0.00  0.00    +0.000 N 
ATOM     30  H   UNL     1       5.664   1.832  20.406  0.00  0.00    +0.000 HD
ATOM     31  H   UNL     1       5.112   1.643  18.824  0.00  0.00    +0.000 HD
ENDBRANCH  26  29
ENDBRANCH  20  23
ENDBRANCH   1  17
TORSDOF 4
ENDMDL
MODEL 2
REMARK VINA RESULT:      -8.8      2.149      3.054
REMARK  Name = 
REMARK  5 active torsions:
REMARK  status: ('A' for Active; 'I' for Inactive)
REMARK    1  A    between atoms: C_1  and  C_2
REMARK    2  A    between atoms: C_12  and  N_13
REMARK    3  A    between atoms: N_13  and  C_14
REMARK    4  A    between atoms: C_17  and  C_18
REMARK    5  A    between atoms: C_21  and  N_22
REMARK                            x       y       z     vdW  Elec       q    Type
REMARK                         _______ _______ _______ _____ _____    ______ ____
ROOT
ATOM      1  N   UNL     1       0.850  10.913  19.360  0.00  0.00    +0.000 N 
ATOM      2  H   UNL     1       1.204  11.471  18.575  0.00  0.00    +0.000 HD
ENDROOT
BRANCH   1  14
ATOM      3  C   UNL     1      -5.545  13.393  23.255  0.00  0.00    +0.000 C 
ATOM      4  C   UNL     1      -4.174  13.009  22.791  0.00  0.00    +0.000 A 
ATOM      5  C   UNL     1      -3.072  13.010  23.640  0.00  0.00    +0.000 A 
ATOM      6  C   UNL     1      -1.825  12.632  23.129  0.00  0.00    +0.000 A 
ATOM      7  C   UNL     1      -1.717  12.258  21.788  0.00  0.00    +0.000 A 
ATOM      8  C   UNL     1      -2.858  12.277  21.018  0.00  0.00    +0.000 A 
ATOM      9  N   UNL     1      -4.074  12.652  21.495  0.00  0.00    +0.000 NA
ATOM     10  C   UNL     1      -2.830  11.865  19.607  0.00  0.00    +0.000 C 
ATOM     11  O   UNL     1      -3.818  12.010  18.890  0.00  0.00    +0.000 OA
ATOM     12  C   UNL     1      -1.566  11.279  19.082  0.00  0.00    +0.000 C 
ATOM     13 BR   UNL     1      -1.737  10.392  17.424  0.00  0.00    +0.000 Br
ATOM     14  C   UNL     1      -0.409  11.350  19.771  0.00  0.00    +0.000 C 
ATOM     15  C   UNL     1      -0.436  11.840  21.199  0.00  0.00    +0.000 C 
ATOM     16  O   UNL     1       0.591  11.852  21.873  0.00  0.00    +0.000 OA
ENDBRANCH   1  14
BRANCH   1  17
ATOM     17  C   UNL     1       1.283   9.570  19.240  0.00  0.00    +0.000 A 
ATOM     18  C   UNL     1       1.308   8.647  20.290  0.00  0.00    +0.000 A 
ATOM     19  C   UNL     1       1.836   7.357  20.116  0.00  0.00    +0.000 A 
ATOM     20  C   UNL     1       2.331   6.925  18.876  0.00  0.00    +0.000 A 
ATOM     21  C   UNL     1       2.285   7.858  17.826  0.00  0.00    +0.000 A 
ATOM     22  C   UNL     1       1.787   9.155  18.007  0.00  0.00    +0.000 A 
BRANCH  20  23
ATOM     23  C   UNL     1       2.850   5.550  18.660  0.00  0.00    +0.000 A 
ATOM     24  C   UNL     1       3.992   5.070  19.324  0.00  0.00    +0.000 A 
ATOM     25  C   UNL     1       4.425   3.744  19.174  0.00  0.00    +0.000 A 
ATOM     26  C   UNL     1       3.755   2.861  18.330  0.00  0.00    +0.000 A 
ATOM     27  C   UNL     1       2.603   3.311  17.692  0.00  0.00    +0.000 A 
ATOM     28  C   UNL     1       2.179   4.638  17.825  0.00  0.00    +0.000 A 
BRANCH  26  29
ATOM     29  N   UNL     1       4.083   1.503  18.314  0.00  0.00    +0.000 N 
ATOM     30  H   UNL     1       4.226   1.126  17.381  0.00  0.00    +0.000 HD
ATOM     31  H   UNL     1       3.463   0.925  18.872  0.00  0.00    +0.000 HD
ENDBRANCH  26  29
ENDBRANCH  20  23
ENDBRANCH   1  17
TORSDOF 4
ENDMDL
MODEL 3
REMARK VINA RESULT:      -8.6      2.153      3.249
REMARK  Name = 
REMARK  5 active torsions:
REMARK  status: ('A' for Active; 'I' for Inactive)
REMARK    1  A    between atoms: C_1  and  C_2
REMARK    2  A    between atoms: C_12  and  N_13
REMARK    3  A    between atoms: N_13  and  C_14
REMARK    4  A    between atoms: C_17  and  C_18
REMARK    5  A    between atoms: C_21  and  N_22
REMARK                            x       y       z     vdW  Elec       q    Type
REMARK                         _______ _______ _______ _____ _____    ______ ____
ROOT
ATOM      1  N   UNL     1       1.074  11.114  19.157  0.00  0.00    +0.000 N 
ATOM      2  H   UNL     1       1.363  11.674  18.347  0.00  0.00    +0.000 HD
ENDROOT
BRANCH   1  14
ATOM      3  C   UNL     1      -5.018  13.673  23.463  0.00  0.00    +0.000 C 
ATOM      4  C   UNL     1      -3.682  13.303  22.896  0.00  0.00    +0.000 A 
ATOM      5  C   UNL     1      -2.504  13.422  23.625  0.00  0.00    +0.000 A 
ATOM      6  C   UNL     1      -1.296  13.050  23.023  0.00  0.00    +0.000 A 
ATOM      7  C   UNL     1      -1.303  12.564  21.713  0.00  0.00    +0.000 A 
ATOM      8  C   UNL     1      -2.514  12.471  21.065  0.00  0.00    +0.000 A 
ATOM      9  N   UNL     1      -3.693  12.839  21.631  0.00  0.00    +0.000 NA
ATOM     10  C   UNL     1      -2.604  11.940  19.697  0.00  0.00    +0.000 C 
ATOM     11  O   UNL     1      -3.664  11.983  19.075  0.00  0.00    +0.000 OA
ATOM     12  C   UNL     1      -1.372  11.360  19.097  0.00  0.00    +0.000 C 
ATOM     13 BR   UNL     1      -1.662  10.325  17.544  0.00  0.00    +0.000 Br
ATOM     14  C   UNL     1      -0.157  11.536  19.656  0.00  0.00    +0.000 C 
ATOM     15  C   UNL     1      -0.067  12.148  21.034  0.00  0.00    +0.000 C 
ATOM     16  O   UNL     1       1.019  12.258  21.596  0.00  0.00    +0.000 OA
ENDBRANCH   1  14
BRANCH   1  17
ATOM     17  C   UNL     1       1.516   9.777  19.009  0.00  0.00    +0.000 A 
ATOM     18  C   UNL     1       2.001   9.229  17.817  0.00  0.00    +0.000 A 
ATOM     19  C   UNL     1       2.339   7.868  17.723  0.00  0.00    +0.000 A 
ATOM     20  C   UNL     1       2.236   7.006  18.826  0.00  0.00    +0.000 A 
ATOM     21  C   UNL     1       1.761   7.575  20.022  0.00  0.00    +0.000 A 
ATOM     22  C   UNL     1       1.397   8.925  20.107  0.00  0.00    +0.000 A 
BRANCH  20  23
ATOM     23  C   UNL     1       2.632   5.576  18.760  0.00  0.00    +0.000 A 
ATOM     24  C   UNL     1       2.052   4.683  17.841  0.00  0.00    +0.000 A 
ATOM     25  C   UNL     1       2.491   3.355  17.733  0.00  0.00    +0.000 A 
ATOM     26  C   UNL     1       3.498   2.863  18.559  0.00  0.00    +0.000 A 
ATOM     27  C   UNL     1       4.106   3.743  19.450  0.00  0.00    +0.000 A 
ATOM     28  C   UNL     1       3.657   5.063  19.574  0.00  0.00    +0.000 A 
BRANCH  26  29
ATOM     29  N   UNL     1       4.050   1.598  18.335  0.00  0.00    +0.000 N 
ATOM     30  H   UNL     1       5.055   1.557  18.481  0.00  0.00    +0.000 HD
ATOM     31  H   UNL     1       3.771   1.180  17.453  0.00  0.00    +0.000 HD
ENDBRANCH  26  29
ENDBRANCH  20  23
ENDBRANCH   1  17
TORSDOF 4
ENDMDL
MODEL 4
REMARK VINA RESULT:      -8.6      2.385      3.426
REMARK  Name = 
REMARK  5 active torsions:
REMARK  status: ('A' for Active; 'I' for Inactive)
REMARK    1  A    between atoms: C_1  and  C_2
REMARK    2  A    between atoms: C_12  and  N_13
REMARK    3  A    between atoms: N_13  and  C_14
REMARK    4  A    between atoms: C_17  and  C_18
REMARK    5  A    between atoms: C_21  and  N_22
REMARK                            x       y       z     vdW  Elec       q    Type
REMARK                         _______ _______ _______ _____ _____    ______ ____
ROOT
ATOM      1  N   UNL     1       0.171  11.816  20.144  0.00  0.00    +0.000 N 
ATOM      2  H   UNL     1       0.532  12.554  19.530  0.00  0.00    +0.000 HD
ENDROOT
BRANCH   1  14
ATOM      3  C   UNL     1      -6.701  12.894  23.862  0.00  0.00    +0.000 C 
ATOM      4  C   UNL     1      -5.270  12.716  23.459  0.00  0.00    +0.000 A 
ATOM      5  C   UNL     1      -4.245  12.578  24.389  0.00  0.00    +0.000 A 
ATOM      6  C   UNL     1      -2.934  12.411  23.929  0.00  0.00    +0.000 A 
ATOM      7  C   UNL     1      -2.687  12.378  22.554  0.00  0.00    +0.000 A 
ATOM      8  C   UNL     1      -3.759  12.514  21.702  0.00  0.00    +0.000 A 
ATOM      9  N   UNL     1      -5.036  12.690  22.132  0.00  0.00    +0.000 NA
ATOM     10  C   UNL     1      -3.582  12.459  20.243  0.00  0.00    +0.000 C 
ATOM     11  O   UNL     1      -4.517  12.713  19.487  0.00  0.00    +0.000 OA
ATOM     12  C   UNL     1      -2.236  12.094  19.723  0.00  0.00    +0.000 C 
ATOM     13 BR   UNL     1      -2.198  11.625  17.894  0.00  0.00    +0.000 Br
ATOM     14  C   UNL     1      -1.148  12.065  20.520  0.00  0.00    +0.000 C 
ATOM     15  C   UNL     1      -1.332  12.193  22.014  0.00  0.00    +0.000 C 
ATOM     16  O   UNL     1      -0.368  12.103  22.769  0.00  0.00    +0.000 OA
ENDBRANCH   1  14
BRANCH   1  17
ATOM     17  C   UNL     1       0.729  10.565  19.785  0.00  0.00    +0.000 A 
ATOM     18  C   UNL     1       0.847   9.472  20.649  0.00  0.00    +0.000 A 
ATOM     19  C   UNL     1       1.493   8.291  20.248  0.00  0.00    +0.000 A 
ATOM     20  C   UNL     1       2.020   8.142  18.955  0.00  0.00    +0.000 A 
ATOM     21  C   UNL     1       1.880   9.244  18.093  0.00  0.00    +0.000 A 
ATOM     22  C   UNL     1       1.262  10.433  18.503  0.00  0.00    +0.000 A 
BRANCH  20  23
ATOM     23  C   UNL     1       2.665   6.885  18.498  0.00  0.00    +0.000 A 
ATOM     24  C   UNL     1       3.724   6.883  17.573  0.00  0.00    +0.000 A 
ATOM     25  C   UNL     1       4.379   5.696  17.210  0.00  0.00    +0.000 A 
ATOM     26  C   UNL     1       3.977   4.467  17.730  0.00  0.00    +0.000 A 
ATOM     27  C   UNL     1       2.953   4.456  18.672  0.00  0.00    +0.000 A 
ATOM     28  C   UNL     1       2.286   5.636  19.022  0.00  0.00    +0.000 A 
BRANCH  26  29
ATOM     29  N   UNL     1       4.735   3.315  17.502  0.00  0.00    +0.000 N 
ATOM     30  H   UNL     1       5.273   3.341  16.640  0.00  0.00    +0.000 HD
ATOM     31  H   UNL     1       4.210   2.453  17.603  0.00  0.00    +0.000 HD
ENDBRANCH  26  29
ENDBRANCH  20  23
ENDBRANCH   1  17
TORSDOF 4
ENDMDL
MODEL 5
REMARK VINA RESULT:      -8.6      0.497      1.030
REMARK  Name = 
REMARK  5 active torsions:
REMARK  status: ('A' for Active; 'I' for Inactive)
REMARK    1  A    between atoms: C_1  and  C_2
REMARK    2  A    between atoms: C_12  and  N_13
REMARK    3  A    between atoms: N_13  and  C_14
REMARK    4  A    between atoms: C_17  and  C_18
REMARK    5  A    between atoms: C_21  and  N_22
REMARK                            x       y       z     vdW  Elec       q    Type
REMARK                         _______ _______ _______ _____ _____    ______ ____
ROOT
ATOM      1  N   UNL     1       0.315  11.241  18.887  0.00  0.00    +0.000 N 
ATOM      2  H   UNL     1       0.595  11.666  17.996  0.00  0.00    +0.000 HD
ENDROOT
BRANCH   1  14
ATOM      3  C   UNL     1      -7.371  12.975  19.247  0.00  0.00    +0.000 C 
ATOM      4  C   UNL     1      -5.995  12.498  18.896  0.00  0.00    +0.000 A 
ATOM      5  C   UNL     1      -5.698  11.913  17.670  0.00  0.00    +0.000 A 
ATOM      6  C   UNL     1      -4.385  11.499  17.419  0.00  0.00    +0.000 A 
ATOM      7  C   UNL     1      -3.407  11.688  18.398  0.00  0.00    +0.000 A 
ATOM      8  C   UNL     1      -3.783  12.281  19.581  0.00  0.00    +0.000 A 
ATOM      9  N   UNL     1      -5.055  12.678  19.846  0.00  0.00    +0.000 NA
ATOM     10  C   UNL     1      -2.802  12.541  20.646  0.00  0.00    +0.000 C 
ATOM     11  O   UNL     1      -3.165  12.946  21.748  0.00  0.00    +0.000 OA
ATOM     12  C   UNL     1      -1.368  12.289  20.343  0.00  0.00    +0.000 C 
ATOM     13 BR   UNL     1      -0.155  13.042  21.578  0.00  0.00    +0.000 Br
ATOM     14  C   UNL     1      -0.982  11.608  19.244  0.00  0.00    +0.000 C 
ATOM     15  C   UNL     1      -2.009  11.283  18.186  0.00  0.00    +0.000 C 
ATOM     16  O   UNL     1      -1.675  10.725  17.144  0.00  0.00    +0.000 OA
ENDBRANCH   1  14
BRANCH   1  17
ATOM     17  C   UNL     1       0.902   9.959  19.022  0.00  0.00    +0.000 A 
ATOM     18  C   UNL     1       0.928   9.219  20.208  0.00  0.00    +0.000 A 
ATOM     19  C   UNL     1       1.607   7.992  20.289  0.00  0.00    +0.000 A 
ATOM     20  C   UNL     1       2.260   7.437  19.176  0.00  0.00    +0.000 A 
ATOM     21  C   UNL     1       2.212   8.185  17.987  0.00  0.00    +0.000 A 
ATOM     22  C   UNL     1       1.561   9.423  17.915  0.00  0.00    +0.000 A 
BRANCH  20  23
ATOM     23  C   UNL     1       2.943   6.119  19.229  0.00  0.00    +0.000 A 
ATOM     24  C   UNL     1       4.151   5.877  18.551  0.00  0.00    +0.000 A 
ATOM     25  C   UNL     1       4.828   4.654  18.674  0.00  0.00    +0.000 A 
ATOM     26  C   UNL     1       4.307   3.620  19.448  0.00  0.00    +0.000 A 
ATOM     27  C   UNL     1       3.130   3.856  20.152  0.00  0.00    +0.000 A 
ATOM     28  C   UNL     1       2.443   5.068  20.017  0.00  0.00    +0.000 A 
BRANCH  26  29
ATOM     29  N   UNL     1       5.063   2.473  19.706  0.00  0.00    +0.000 N 
ATOM     30  H   UNL     1       6.046   2.659  19.880  0.00  0.00    +0.000 HD
ATOM     31  H   UNL     1       4.925   1.731  19.027  0.00  0.00    +0.000 HD
ENDBRANCH  26  29
ENDBRANCH  20  23
ENDBRANCH   1  17
TORSDOF 4
ENDMDL
MODEL 6
REMARK VINA RESULT:      -8.5      2.199      3.081
REMARK  Name = 
REMARK  5 active torsions:
REMARK  status: ('A' for Active; 'I' for Inactive)
REMARK    1  A    between atoms: C_1  and  C_2
REMARK    2  A    between atoms: C_12  and  N_13
REMARK    3  A    between atoms: N_13  and  C_14
REMARK    4  A    between atoms: C_17  and  C_18
REMARK    5  A    between atoms: C_21  and  N_22
REMARK                            x       y       z     vdW  Elec       q    Type
REMARK                         _______ _______ _______ _____ _____    ______ ____
ROOT
ATOM      1  N   UNL     1       0.283  11.625  19.528  0.00  0.00    +0.000 N 
ATOM      2  H   UNL     1       0.549  12.212  18.729  0.00  0.00    +0.000 HD
ENDROOT
BRANCH   1  14
ATOM      3  C   UNL     1      -6.230  13.245  23.671  0.00  0.00    +0.000 C 
ATOM      4  C   UNL     1      -4.840  13.002  23.168  0.00  0.00    +0.000 A 
ATOM      5  C   UNL     1      -3.736  12.978  24.013  0.00  0.00    +0.000 A 
ATOM      6  C   UNL     1      -2.471  12.739  23.464  0.00  0.00    +0.000 A 
ATOM      7  C   UNL     1      -2.348  12.525  22.089  0.00  0.00    +0.000 A 
ATOM      8  C   UNL     1      -3.492  12.558  21.325  0.00  0.00    +0.000 A 
ATOM      9  N   UNL     1      -4.726  12.800  21.841  0.00  0.00    +0.000 NA
ATOM     10  C   UNL     1      -3.447  12.310  19.876  0.00  0.00    +0.000 C 
ATOM     11  O   UNL     1      -4.447  12.472  19.180  0.00  0.00    +0.000 OA
ATOM     12  C   UNL     1      -2.153  11.867  19.291  0.00  0.00    +0.000 C 
ATOM     13 BR   UNL     1      -2.278  11.163  17.543  0.00  0.00    +0.000 Br
ATOM     14  C   UNL     1      -0.997  11.934  19.984  0.00  0.00    +0.000 C 
ATOM     15  C   UNL     1      -1.046  12.258  21.458  0.00  0.00    +0.000 C 
ATOM     16  O   UNL     1      -0.019  12.259  22.130  0.00  0.00    +0.000 OA
ENDBRANCH   1  14
BRANCH   1  17
ATOM     17  C   UNL     1       0.848  10.334  19.394  0.00  0.00    +0.000 A 
ATOM     18  C   UNL     1       0.918   9.388  20.422  0.00  0.00    +0.000 A 
ATOM     19  C   UNL     1       1.574   8.159  20.240  0.00  0.00    +0.000 A 
ATOM     20  C   UNL     1       2.158   7.811  19.012  0.00  0.00    +0.000 A 
ATOM     21  C   UNL     1       2.066   8.765  17.984  0.00  0.00    +0.000 A 
ATOM     22  C   UNL     1       1.439  10.003  18.174  0.00  0.00    +0.000 A 
BRANCH  20  23
ATOM     23  C   UNL     1       2.814   6.497  18.786  0.00  0.00    +0.000 A 
ATOM     24  C   UNL     1       2.566   5.387  19.612  0.00  0.00    +0.000 A 
ATOM     25  C   UNL     1       3.128   4.130  19.340  0.00  0.00    +0.000 A 
ATOM     26  C   UNL     1       3.986   3.947  18.257  0.00  0.00    +0.000 A 
ATOM     27  C   UNL     1       4.215   5.028  17.411  0.00  0.00    +0.000 A 
ATOM     28  C   UNL     1       3.670   6.287  17.690  0.00  0.00    +0.000 A 
BRANCH  26  29
ATOM     29  N   UNL     1       4.406   2.666  17.890  0.00  0.00    +0.000 N 
ATOM     30  H   UNL     1       5.357   2.448  18.176  0.00  0.00    +0.000 HD
ATOM     31  H   UNL     1       4.237   2.443  16.915  0.00  0.00    +0.000 HD
ENDBRANCH  26  29
ENDBRANCH  20  23
ENDBRANCH   1  17
TORSDOF 4
ENDMDL
MODEL 7
REMARK VINA RESULT:      -8.4      2.255      3.396
REMARK  Name = 
REMARK  5 active torsions:
REMARK  status: ('A' for Active; 'I' for Inactive)
REMARK    1  A    between atoms: C_1  and  C_2
REMARK    2  A    between atoms: C_12  and  N_13
REMARK    3  A    between atoms: N_13  and  C_14
REMARK    4  A    between atoms: C_17  and  C_18
REMARK    5  A    between atoms: C_21  and  N_22
REMARK                            x       y       z     vdW  Elec       q    Type
REMARK                         _______ _______ _______ _____ _____    ______ ____
ROOT
ATOM      1  N   UNL     1       0.136  11.972  19.877  0.00  0.00    +0.000 N 
ATOM      2  H   UNL     1       0.418  12.666  19.176  0.00  0.00    +0.000 HD
ENDROOT
BRANCH   1  14
ATOM      3  C   UNL     1      -6.681  12.867  23.741  0.00  0.00    +0.000 C 
ATOM      4  C   UNL     1      -5.253  12.756  23.303  0.00  0.00    +0.000 A 
ATOM      5  C   UNL     1      -4.194  12.764  24.204  0.00  0.00    +0.000 A 
ATOM      6  C   UNL     1      -2.889  12.651  23.712  0.00  0.00    +0.000 A 
ATOM      7  C   UNL     1      -2.681  12.526  22.336  0.00  0.00    +0.000 A 
ATOM      8  C   UNL     1      -3.785  12.520  21.514  0.00  0.00    +0.000 A 
ATOM      9  N   UNL     1      -5.058  12.640  21.974  0.00  0.00    +0.000 NA
ATOM     10  C   UNL     1      -3.648  12.360  20.059  0.00  0.00    +0.000 C 
ATOM     11  O   UNL     1      -4.621  12.488  19.319  0.00  0.00    +0.000 OA
ATOM     12  C   UNL     1      -2.296  12.048  19.521  0.00  0.00    +0.000 C 
ATOM     13 BR   UNL     1      -2.279  11.438  17.734  0.00  0.00    +0.000 Br
ATOM     14  C   UNL     1      -1.186  12.159  20.279  0.00  0.00    +0.000 C 
ATOM     15  C   UNL     1      -1.333  12.392  21.764  0.00  0.00    +0.000 C 
ATOM     16  O   UNL     1      -0.343  12.429  22.490  0.00  0.00    +0.000 OA
ENDBRANCH   1  14
BRANCH   1  17
ATOM     17  C   UNL     1       0.780  10.736  19.626  0.00  0.00    +0.000 A 
ATOM     18  C   UNL     1       1.368  10.381  18.408  0.00  0.00    +0.000 A 
ATOM     19  C   UNL     1       1.910   9.101  18.204  0.00  0.00    +0.000 A 
ATOM     20  C   UNL     1       1.916   8.133  19.221  0.00  0.00    +0.000 A 
ATOM     21  C   UNL     1       1.335   8.510  20.445  0.00  0.00    +0.000 A 
ATOM     22  C   UNL     1       0.767   9.776  20.638  0.00  0.00    +0.000 A 
BRANCH  20  23
ATOM     23  C   UNL     1       2.526   6.791  19.040  0.00  0.00    +0.000 A 
ATOM     24  C   UNL     1       3.333   6.481  17.931  0.00  0.00    +0.000 A 
ATOM     25  C   UNL     1       3.970   5.236  17.813  0.00  0.00    +0.000 A 
ATOM     26  C   UNL     1       3.796   4.246  18.778  0.00  0.00    +0.000 A 
ATOM     27  C   UNL     1       3.028   4.549  19.898  0.00  0.00    +0.000 A 
ATOM     28  C   UNL     1       2.376   5.783  20.010  0.00  0.00    +0.000 A 
BRANCH  26  29
ATOM     29  N   UNL     1       4.562   3.078  18.746  0.00  0.00    +0.000 N 
ATOM     30  H   UNL     1       5.339   3.079  19.400  0.00  0.00    +0.000 HD
ATOM     31  H   UNL     1       4.843   2.798  17.812  0.00  0.00    +0.000 HD
ENDBRANCH  26  29
ENDBRANCH  20  23
ENDBRANCH   1  17
TORSDOF 4
ENDMDL
MODEL 8
REMARK VINA RESULT:      -8.3      1.765      2.693
REMARK  Name = 
REMARK  5 active torsions:
REMARK  status: ('A' for Active; 'I' for Inactive)
REMARK    1  A    between atoms: C_1  and  C_2
REMARK    2  A    between atoms: C_12  and  N_13
REMARK    3  A    between atoms: N_13  and  C_14
REMARK    4  A    between atoms: C_17  and  C_18
REMARK    5  A    between atoms: C_21  and  N_22
REMARK                            x       y       z     vdW  Elec       q    Type
REMARK                         _______ _______ _______ _____ _____    ______ ____
ROOT
ATOM      1  N   UNL     1       0.238  11.507  18.810  0.00  0.00    +0.000 N 
ATOM      2  H   UNL     1       0.551  12.048  17.996  0.00  0.00    +0.000 HD
ENDROOT
BRANCH   1  14
ATOM      3  C   UNL     1      -6.877  13.081  21.829  0.00  0.00    +0.000 C 
ATOM      4  C   UNL     1      -5.418  12.948  21.518  0.00  0.00    +0.000 A 
ATOM      5  C   UNL     1      -4.427  13.347  22.409  0.00  0.00    +0.000 A 
ATOM      6  C   UNL     1      -3.086  13.184  22.044  0.00  0.00    +0.000 A 
ATOM      7  C   UNL     1      -2.775  12.621  20.804  0.00  0.00    +0.000 A 
ATOM      8  C   UNL     1      -3.816  12.246  19.986  0.00  0.00    +0.000 A 
ATOM      9  N   UNL     1      -5.123  12.408  20.319  0.00  0.00    +0.000 NA
ATOM     10  C   UNL     1      -3.567  11.618  18.679  0.00  0.00    +0.000 C 
ATOM     11  O   UNL     1      -4.492  11.408  17.898  0.00  0.00    +0.000 OA
ATOM     12  C   UNL     1      -2.164  11.256  18.341  0.00  0.00    +0.000 C 
ATOM     13 BR   UNL     1      -1.983  10.084  16.872  0.00  0.00    +0.000 Br
ATOM     14  C   UNL     1      -1.118  11.708  19.065  0.00  0.00    +0.000 C 
ATOM     15  C   UNL     1      -1.384  12.415  20.372  0.00  0.00    +0.000 C 
ATOM     16  O   UNL     1      -0.452  12.777  21.085  0.00  0.00    +0.000 OA
ENDBRANCH   1  14
BRANCH   1  17
ATOM     17  C   UNL     1       0.942  10.281  18.883  0.00  0.00    +0.000 A 
ATOM     18  C   UNL     1       1.656   9.712  17.823  0.00  0.00    +0.000 A 
ATOM     19  C   UNL     1       2.256   8.447  17.943  0.00  0.00    +0.000 A 
ATOM     20  C   UNL     1       2.196   7.714  19.138  0.00  0.00    +0.000 A 
ATOM     21  C   UNL     1       1.488   8.306  20.199  0.00  0.00    +0.000 A 
ATOM     22  C   UNL     1       0.864   9.553  20.070  0.00  0.00    +0.000 A 
BRANCH  20  23
ATOM     23  C   UNL     1       2.864   6.397  19.300  0.00  0.00    +0.000 A 
ATOM     24  C   UNL     1       2.356   5.402  20.154  0.00  0.00    +0.000 A 
ATOM     25  C   UNL     1       2.950   4.133  20.236  0.00  0.00    +0.000 A 
ATOM     26  C   UNL     1       4.090   3.825  19.497  0.00  0.00    +0.000 A 
ATOM     27  C   UNL     1       4.585   4.787  18.621  0.00  0.00    +0.000 A 
ATOM     28  C   UNL     1       4.006   6.060  18.551  0.00  0.00    +0.000 A 
BRANCH  26  29
ATOM     29  N   UNL     1       4.576   2.516  19.449  0.00  0.00    +0.000 N 
ATOM     30  H   UNL     1       5.581   2.456  19.311  0.00  0.00    +0.000 HD
ATOM     31  H   UNL     1       4.063   1.911  18.816  0.00  0.00    +0.000 HD
ENDBRANCH  26  29
ENDBRANCH  20  23
ENDBRANCH   1  17
TORSDOF 4
ENDMDL
MODEL 9
REMARK VINA RESULT:      -8.2      2.493      3.558
REMARK  Name = 
REMARK  5 active torsions:
REMARK  status: ('A' for Active; 'I' for Inactive)
REMARK    1  A    between atoms: C_1  and  C_2
REMARK    2  A    between atoms: C_12  and  N_13
REMARK    3  A    between atoms: N_13  and  C_14
REMARK    4  A    between atoms: C_17  and  C_18
REMARK    5  A    between atoms: C_21  and  N_22
REMARK                            x       y       z     vdW  Elec       q    Type
REMARK                         _______ _______ _______ _____ _____    ______ ____
ROOT
ATOM      1  N   UNL     1      -0.158  12.030  20.896  0.00  0.00    +0.000 N 
ATOM      2  H   UNL     1       0.268  12.801  20.370  0.00  0.00    +0.000 HD
ENDROOT
BRANCH   1  14
ATOM      3  C   UNL     1      -7.480  12.898  23.698  0.00  0.00    +0.000 C 
ATOM      4  C   UNL     1      -6.004  12.759  23.483  0.00  0.00    +0.000 A 
ATOM      5  C   UNL     1      -5.106  12.632  24.537  0.00  0.00    +0.000 A 
ATOM      6  C   UNL     1      -3.742  12.501  24.250  0.00  0.00    +0.000 A 
ATOM      7  C   UNL     1      -3.318  12.493  22.919  0.00  0.00    +0.000 A 
ATOM      8  C   UNL     1      -4.273  12.616  21.936  0.00  0.00    +0.000 A 
ATOM      9  N   UNL     1      -5.599  12.756  22.198  0.00  0.00    +0.000 NA
ATOM     10  C   UNL     1      -3.907  12.585  20.512  0.00  0.00    +0.000 C 
ATOM     11  O   UNL     1      -4.742  12.827  19.644  0.00  0.00    +0.000 OA
ATOM     12  C   UNL     1      -2.497  12.257  20.168  0.00  0.00    +0.000 C 
ATOM     13 BR   UNL     1      -2.209  11.815  18.355  0.00  0.00    +0.000 Br
ATOM     14  C   UNL     1      -1.521  12.244  21.100  0.00  0.00    +0.000 C 
ATOM     15  C   UNL     1      -1.900  12.347  22.558  0.00  0.00    +0.000 C 
ATOM     16  O   UNL     1      -1.041  12.269  23.432  0.00  0.00    +0.000 OA
ENDBRANCH   1  14
BRANCH   1  17
ATOM     17  C   UNL     1       0.468  10.805  20.562  0.00  0.00    +0.000 A 
ATOM     18  C   UNL     1       0.951  10.482  19.290  0.00  0.00    +0.000 A 
ATOM     19  C   UNL     1       1.481   9.211  19.011  0.00  0.00    +0.000 A 
ATOM     20  C   UNL     1       1.579   8.221  20.002  0.00  0.00    +0.000 A 
ATOM     21  C   UNL     1       1.104   8.565  21.279  0.00  0.00    +0.000 A 
ATOM     22  C   UNL     1       0.548   9.823  21.550  0.00  0.00    +0.000 A 
BRANCH  20  23
ATOM     23  C   UNL     1       2.179   6.888  19.739  0.00  0.00    +0.000 A 
ATOM     24  C   UNL     1       1.916   5.776  20.558  0.00  0.00    +0.000 A 
ATOM     25  C   UNL     1       2.423   4.503  20.253  0.00  0.00    +0.000 A 
ATOM     26  C   UNL     1       3.237   4.303  19.141  0.00  0.00    +0.000 A 
ATOM     27  C   UNL     1       3.480   5.386  18.301  0.00  0.00    +0.000 A 
ATOM     28  C   UNL     1       2.991   6.660  18.613  0.00  0.00    +0.000 A 
BRANCH  26  29
ATOM     29  N   UNL     1       3.598   3.012  18.745  0.00  0.00    +0.000 N 
ATOM     30  H   UNL     1       4.550   2.758  18.992  0.00  0.00    +0.000 HD
ATOM     31  H   UNL     1       3.384   2.807  17.775  0.00  0.00    +0.000 HD
ENDBRANCH  26  29
ENDBRANCH  20  23
ENDBRANCH   1  17
TORSDOF 4
ENDMDL
