MODEL 1
REMARK VINA RESULT:      -8.1      0.000      0.000
REMARK  Name = 
REMARK  8 active torsions:
REMARK  status: ('A' for Active; 'I' for Inactive)
REMARK    1  A    between atoms: C_1  and  C_2
REMARK    2  A    between atoms: C_2  and  N_3
REMARK    3  A    between atoms: N_6  and  C_7
REMARK    4  A    between atoms: C_7  and  C_8
REMARK    5  A    between atoms: C_12  and  O_13
REMARK    6  A    between atoms: O_13  and  C_14
REMARK    7  A    between atoms: N_21  and  C_22
REMARK    8  A    between atoms: C_22  and  C_23
REMARK                            x       y       z     vdW  Elec       q    Type
REMARK                         _______ _______ _______ _____ _____    ______ ____
ROOT
ATOM      1  N   UNL     1      -0.492  11.177  21.203  0.00  0.00    +0.000 N 
ATOM      2  C   UNL     1      -1.692  11.877  21.253  0.00  0.00    +0.000 C 
ATOM      3  O   UNL     1      -2.333  12.149  22.259  0.00  0.00    +0.000 OA
ATOM      4  N   UNL     1      -2.014  12.281  19.983  0.00  0.00    +0.000 N 
ATOM      5  C   UNL     1      -0.943  12.074  19.167  0.00  0.00    +0.000 C 
ATOM      6  O   UNL     1      -0.785  12.588  18.068  0.00  0.00    +0.000 OA
ATOM      7  C   UNL     1      -0.022  11.038  19.815  0.00  0.00    +0.000 C 
ATOM      8  C   UNL     1       1.456  11.387  19.599  0.00  0.00    +0.000 C 
ATOM      9  C   UNL     1       1.917  11.009  18.180  0.00  0.00    +0.000 C 
ATOM     10  N   UNL     1       1.579   9.619  17.788  0.00  0.00    +0.000 NA
ATOM     11  C   UNL     1       0.134   9.426  17.863  0.00  0.00    +0.000 C 
ATOM     12  C   UNL     1      -0.435   9.668  19.260  0.00  0.00    +0.000 C 
ENDROOT
BRANCH   1  14
ATOM     13  C   UNL     1      -0.240   9.526  23.125  0.00  0.00    +0.000 C 
ATOM     14  C   UNL     1       0.292  10.700  22.339  0.00  0.00    +0.000 C 
ENDBRANCH   1  14
BRANCH   4  15
ATOM     15  C   UNL     1      -3.146  13.099  19.617  0.00  0.00    +0.000 C 
BRANCH  15  16
ATOM     16  C   UNL     1      -4.419  12.294  19.476  0.00  0.00    +0.000 A 
ATOM     17  C   UNL     1      -4.701  11.661  18.257  0.00  0.00    +0.000 A 
ATOM     18  C   UNL     1      -5.832  10.859  18.122  0.00  0.00    +0.000 A 
ATOM     19  C   UNL     1      -6.697  10.690  19.199  0.00  0.00    +0.000 A 
ATOM     20  C   UNL     1      -6.456  11.336  20.415  0.00  0.00    +0.000 A 
ATOM     21  C   UNL     1      -5.320  12.144  20.551  0.00  0.00    +0.000 A 
BRANCH  20  22
ATOM     22  O   UNL     1      -7.403  11.083  21.368  0.00  0.00    +0.000 OA
ATOM     23  C   UNL     1      -7.916  12.184  22.102  0.00  0.00    +0.000 C 
ENDBRANCH  20  22
ENDBRANCH  15  16
ENDBRANCH   4  15
BRANCH  10  24
ATOM     24  C   UNL     1       2.336   8.680  18.620  0.00  0.00    +0.000 C 
BRANCH  24  25
ATOM     25  C   UNL     1       1.974   7.201  18.676  0.00  0.00    +0.000 A 
ATOM     26  C   UNL     1       1.907   6.695  19.991  0.00  0.00    +0.000 A 
ATOM     27  C   UNL     1       2.657   5.571  20.292  0.00  0.00    +0.000 A 
ATOM     28  C   UNL     1       3.218   4.906  19.224  0.00  0.00    +0.000 A 
ATOM     29  C   UNL     1       2.593   5.003  17.972  0.00  0.00    +0.000 A 
ATOM     30  C   UNL     1       2.199   6.293  17.628  0.00  0.00    +0.000 A 
ATOM     31  C   UNL     1       3.260   3.967  17.081  0.00  0.00    +0.000 C 
ATOM     32  C   UNL     1       4.682   4.174  17.543  0.00  0.00    +0.000 A 
ATOM     33  C   UNL     1       5.784   4.228  16.706  0.00  0.00    +0.000 A 
ATOM     34  C   UNL     1       6.878   4.962  17.143  0.00  0.00    +0.000 A 
ATOM     35  C   UNL     1       6.861   5.581  18.408  0.00  0.00    +0.000 A 
ATOM     36  C   UNL     1       5.759   5.453  19.280  0.00  0.00    +0.000 A 
ATOM     37  C   UNL     1       4.650   4.724  18.857  0.00  0.00    +0.000 A 
ENDBRANCH  24  25
ENDBRANCH  10  24
TORSDOF 6
ENDMDL
MODEL 2
REMARK VINA RESULT:      -7.8      1.824      3.085
REMARK  Name = 
REMARK  8 active torsions:
REMARK  status: ('A' for Active; 'I' for Inactive)
REMARK    1  A    between atoms: C_1  and  C_2
REMARK    2  A    between atoms: C_2  and  N_3
REMARK    3  A    between atoms: N_6  and  C_7
REMARK    4  A    between atoms: C_7  and  C_8
REMARK    5  A    between atoms: C_12  and  O_13
REMARK    6  A    between atoms: O_13  and  C_14
REMARK    7  A    between atoms: N_21  and  C_22
REMARK    8  A    between atoms: C_22  and  C_23
REMARK                            x       y       z     vdW  Elec       q    Type
REMARK                         _______ _______ _______ _____ _____    ______ ____
ROOT
ATOM      1  N   UNL     1      -0.897  11.269  19.754  0.00  0.00    +0.000 N 
ATOM      2  C   UNL     1      -1.411  12.412  20.356  0.00  0.00    +0.000 C 
ATOM      3  O   UNL     1      -1.915  13.369  19.785  0.00  0.00    +0.000 OA
ATOM      4  N   UNL     1      -1.325  12.265  21.716  0.00  0.00    +0.000 N 
ATOM      5  C   UNL     1      -1.002  10.973  22.003  0.00  0.00    +0.000 C 
ATOM      6  O   UNL     1      -1.138  10.438  23.094  0.00  0.00    +0.000 OA
ATOM      7  C   UNL     1      -0.369  10.337  20.763  0.00  0.00    +0.000 C 
ATOM      8  C   UNL     1      -0.817   8.880  20.589  0.00  0.00    +0.000 C 
ATOM      9  C   UNL     1      -0.053   7.943  21.543  0.00  0.00    +0.000 C 
ATOM     10  N   UNL     1       1.419   8.113  21.501  0.00  0.00    +0.000 NA
ATOM     11  C   UNL     1       1.764   9.490  21.844  0.00  0.00    +0.000 C 
ATOM     12  C   UNL     1       1.149  10.519  20.896  0.00  0.00    +0.000 C 
ENDROOT
BRANCH   1  14
ATOM     13  C   UNL     1      -2.249  10.514  17.733  0.00  0.00    +0.000 C 
ATOM     14  C   UNL     1      -0.930  10.937  18.333  0.00  0.00    +0.000 C 
ENDBRANCH   1  14
BRANCH   4  15
ATOM     15  C   UNL     1      -1.820  13.197  22.701  0.00  0.00    +0.000 C 
BRANCH  15  16
ATOM     16  C   UNL     1      -3.277  12.963  23.036  0.00  0.00    +0.000 A 
ATOM     17  C   UNL     1      -3.627  12.549  24.329  0.00  0.00    +0.000 A 
ATOM     18  C   UNL     1      -4.965  12.392  24.682  0.00  0.00    +0.000 A 
ATOM     19  C   UNL     1      -5.965  12.637  23.746  0.00  0.00    +0.000 A 
ATOM     20  C   UNL     1      -5.642  13.019  22.441  0.00  0.00    +0.000 A 
ATOM     21  C   UNL     1      -4.297  13.176  22.085  0.00  0.00    +0.000 A 
BRANCH  20  22
ATOM     22  O   UNL     1      -6.731  13.206  21.637  0.00  0.00    +0.000 OA
ATOM     23  C   UNL     1      -7.320  12.061  21.039  0.00  0.00    +0.000 C 
ENDBRANCH  20  22
ENDBRANCH  15  16
ENDBRANCH   4  15
BRANCH  10  24
ATOM     24  C   UNL     1       1.922   7.696  20.189  0.00  0.00    +0.000 C 
BRANCH  24  25
ATOM     25  C   UNL     1       1.825   6.247  19.727  0.00  0.00    +0.000 A 
ATOM     26  C   UNL     1       2.036   5.318  20.767  0.00  0.00    +0.000 A 
ATOM     27  C   UNL     1       3.000   4.342  20.578  0.00  0.00    +0.000 A 
ATOM     28  C   UNL     1       3.503   4.218  19.302  0.00  0.00    +0.000 A 
ATOM     29  C   UNL     1       2.694   4.607  18.223  0.00  0.00    +0.000 A 
ATOM     30  C   UNL     1       2.043   5.823  18.406  0.00  0.00    +0.000 A 
ATOM     31  C   UNL     1       3.389   4.104  16.968  0.00  0.00    +0.000 C 
ATOM     32  C   UNL     1       4.808   4.431  17.364  0.00  0.00    +0.000 A 
ATOM     33  C   UNL     1       5.752   4.999  16.524  0.00  0.00    +0.000 A 
ATOM     34  C   UNL     1       6.758   5.750  17.115  0.00  0.00    +0.000 A 
ATOM     35  C   UNL     1       6.822   5.877  18.515  0.00  0.00    +0.000 A 
ATOM     36  C   UNL     1       5.896   5.230  19.361  0.00  0.00    +0.000 A 
ATOM     37  C   UNL     1       4.876   4.476  18.786  0.00  0.00    +0.000 A 
ENDBRANCH  24  25
ENDBRANCH  10  24
TORSDOF 6
ENDMDL
MODEL 3
REMARK VINA RESULT:      -7.7      2.095      3.271
REMARK  Name = 
REMARK  8 active torsions:
REMARK  status: ('A' for Active; 'I' for Inactive)
REMARK    1  A    between atoms: C_1  and  C_2
REMARK    2  A    between atoms: C_2  and  N_3
REMARK    3  A    between atoms: N_6  and  C_7
REMARK    4  A    between atoms: C_7  and  C_8
REMARK    5  A    between atoms: C_12  and  O_13
REMARK    6  A    between atoms: O_13  and  C_14
REMARK    7  A    between atoms: N_21  and  C_22
REMARK    8  A    between atoms: C_22  and  C_23
REMARK                            x       y       z     vdW  Elec       q    Type
REMARK                         _______ _______ _______ _____ _____    ______ ____
ROOT
ATOM      1  N   UNL     1      -0.641  11.647  20.161  0.00  0.00    +0.000 N 
ATOM      2  C   UNL     1      -0.987  12.788  20.877  0.00  0.00    +0.000 C 
ATOM      3  O   UNL     1      -1.417  13.834  20.412  0.00  0.00    +0.000 OA
ATOM      4  N   UNL     1      -0.832  12.527  22.214  0.00  0.00    +0.000 N 
ATOM      5  C   UNL     1      -0.635  11.191  22.385  0.00  0.00    +0.000 C 
ATOM      6  O   UNL     1      -0.760  10.590  23.443  0.00  0.00    +0.000 OA
ATOM      7  C   UNL     1      -0.156  10.589  21.062  0.00  0.00    +0.000 C 
ATOM      8  C   UNL     1      -0.771   9.205  20.818  0.00  0.00    +0.000 C 
ATOM      9  C   UNL     1      -0.056   8.123  21.647  0.00  0.00    +0.000 C 
ATOM     10  N   UNL     1       1.421   8.140  21.513  0.00  0.00    +0.000 NA
ATOM     11  C   UNL     1       1.936   9.442  21.926  0.00  0.00    +0.000 C 
ATOM     12  C   UNL     1       1.379  10.600  21.100  0.00  0.00    +0.000 C 
ENDROOT
BRANCH   1  14
ATOM     13  C   UNL     1      -2.198  11.273  18.182  0.00  0.00    +0.000 C 
ATOM     14  C   UNL     1      -0.799  11.432  18.726  0.00  0.00    +0.000 C 
ENDBRANCH   1  14
BRANCH   4  15
ATOM     15  C   UNL     1      -1.159  13.427  23.294  0.00  0.00    +0.000 C 
BRANCH  15  16
ATOM     16  C   UNL     1      -2.647  13.675  23.409  0.00  0.00    +0.000 A 
ATOM     17  C   UNL     1      -3.162  14.937  23.081  0.00  0.00    +0.000 A 
ATOM     18  C   UNL     1      -4.534  15.171  23.113  0.00  0.00    +0.000 A 
ATOM     19  C   UNL     1      -5.405  14.150  23.483  0.00  0.00    +0.000 A 
ATOM     20  C   UNL     1      -4.916  12.892  23.846  0.00  0.00    +0.000 A 
ATOM     21  C   UNL     1      -3.536  12.657  23.816  0.00  0.00    +0.000 A 
BRANCH  20  22
ATOM     22  O   UNL     1      -5.893  12.004  24.199  0.00  0.00    +0.000 OA
ATOM     23  C   UNL     1      -7.198  12.213  23.682  0.00  0.00    +0.000 C 
ENDBRANCH  20  22
ENDBRANCH  15  16
ENDBRANCH   4  15
BRANCH  10  24
ATOM     24  C   UNL     1       1.791   7.776  20.143  0.00  0.00    +0.000 C 
BRANCH  24  25
ATOM     25  C   UNL     1       1.710   6.334  19.656  0.00  0.00    +0.000 A 
ATOM     26  C   UNL     1       1.880   5.390  20.689  0.00  0.00    +0.000 A 
ATOM     27  C   UNL     1       2.850   4.415  20.522  0.00  0.00    +0.000 A 
ATOM     28  C   UNL     1       3.400   4.308  19.264  0.00  0.00    +0.000 A 
ATOM     29  C   UNL     1       2.633   4.714  18.162  0.00  0.00    +0.000 A 
ATOM     30  C   UNL     1       1.977   5.929  18.337  0.00  0.00    +0.000 A 
ATOM     31  C   UNL     1       3.374   4.229  16.926  0.00  0.00    +0.000 C 
ATOM     32  C   UNL     1       4.778   4.548  17.380  0.00  0.00    +0.000 A 
ATOM     33  C   UNL     1       5.753   5.126  16.585  0.00  0.00    +0.000 A 
ATOM     34  C   UNL     1       6.737   5.866  17.224  0.00  0.00    +0.000 A 
ATOM     35  C   UNL     1       6.749   5.973  18.628  0.00  0.00    +0.000 A 
ATOM     36  C   UNL     1       5.791   5.315  19.428  0.00  0.00    +0.000 A 
ATOM     37  C   UNL     1       4.792   4.572  18.804  0.00  0.00    +0.000 A 
ENDBRANCH  24  25
ENDBRANCH  10  24
TORSDOF 6
ENDMDL
MODEL 4
REMARK VINA RESULT:      -7.6      0.723      1.245
REMARK  Name = 
REMARK  8 active torsions:
REMARK  status: ('A' for Active; 'I' for Inactive)
REMARK    1  A    between atoms: C_1  and  C_2
REMARK    2  A    between atoms: C_2  and  N_3
REMARK    3  A    between atoms: N_6  and  C_7
REMARK    4  A    between atoms: C_7  and  C_8
REMARK    5  A    between atoms: C_12  and  O_13
REMARK    6  A    between atoms: O_13  and  C_14
REMARK    7  A    between atoms: N_21  and  C_22
REMARK    8  A    between atoms: C_22  and  C_23
REMARK                            x       y       z     vdW  Elec       q    Type
REMARK                         _______ _______ _______ _____ _____    ______ ____
ROOT
ATOM      1  N   UNL     1      -0.699  11.237  21.343  0.00  0.00    +0.000 N 
ATOM      2  C   UNL     1      -1.893  11.950  21.349  0.00  0.00    +0.000 C 
ATOM      3  O   UNL     1      -2.572  12.219  22.330  0.00  0.00    +0.000 OA
ATOM      4  N   UNL     1      -2.156  12.370  20.071  0.00  0.00    +0.000 N 
ATOM      5  C   UNL     1      -1.054  12.161  19.299  0.00  0.00    +0.000 C 
ATOM      6  O   UNL     1      -0.844  12.684  18.213  0.00  0.00    +0.000 OA
ATOM      7  C   UNL     1      -0.172  11.108  19.974  0.00  0.00    +0.000 C 
ATOM      8  C   UNL     1       1.317  11.443  19.824  0.00  0.00    +0.000 C 
ATOM      9  C   UNL     1       1.834  11.074  18.422  0.00  0.00    +0.000 C 
ATOM     10  N   UNL     1       1.498   9.692  18.001  0.00  0.00    +0.000 NA
ATOM     11  C   UNL     1       0.049   9.514  18.013  0.00  0.00    +0.000 C 
ATOM     12  C   UNL     1      -0.576   9.748  19.387  0.00  0.00    +0.000 C 
ENDROOT
BRANCH   1  14
ATOM     13  C   UNL     1      -0.279   9.346  22.994  0.00  0.00    +0.000 C 
ATOM     14  C   UNL     1       0.031  10.740  22.505  0.00  0.00    +0.000 C 
ENDBRANCH   1  14
BRANCH   4  15
ATOM     15  C   UNL     1      -3.263  13.205  19.667  0.00  0.00    +0.000 C 
BRANCH  15  16
ATOM     16  C   UNL     1      -4.604  12.578  19.979  0.00  0.00    +0.000 A 
ATOM     17  C   UNL     1      -5.413  13.145  20.974  0.00  0.00    +0.000 A 
ATOM     18  C   UNL     1      -6.680  12.628  21.235  0.00  0.00    +0.000 A 
ATOM     19  C   UNL     1      -7.147  11.534  20.512  0.00  0.00    +0.000 A 
ATOM     20  C   UNL     1      -6.347  10.930  19.537  0.00  0.00    +0.000 A 
ATOM     21  C   UNL     1      -5.073  11.448  19.276  0.00  0.00    +0.000 A 
BRANCH  20  22
ATOM     22  O   UNL     1      -6.939   9.859  18.928  0.00  0.00    +0.000 OA
ATOM     23  C   UNL     1      -7.138   8.684  19.698  0.00  0.00    +0.000 C 
ENDBRANCH  20  22
ENDBRANCH  15  16
ENDBRANCH   4  15
BRANCH  10  24
ATOM     24  C   UNL     1       2.209   8.736  18.855  0.00  0.00    +0.000 C 
BRANCH  24  25
ATOM     25  C   UNL     1       1.853   7.254  18.852  0.00  0.00    +0.000 A 
ATOM     26  C   UNL     1       1.807   6.693  20.145  0.00  0.00    +0.000 A 
ATOM     27  C   UNL     1       2.566   5.560  20.386  0.00  0.00    +0.000 A 
ATOM     28  C   UNL     1       3.114   4.943  19.283  0.00  0.00    +0.000 A 
ATOM     29  C   UNL     1       2.469   5.091  18.045  0.00  0.00    +0.000 A 
ATOM     30  C   UNL     1       2.065   6.393  17.763  0.00  0.00    +0.000 A 
ATOM     31  C   UNL     1       3.127   4.097  17.102  0.00  0.00    +0.000 C 
ATOM     32  C   UNL     1       4.555   4.290  17.551  0.00  0.00    +0.000 A 
ATOM     33  C   UNL     1       5.644   4.384  16.701  0.00  0.00    +0.000 A 
ATOM     34  C   UNL     1       6.741   5.104  17.153  0.00  0.00    +0.000 A 
ATOM     35  C   UNL     1       6.741   5.668  18.442  0.00  0.00    +0.000 A 
ATOM     36  C   UNL     1       5.653   5.498  19.325  0.00  0.00    +0.000 A 
ATOM     37  C   UNL     1       4.540   4.783  18.887  0.00  0.00    +0.000 A 
ENDBRANCH  24  25
ENDBRANCH  10  24
TORSDOF 6
ENDMDL
MODEL 5
REMARK VINA RESULT:      -7.6      1.201      1.915
REMARK  Name = 
REMARK  8 active torsions:
REMARK  status: ('A' for Active; 'I' for Inactive)
REMARK    1  A    between atoms: C_1  and  C_2
REMARK    2  A    between atoms: C_2  and  N_3
REMARK    3  A    between atoms: N_6  and  C_7
REMARK    4  A    between atoms: C_7  and  C_8
REMARK    5  A    between atoms: C_12  and  O_13
REMARK    6  A    between atoms: O_13  and  C_14
REMARK    7  A    between atoms: N_21  and  C_22
REMARK    8  A    between atoms: C_22  and  C_23
REMARK                            x       y       z     vdW  Elec       q    Type
REMARK                         _______ _______ _______ _____ _____    ______ ____
ROOT
ATOM      1  N   UNL     1      -0.186  10.996  21.421  0.00  0.00    +0.000 N 
ATOM      2  C   UNL     1      -1.397  11.646  21.628  0.00  0.00    +0.000 C 
ATOM      3  O   UNL     1      -1.990  11.756  22.691  0.00  0.00    +0.000 OA
ATOM      4  N   UNL     1      -1.794  12.214  20.444  0.00  0.00    +0.000 N 
ATOM      5  C   UNL     1      -0.764  12.156  19.556  0.00  0.00    +0.000 C 
ATOM      6  O   UNL     1      -0.675  12.822  18.535  0.00  0.00    +0.000 OA
ATOM      7  C   UNL     1       0.214  11.067  20.006  0.00  0.00    +0.000 C 
ATOM      8  C   UNL     1       1.670  11.486  19.769  0.00  0.00    +0.000 C 
ATOM      9  C   UNL     1       2.065  11.324  18.290  0.00  0.00    +0.000 C 
ATOM     10  N   UNL     1       1.738   9.993  17.723  0.00  0.00    +0.000 NA
ATOM     11  C   UNL     1       0.303   9.749  17.840  0.00  0.00    +0.000 C 
ATOM     12  C   UNL     1      -0.197   9.776  19.283  0.00  0.00    +0.000 C 
ENDROOT
BRANCH   1  14
ATOM     13  C   UNL     1       0.067   9.321  23.321  0.00  0.00    +0.000 C 
ATOM     14  C   UNL     1       0.666  10.388  22.438  0.00  0.00    +0.000 C 
ENDBRANCH   1  14
BRANCH   4  15
ATOM     15  C   UNL     1      -2.962  13.042  20.253  0.00  0.00    +0.000 C 
BRANCH  15  16
ATOM     16  C   UNL     1      -4.025  12.357  19.423  0.00  0.00    +0.000 A 
ATOM     17  C   UNL     1      -5.323  12.226  19.938  0.00  0.00    +0.000 A 
ATOM     18  C   UNL     1      -6.336  11.661  19.168  0.00  0.00    +0.000 A 
ATOM     19  C   UNL     1      -6.062  11.212  17.880  0.00  0.00    +0.000 A 
ATOM     20  C   UNL     1      -4.770  11.300  17.354  0.00  0.00    +0.000 A 
ATOM     21  C   UNL     1      -3.750  11.867  18.129  0.00  0.00    +0.000 A 
BRANCH  20  22
ATOM     22  O   UNL     1      -4.658  10.803  16.086  0.00  0.00    +0.000 OA
ATOM     23  C   UNL     1      -3.380  10.353  15.660  0.00  0.00    +0.000 C 
ENDBRANCH  20  22
ENDBRANCH  15  16
ENDBRANCH   4  15
BRANCH  10  24
ATOM     24  C   UNL     1       2.558   8.970  18.377  0.00  0.00    +0.000 C 
BRANCH  24  25
ATOM     25  C   UNL     1       2.030   7.559  18.608  0.00  0.00    +0.000 A 
ATOM     26  C   UNL     1       2.037   7.180  19.966  0.00  0.00    +0.000 A 
ATOM     27  C   UNL     1       2.674   5.999  20.306  0.00  0.00    +0.000 A 
ATOM     28  C   UNL     1       3.041   5.179  19.261  0.00  0.00    +0.000 A 
ATOM     29  C   UNL     1       2.307   5.249  18.067  0.00  0.00    +0.000 A 
ATOM     30  C   UNL     1       2.037   6.545  17.636  0.00  0.00    +0.000 A 
ATOM     31  C   UNL     1       2.753   4.064  17.225  0.00  0.00    +0.000 C 
ATOM     32  C   UNL     1       4.228   4.125  17.534  0.00  0.00    +0.000 A 
ATOM     33  C   UNL     1       5.239   3.966  16.600  0.00  0.00    +0.000 A 
ATOM     34  C   UNL     1       6.451   4.589  16.863  0.00  0.00    +0.000 A 
ATOM     35  C   UNL     1       6.636   5.310  18.058  0.00  0.00    +0.000 A 
ATOM     36  C   UNL     1       5.621   5.398  19.034  0.00  0.00    +0.000 A 
ATOM     37  C   UNL     1       4.395   4.784  18.786  0.00  0.00    +0.000 A 
ENDBRANCH  24  25
ENDBRANCH  10  24
TORSDOF 6
ENDMDL
MODEL 6
REMARK VINA RESULT:      -7.5      2.721      5.188
REMARK  Name = 
REMARK  8 active torsions:
REMARK  status: ('A' for Active; 'I' for Inactive)
REMARK    1  A    between atoms: C_1  and  C_2
REMARK    2  A    between atoms: C_2  and  N_3
REMARK    3  A    between atoms: N_6  and  C_7
REMARK    4  A    between atoms: C_7  and  C_8
REMARK    5  A    between atoms: C_12  and  O_13
REMARK    6  A    between atoms: O_13  and  C_14
REMARK    7  A    between atoms: N_21  and  C_22
REMARK    8  A    between atoms: C_22  and  C_23
REMARK                            x       y       z     vdW  Elec       q    Type
REMARK                         _______ _______ _______ _____ _____    ______ ____
ROOT
ATOM      1  N   UNL     1      -0.910  10.872  18.906  0.00  0.00    +0.000 N 
ATOM      2  C   UNL     1      -0.880  12.248  19.099  0.00  0.00    +0.000 C 
ATOM      3  O   UNL     1      -1.738  13.049  18.756  0.00  0.00    +0.000 OA
ATOM      4  N   UNL     1       0.250  12.564  19.809  0.00  0.00    +0.000 N 
ATOM      5  C   UNL     1       0.811  11.417  20.283  0.00  0.00    +0.000 C 
ATOM      6  O   UNL     1       1.636  11.356  21.184  0.00  0.00    +0.000 OA
ATOM      7  C   UNL     1       0.303  10.239  19.449  0.00  0.00    +0.000 C 
ATOM      8  C   UNL     1       0.047   9.002  20.321  0.00  0.00    +0.000 C 
ATOM      9  C   UNL     1       1.362   8.280  20.665  0.00  0.00    +0.000 C 
ATOM     10  N   UNL     1       2.219   8.000  19.487  0.00  0.00    +0.000 NA
ATOM     11  C   UNL     1       2.552   9.252  18.813  0.00  0.00    +0.000 C 
ATOM     12  C   UNL     1       1.323  10.017  18.324  0.00  0.00    +0.000 C 
ENDROOT
BRANCH   1  14
ATOM     13  C   UNL     1      -2.126  10.036  16.831  0.00  0.00    +0.000 C 
ATOM     14  C   UNL     1      -2.003  10.091  18.334  0.00  0.00    +0.000 C 
ENDBRANCH   1  14
BRANCH   4  15
ATOM     15  C   UNL     1       0.613  13.879  20.281  0.00  0.00    +0.000 C 
BRANCH  15  16
ATOM     16  C   UNL     1       1.573  14.583  19.347  0.00  0.00    +0.000 A 
ATOM     17  C   UNL     1       2.633  13.862  18.779  0.00  0.00    +0.000 A 
ATOM     18  C   UNL     1       3.490  14.468  17.864  0.00  0.00    +0.000 A 
ATOM     19  C   UNL     1       3.304  15.803  17.515  0.00  0.00    +0.000 A 
ATOM     20  C   UNL     1       2.276  16.553  18.092  0.00  0.00    +0.000 A 
ATOM     21  C   UNL     1       1.414  15.944  19.013  0.00  0.00    +0.000 A 
BRANCH  20  22
ATOM     22  O   UNL     1       2.233  17.850  17.660  0.00  0.00    +0.000 OA
ATOM     23  C   UNL     1       1.230  18.204  16.721  0.00  0.00    +0.000 C 
ENDBRANCH  20  22
ENDBRANCH  15  16
ENDBRANCH   4  15
BRANCH  10  24
ATOM     24  C   UNL     1       1.551   7.030  18.616  0.00  0.00    +0.000 C 
BRANCH  24  25
ATOM     25  C   UNL     1       1.921   5.552  18.644  0.00  0.00    +0.000 A 
ATOM     26  C   UNL     1       2.195   5.073  19.941  0.00  0.00    +0.000 A 
ATOM     27  C   UNL     1       3.401   4.426  20.152  0.00  0.00    +0.000 A 
ATOM     28  C   UNL     1       4.124   4.098  19.027  0.00  0.00    +0.000 A 
ATOM     29  C   UNL     1       3.433   3.893  17.823  0.00  0.00    +0.000 A 
ATOM     30  C   UNL     1       2.461   4.852  17.551  0.00  0.00    +0.000 A 
ATOM     31  C   UNL     1       4.435   3.286  16.855  0.00  0.00    +0.000 C 
ATOM     32  C   UNL     1       5.630   4.130  17.227  0.00  0.00    +0.000 A 
ATOM     33  C   UNL     1       6.515   4.690  16.322  0.00  0.00    +0.000 A 
ATOM     34  C   UNL     1       7.173   5.849  16.710  0.00  0.00    +0.000 A 
ATOM     35  C   UNL     1       6.966   6.389  17.994  0.00  0.00    +0.000 A 
ATOM     36  C   UNL     1       6.118   5.763  18.933  0.00  0.00    +0.000 A 
ATOM     37  C   UNL     1       5.445   4.602  18.559  0.00  0.00    +0.000 A 
ENDBRANCH  24  25
ENDBRANCH  10  24
TORSDOF 6
ENDMDL
MODEL 7
REMARK VINA RESULT:      -7.5      2.262      3.161
REMARK  Name = 
REMARK  8 active torsions:
REMARK  status: ('A' for Active; 'I' for Inactive)
REMARK    1  A    between atoms: C_1  and  C_2
REMARK    2  A    between atoms: C_2  and  N_3
REMARK    3  A    between atoms: N_6  and  C_7
REMARK    4  A    between atoms: C_7  and  C_8
REMARK    5  A    between atoms: C_12  and  O_13
REMARK    6  A    between atoms: O_13  and  C_14
REMARK    7  A    between atoms: N_21  and  C_22
REMARK    8  A    between atoms: C_22  and  C_23
REMARK                            x       y       z     vdW  Elec       q    Type
REMARK                         _______ _______ _______ _____ _____    ______ ____
ROOT
ATOM      1  N   UNL     1       0.338  11.854  20.139  0.00  0.00    +0.000 N 
ATOM      2  C   UNL     1      -0.086  12.950  20.883  0.00  0.00    +0.000 C 
ATOM      3  O   UNL     1      -0.151  14.109  20.497  0.00  0.00    +0.000 OA
ATOM      4  N   UNL     1      -0.493  12.509  22.115  0.00  0.00    +0.000 N 
ATOM      5  C   UNL     1      -0.572  11.150  22.097  0.00  0.00    +0.000 C 
ATOM      6  O   UNL     1      -1.178  10.467  22.911  0.00  0.00    +0.000 OA
ATOM      7  C   UNL     1       0.284  10.622  20.943  0.00  0.00    +0.000 C 
ATOM      8  C   UNL     1      -0.384   9.430  20.247  0.00  0.00    +0.000 C 
ATOM      9  C   UNL     1      -0.205   8.136  21.061  0.00  0.00    +0.000 C 
ATOM     10  N   UNL     1       1.196   7.869  21.465  0.00  0.00    +0.000 NA
ATOM     11  C   UNL     1       1.697   8.982  22.266  0.00  0.00    +0.000 C 
ATOM     12  C   UNL     1       1.672  10.318  21.524  0.00  0.00    +0.000 C 
ENDROOT
BRANCH   1  14
ATOM     13  C   UNL     1       2.097  12.310  18.356  0.00  0.00    +0.000 C 
ATOM     14  C   UNL     1       0.710  11.844  18.728  0.00  0.00    +0.000 C 
ENDBRANCH   1  14
BRANCH   4  15
ATOM     15  C   UNL     1      -1.075  13.324  23.156  0.00  0.00    +0.000 C 
BRANCH  15  16
ATOM     16  C   UNL     1      -2.508  13.707  22.856  0.00  0.00    +0.000 A 
ATOM     17  C   UNL     1      -2.786  14.978  22.334  0.00  0.00    +0.000 A 
ATOM     18  C   UNL     1      -4.087  15.330  21.986  0.00  0.00    +0.000 A 
ATOM     19  C   UNL     1      -5.126  14.421  22.167  0.00  0.00    +0.000 A 
ATOM     20  C   UNL     1      -4.881  13.160  22.717  0.00  0.00    +0.000 A 
ATOM     21  C   UNL     1      -3.572  12.805  23.067  0.00  0.00    +0.000 A 
BRANCH  20  22
ATOM     22  O   UNL     1      -6.003  12.389  22.845  0.00  0.00    +0.000 OA
ATOM     23  C   UNL     1      -6.803  12.571  24.004  0.00  0.00    +0.000 C 
ENDBRANCH  20  22
ENDBRANCH  15  16
ENDBRANCH   4  15
BRANCH  10  24
ATOM     24  C   UNL     1       2.005   7.599  20.273  0.00  0.00    +0.000 C 
BRANCH  24  25
ATOM     25  C   UNL     1       1.981   6.238  19.589  0.00  0.00    +0.000 A 
ATOM     26  C   UNL     1       2.110   5.162  20.491  0.00  0.00    +0.000 A 
ATOM     27  C   UNL     1       3.107   4.231  20.250  0.00  0.00    +0.000 A 
ATOM     28  C   UNL     1       3.730   4.305  19.024  0.00  0.00    +0.000 A 
ATOM     29  C   UNL     1       3.020   4.851  17.944  0.00  0.00    +0.000 A 
ATOM     30  C   UNL     1       2.331   6.022  18.246  0.00  0.00    +0.000 A 
ATOM     31  C   UNL     1       3.839   4.549  16.700  0.00  0.00    +0.000 C 
ATOM     32  C   UNL     1       5.208   4.819  17.275  0.00  0.00    +0.000 A 
ATOM     33  C   UNL     1       6.216   5.512  16.626  0.00  0.00    +0.000 A 
ATOM     34  C   UNL     1       7.147   6.169  17.418  0.00  0.00    +0.000 A 
ATOM     35  C   UNL     1       7.076   6.081  18.821  0.00  0.00    +0.000 A 
ATOM     36  C   UNL     1       6.087   5.308  19.466  0.00  0.00    +0.000 A 
ATOM     37  C   UNL     1       5.140   4.646  18.688  0.00  0.00    +0.000 A 
ENDBRANCH  24  25
ENDBRANCH  10  24
TORSDOF 6
ENDMDL
MODEL 8
REMARK VINA RESULT:      -7.5      2.250      3.369
REMARK  Name = 
REMARK  8 active torsions:
REMARK  status: ('A' for Active; 'I' for Inactive)
REMARK    1  A    between atoms: C_1  and  C_2
REMARK    2  A    between atoms: C_2  and  N_3
REMARK    3  A    between atoms: N_6  and  C_7
REMARK    4  A    between atoms: C_7  and  C_8
REMARK    5  A    between atoms: C_12  and  O_13
REMARK    6  A    between atoms: O_13  and  C_14
REMARK    7  A    between atoms: N_21  and  C_22
REMARK    8  A    between atoms: C_22  and  C_23
REMARK                            x       y       z     vdW  Elec       q    Type
REMARK                         _______ _______ _______ _____ _____    ______ ____
ROOT
ATOM      1  N   UNL     1      -0.829  11.416  20.072  0.00  0.00    +0.000 N 
ATOM      2  C   UNL     1      -1.206  12.565  20.760  0.00  0.00    +0.000 C 
ATOM      3  O   UNL     1      -1.720  13.564  20.278  0.00  0.00    +0.000 OA
ATOM      4  N   UNL     1      -0.969  12.369  22.096  0.00  0.00    +0.000 N 
ATOM      5  C   UNL     1      -0.686  11.054  22.309  0.00  0.00    +0.000 C 
ATOM      6  O   UNL     1      -0.723  10.491  23.394  0.00  0.00    +0.000 OA
ATOM      7  C   UNL     1      -0.239  10.426  20.986  0.00  0.00    +0.000 C 
ATOM      8  C   UNL     1      -0.783   9.000  20.829  0.00  0.00    +0.000 C 
ATOM      9  C   UNL     1       0.035   7.995  21.660  0.00  0.00    +0.000 C 
ATOM     10  N   UNL     1       1.500   8.091  21.449  0.00  0.00    +0.000 NA
ATOM     11  C   UNL     1       1.957   9.437  21.784  0.00  0.00    +0.000 C 
ATOM     12  C   UNL     1       1.293  10.526  20.943  0.00  0.00    +0.000 C 
ENDROOT
BRANCH   1  14
ATOM     13  C   UNL     1      -2.465  10.927  18.183  0.00  0.00    +0.000 C 
ATOM     14  C   UNL     1      -1.046  11.133  18.656  0.00  0.00    +0.000 C 
ENDBRANCH   1  14
BRANCH   4  15
ATOM     15  C   UNL     1      -1.294  13.293  23.157  0.00  0.00    +0.000 C 
BRANCH  15  16
ATOM     16  C   UNL     1      -2.787  13.442  23.355  0.00  0.00    +0.000 A 
ATOM     17  C   UNL     1      -3.510  12.398  23.948  0.00  0.00    +0.000 A 
ATOM     18  C   UNL     1      -4.872  12.537  24.203  0.00  0.00    +0.000 A 
ATOM     19  C   UNL     1      -5.527  13.716  23.859  0.00  0.00    +0.000 A 
ATOM     20  C   UNL     1      -4.836  14.760  23.237  0.00  0.00    +0.000 A 
ATOM     21  C   UNL     1      -3.467  14.620  22.979  0.00  0.00    +0.000 A 
BRANCH  20  22
ATOM     22  O   UNL     1      -5.620  15.842  22.949  0.00  0.00    +0.000 OA
ATOM     23  C   UNL     1      -7.025  15.703  23.096  0.00  0.00    +0.000 C 
ENDBRANCH  20  22
ENDBRANCH  15  16
ENDBRANCH   4  15
BRANCH  10  24
ATOM     24  C   UNL     1       1.822   7.692  20.076  0.00  0.00    +0.000 C 
BRANCH  24  25
ATOM     25  C   UNL     1       1.766   6.232  19.641  0.00  0.00    +0.000 A 
ATOM     26  C   UNL     1       1.982   5.329  20.701  0.00  0.00    +0.000 A 
ATOM     27  C   UNL     1       2.971   4.372  20.546  0.00  0.00    +0.000 A 
ATOM     28  C   UNL     1       3.496   4.235  19.279  0.00  0.00    +0.000 A 
ATOM     29  C   UNL     1       2.695   4.584  18.182  0.00  0.00    +0.000 A 
ATOM     30  C   UNL     1       2.013   5.789  18.331  0.00  0.00    +0.000 A 
ATOM     31  C   UNL     1       3.419   4.074  16.947  0.00  0.00    +0.000 C 
ATOM     32  C   UNL     1       4.824   4.442  17.356  0.00  0.00    +0.000 A 
ATOM     33  C   UNL     1       5.767   5.015  16.519  0.00  0.00    +0.000 A 
ATOM     34  C   UNL     1       6.747   5.800  17.110  0.00  0.00    +0.000 A 
ATOM     35  C   UNL     1       6.787   5.956  18.508  0.00  0.00    +0.000 A 
ATOM     36  C   UNL     1       5.864   5.304  19.353  0.00  0.00    +0.000 A 
ATOM     37  C   UNL     1       4.870   4.516  18.778  0.00  0.00    +0.000 A 
ENDBRANCH  24  25
ENDBRANCH  10  24
TORSDOF 6
ENDMDL
MODEL 9
REMARK VINA RESULT:      -7.5      2.519     10.011
REMARK  Name = 
REMARK  8 active torsions:
REMARK  status: ('A' for Active; 'I' for Inactive)
REMARK    1  A    between atoms: C_1  and  C_2
REMARK    2  A    between atoms: C_2  and  N_3
REMARK    3  A    between atoms: N_6  and  C_7
REMARK    4  A    between atoms: C_7  and  C_8
REMARK    5  A    between atoms: C_12  and  O_13
REMARK    6  A    between atoms: O_13  and  C_14
REMARK    7  A    between atoms: N_21  and  C_22
REMARK    8  A    between atoms: C_22  and  C_23
REMARK                            x       y       z     vdW  Elec       q    Type
REMARK                         _______ _______ _______ _____ _____    ______ ____
ROOT
ATOM      1  N   UNL     1      -1.336  10.383  18.893  0.00  0.00    +0.000 N 
ATOM      2  C   UNL     1      -0.326   9.837  18.109  0.00  0.00    +0.000 C 
ATOM      3  O   UNL     1      -0.469   9.256  17.042  0.00  0.00    +0.000 OA
ATOM      4  N   UNL     1       0.881  10.116  18.696  0.00  0.00    +0.000 N 
ATOM      5  C   UNL     1       0.690  11.027  19.690  0.00  0.00    +0.000 C 
ATOM      6  O   UNL     1       1.569  11.706  20.202  0.00  0.00    +0.000 OA
ATOM      7  C   UNL     1      -0.781  10.998  20.110  0.00  0.00    +0.000 C 
ATOM      8  C   UNL     1      -1.307  12.406  20.416  0.00  0.00    +0.000 C 
ATOM      9  C   UNL     1      -0.850  12.883  21.806  0.00  0.00    +0.000 C 
ATOM     10  N   UNL     1      -1.115  11.909  22.893  0.00  0.00    +0.000 NA
ATOM     11  C   UNL     1      -0.438  10.649  22.599  0.00  0.00    +0.000 C 
ATOM     12  C   UNL     1      -0.888  10.015  21.284  0.00  0.00    +0.000 C 
ENDROOT
BRANCH   1  14
ATOM     13  C   UNL     1      -3.190  11.404  17.477  0.00  0.00    +0.000 C 
ATOM     14  C   UNL     1      -2.757  10.453  18.567  0.00  0.00    +0.000 C 
ENDBRANCH   1  14
BRANCH   4  15
ATOM     15  C   UNL     1       2.180   9.790  18.156  0.00  0.00    +0.000 C 
BRANCH  15  16
ATOM     16  C   UNL     1       2.545   8.337  18.372  0.00  0.00    +0.000 A 
ATOM     17  C   UNL     1       3.385   7.695  17.450  0.00  0.00    +0.000 A 
ATOM     18  C   UNL     1       3.791   6.380  17.661  0.00  0.00    +0.000 A 
ATOM     19  C   UNL     1       3.355   5.690  18.788  0.00  0.00    +0.000 A 
ATOM     20  C   UNL     1       2.492   6.296  19.705  0.00  0.00    +0.000 A 
ATOM     21  C   UNL     1       2.082   7.618  19.493  0.00  0.00    +0.000 A 
BRANCH  20  22
ATOM     22  O   UNL     1       2.142   5.485  20.749  0.00  0.00    +0.000 OA
ATOM     23  C   UNL     1       1.768   4.147  20.453  0.00  0.00    +0.000 C 
ENDBRANCH  20  22
ENDBRANCH  15  16
ENDBRANCH   4  15
BRANCH  10  24
ATOM     24  C   UNL     1      -2.562  11.763  23.075  0.00  0.00    +0.000 C 
BRANCH  24  25
ATOM     25  C   UNL     1      -3.425  12.933  23.532  0.00  0.00    +0.000 A 
ATOM     26  C   UNL     1      -4.217  12.631  24.659  0.00  0.00    +0.000 A 
ATOM     27  C   UNL     1      -5.580  12.862  24.574  0.00  0.00    +0.000 A 
ATOM     28  C   UNL     1      -6.011  13.586  23.484  0.00  0.00    +0.000 A 
ATOM     29  C   UNL     1      -5.119  14.489  22.886  0.00  0.00    +0.000 A 
ATOM     30  C   UNL     1      -3.835  13.985  22.697  0.00  0.00    +0.000 A 
ATOM     31  C   UNL     1      -5.943  15.321  21.916  0.00  0.00    +0.000 C 
ATOM     32  C   UNL     1      -6.811  14.215  21.370  0.00  0.00    +0.000 A 
ATOM     33  C   UNL     1      -7.133  14.050  20.033  0.00  0.00    +0.000 A 
ATOM     34  C   UNL     1      -7.417  12.762  19.602  0.00  0.00    +0.000 A 
ATOM     35  C   UNL     1      -7.416  11.689  20.515  0.00  0.00    +0.000 A 
ATOM     36  C   UNL     1      -7.160  11.886  21.889  0.00  0.00    +0.000 A 
ATOM     37  C   UNL     1      -6.867  13.172  22.339  0.00  0.00    +0.000 A 
ENDBRANCH  24  25
ENDBRANCH  10  24
TORSDOF 6
ENDMDL
