MODEL 1
REMARK VINA RESULT:      -8.1      0.000      0.000
REMARK  Name = 
REMARK  7 active torsions:
REMARK  status: ('A' for Active; 'I' for Inactive)
REMARK    1  A    between atoms: C_1  and  C_2
REMARK    2  A    between atoms: C_5  and  C_6
REMARK    3  A    between atoms: C_13  and  C_15
REMARK    4  A    between atoms: C_15  and  C_16
REMARK    5  A    between atoms: C_15  and  C_17
REMARK    6  A    between atoms: C_19  and  C_20
REMARK    7  A    between atoms: C_20  and  O_21
REMARK                            x       y       z     vdW  Elec       q    Type
REMARK                         _______ _______ _______ _____ _____    ______ ____
ROOT
ATOM      1  C   UNL     1       2.677   6.206  19.564  0.00  0.00    +0.000 C 
ATOM      2  O   UNL     1       2.775   5.523  20.581  0.00  0.00    +0.000 OA
ATOM      3  N   UNL     1       1.969   7.406  19.551  0.00  0.00    +0.000 N 
ATOM      4  C   UNL     1       1.954   8.388  18.534  0.00  0.00    +0.000 C 
ATOM      5  C   UNL     1       1.228   9.546  19.194  0.00  0.00    +0.000 C 
ATOM      6  C   UNL     1       0.130   9.940  18.202  0.00  0.00    +0.000 C 
ATOM      7  N   UNL     1      -0.818  10.564  19.044  0.00  0.00    +0.000 N 
ATOM      8  C   UNL     1      -1.950  11.256  18.677  0.00  0.00    +0.000 C 
ATOM      9  O   UNL     1      -2.587  11.930  19.485  0.00  0.00    +0.000 OA
ATOM     10  C   UNL     1      -0.338  10.489  20.395  0.00  0.00    +0.000 C 
ATOM     11  C   UNL     1       0.434   9.105  20.602  0.00  0.00    +0.000 C 
ATOM     12  C   UNL     1       1.580   8.036  20.783  0.00  0.00    +0.000 C 
ENDROOT
BRANCH   1  17
ATOM     13  C   UNL     1       5.700   4.165  15.053  0.00  0.00    +0.000 C 
ATOM     14  C   UNL     1       4.887   4.703  16.188  0.00  0.00    +0.000 A 
ATOM     15  C   UNL     1       3.899   3.937  16.810  0.00  0.00    +0.000 A 
ATOM     16  C   UNL     1       3.180   4.460  17.887  0.00  0.00    +0.000 A 
ATOM     17  C   UNL     1       3.426   5.761  18.353  0.00  0.00    +0.000 A 
ATOM     18  C   UNL     1       4.352   6.552  17.673  0.00  0.00    +0.000 A 
ATOM     19  C   UNL     1       5.094   6.012  16.632  0.00  0.00    +0.000 A 
ATOM     20  F   UNL     1       6.044   6.766  16.059  0.00  0.00    +0.000 F 
ENDBRANCH   1  17
BRANCH   8  21
ATOM     21  C   UNL     1      -2.440  11.049  17.244  0.00  0.00    +0.000 C 
ATOM     22  C   UNL     1      -2.413   9.555  16.913  0.00  0.00    +0.000 C 
ATOM     23  C   UNL     1      -3.849  11.605  17.061  0.00  0.00    +0.000 C 
ENDBRANCH   8  21
BRANCH  11  24
ATOM     24  C   UNL     1       0.589   9.485  22.173  0.00  0.00    +0.000 C 
BRANCH  24  25
ATOM     25  O   UNL     1       1.885   9.267  22.709  0.00  0.00    +0.000 OA
ATOM     26  H   UNL     1       1.801   8.851  23.580  0.00  0.00    +0.000 HD
ENDBRANCH  24  25
ENDBRANCH  11  24
TORSDOF 4
ENDMDL
MODEL 2
REMARK VINA RESULT:      -8.1      2.876      7.805
REMARK  Name = 
REMARK  7 active torsions:
REMARK  status: ('A' for Active; 'I' for Inactive)
REMARK    1  A    between atoms: C_1  and  C_2
REMARK    2  A    between atoms: C_5  and  C_6
REMARK    3  A    between atoms: C_13  and  C_15
REMARK    4  A    between atoms: C_15  and  C_16
REMARK    5  A    between atoms: C_15  and  C_17
REMARK    6  A    between atoms: C_19  and  C_20
REMARK    7  A    between atoms: C_20  and  O_21
REMARK                            x       y       z     vdW  Elec       q    Type
REMARK                         _______ _______ _______ _____ _____    ______ ____
ROOT
ATOM      1  C   UNL     1       0.632   8.988  20.957  0.00  0.00    +0.000 C 
ATOM      2  O   UNL     1       0.063   8.794  22.030  0.00  0.00    +0.000 OA
ATOM      3  N   UNL     1       1.407   8.004  20.349  0.00  0.00    +0.000 N 
ATOM      4  C   UNL     1       1.932   8.007  19.036  0.00  0.00    +0.000 C 
ATOM      5  C   UNL     1       2.449   6.589  18.876  0.00  0.00    +0.000 C 
ATOM      6  C   UNL     1       3.887   6.748  18.376  0.00  0.00    +0.000 C 
ATOM      7  N   UNL     1       4.477   5.531  18.783  0.00  0.00    +0.000 N 
ATOM      8  C   UNL     1       5.728   5.048  18.466  0.00  0.00    +0.000 C 
ATOM      9  O   UNL     1       6.053   3.886  18.707  0.00  0.00    +0.000 OA
ATOM     10  C   UNL     1       3.491   4.768  19.494  0.00  0.00    +0.000 C 
ATOM     11  C   UNL     1       2.560   5.763  20.329  0.00  0.00    +0.000 C 
ATOM     12  C   UNL     1       1.332   6.639  20.795  0.00  0.00    +0.000 C 
ENDROOT
BRANCH   1  17
ATOM     13  C   UNL     1      -0.358  14.204  18.621  0.00  0.00    +0.000 C 
ATOM     14  C   UNL     1      -0.069  12.853  19.194  0.00  0.00    +0.000 A 
ATOM     15  C   UNL     1       0.930  12.661  20.150  0.00  0.00    +0.000 A 
ATOM     16  C   UNL     1       1.151  11.390  20.687  0.00  0.00    +0.000 A 
ATOM     17  C   UNL     1       0.389  10.288  20.268  0.00  0.00    +0.000 A 
ATOM     18  C   UNL     1      -0.547  10.470  19.250  0.00  0.00    +0.000 A 
ATOM     19  C   UNL     1      -0.793  11.742  18.752  0.00  0.00    +0.000 A 
ATOM     20  F   UNL     1      -1.765  11.901  17.842  0.00  0.00    +0.000 F 
ENDBRANCH   1  17
BRANCH   8  21
ATOM     21  C   UNL     1       6.727   6.062  17.907  0.00  0.00    +0.000 C 
ATOM     22  C   UNL     1       7.905   6.193  18.874  0.00  0.00    +0.000 C 
ATOM     23  C   UNL     1       7.219   5.639  16.526  0.00  0.00    +0.000 C 
ENDBRANCH   8  21
BRANCH  11  24
ATOM     24  C   UNL     1       1.829   4.463  20.968  0.00  0.00    +0.000 C 
BRANCH  24  25
ATOM     25  O   UNL     1       0.613   4.095  20.332  0.00  0.00    +0.000 OA
ATOM     26  H   UNL     1       0.136   4.898  20.075  0.00  0.00    +0.000 HD
ENDBRANCH  24  25
ENDBRANCH  11  24
TORSDOF 4
ENDMDL
MODEL 3
REMARK VINA RESULT:      -8.0      2.862      7.717
REMARK  Name = 
REMARK  7 active torsions:
REMARK  status: ('A' for Active; 'I' for Inactive)
REMARK    1  A    between atoms: C_1  and  C_2
REMARK    2  A    between atoms: C_5  and  C_6
REMARK    3  A    between atoms: C_13  and  C_15
REMARK    4  A    between atoms: C_15  and  C_16
REMARK    5  A    between atoms: C_15  and  C_17
REMARK    6  A    between atoms: C_19  and  C_20
REMARK    7  A    between atoms: C_20  and  O_21
REMARK                            x       y       z     vdW  Elec       q    Type
REMARK                         _______ _______ _______ _____ _____    ______ ____
ROOT
ATOM      1  C   UNL     1       0.516   8.774  21.158  0.00  0.00    +0.000 C 
ATOM      2  O   UNL     1      -0.121   8.520  22.178  0.00  0.00    +0.000 OA
ATOM      3  N   UNL     1       1.320   7.821  20.538  0.00  0.00    +0.000 N 
ATOM      4  C   UNL     1       1.927   7.901  19.263  0.00  0.00    +0.000 C 
ATOM      5  C   UNL     1       2.441   6.490  19.045  0.00  0.00    +0.000 C 
ATOM      6  C   UNL     1       3.909   6.662  18.647  0.00  0.00    +0.000 C 
ATOM      7  N   UNL     1       4.462   5.414  19.012  0.00  0.00    +0.000 N 
ATOM      8  C   UNL     1       5.726   4.936  18.744  0.00  0.00    +0.000 C 
ATOM      9  O   UNL     1       6.026   3.758  18.930  0.00  0.00    +0.000 OA
ATOM     10  C   UNL     1       3.426   4.620  19.610  0.00  0.00    +0.000 C 
ATOM     11  C   UNL     1       2.453   5.572  20.447  0.00  0.00    +0.000 C 
ATOM     12  C   UNL     1       1.206   6.431  20.890  0.00  0.00    +0.000 C 
ENDROOT
BRANCH   1  17
ATOM     13  C   UNL     1      -0.203  13.831  18.409  0.00  0.00    +0.000 C 
ATOM     14  C   UNL     1      -0.049  12.540  19.148  0.00  0.00    +0.000 A 
ATOM     15  C   UNL     1      -0.901  11.458  18.918  0.00  0.00    +0.000 A 
ATOM     16  C   UNL     1      -0.708  10.256  19.604  0.00  0.00    +0.000 A 
ATOM     17  C   UNL     1       0.329  10.118  20.540  0.00  0.00    +0.000 A 
ATOM     18  C   UNL     1       1.121  11.229  20.829  0.00  0.00    +0.000 A 
ATOM     19  C   UNL     1       0.954  12.407  20.113  0.00  0.00    +0.000 A 
ATOM     20  F   UNL     1       1.792  13.427  20.346  0.00  0.00    +0.000 F 
ENDBRANCH   1  17
BRANCH   8  21
ATOM     21  C   UNL     1       6.767   5.971  18.315  0.00  0.00    +0.000 C 
ATOM     22  C   UNL     1       8.016   5.819  19.184  0.00  0.00    +0.000 C 
ATOM     23  C   UNL     1       7.125   5.807  16.840  0.00  0.00    +0.000 C 
ENDBRANCH   8  21
BRANCH  11  24
ATOM     24  C   UNL     1       1.672   4.243  20.954  0.00  0.00    +0.000 C 
BRANCH  24  25
ATOM     25  O   UNL     1       2.315   3.543  22.009  0.00  0.00    +0.000 OA
ATOM     26  H   UNL     1       2.553   2.657  21.701  0.00  0.00    +0.000 HD
ENDBRANCH  24  25
ENDBRANCH  11  24
TORSDOF 4
ENDMDL
MODEL 4
REMARK VINA RESULT:      -7.8      2.086      3.948
REMARK  Name = 
REMARK  7 active torsions:
REMARK  status: ('A' for Active; 'I' for Inactive)
REMARK    1  A    between atoms: C_1  and  C_2
REMARK    2  A    between atoms: C_5  and  C_6
REMARK    3  A    between atoms: C_13  and  C_15
REMARK    4  A    between atoms: C_15  and  C_16
REMARK    5  A    between atoms: C_15  and  C_17
REMARK    6  A    between atoms: C_19  and  C_20
REMARK    7  A    between atoms: C_20  and  O_21
REMARK                            x       y       z     vdW  Elec       q    Type
REMARK                         _______ _______ _______ _____ _____    ______ ____
ROOT
ATOM      1  C   UNL     1       4.261   3.741  17.099  0.00  0.00    +0.000 C 
ATOM      2  O   UNL     1       4.002   2.567  17.356  0.00  0.00    +0.000 OA
ATOM      3  N   UNL     1       3.762   4.788  17.870  0.00  0.00    +0.000 N 
ATOM      4  C   UNL     1       4.143   6.149  17.828  0.00  0.00    +0.000 C 
ATOM      5  C   UNL     1       3.455   6.731  19.049  0.00  0.00    +0.000 C 
ATOM      6  C   UNL     1       2.707   7.962  18.530  0.00  0.00    +0.000 C 
ATOM      7  N   UNL     1       1.682   8.112  19.490  0.00  0.00    +0.000 N 
ATOM      8  C   UNL     1       0.790   9.152  19.623  0.00  0.00    +0.000 C 
ATOM      9  O   UNL     1       0.078   9.273  20.619  0.00  0.00    +0.000 OA
ATOM     10  C   UNL     1       1.794   7.040  20.439  0.00  0.00    +0.000 C 
ATOM     11  C   UNL     1       2.279   5.718  19.684  0.00  0.00    +0.000 C 
ATOM     12  C   UNL     1       3.176   4.530  19.157  0.00  0.00    +0.000 C 
ENDROOT
BRANCH   1  17
ATOM     13  C   UNL     1       7.977   5.168  12.880  0.00  0.00    +0.000 C 
ATOM     14  C   UNL     1       7.043   4.762  13.975  0.00  0.00    +0.000 A 
ATOM     15  C   UNL     1       7.327   5.026  15.317  0.00  0.00    +0.000 A 
ATOM     16  C   UNL     1       6.416   4.660  16.311  0.00  0.00    +0.000 A 
ATOM     17  C   UNL     1       5.214   4.014  15.985  0.00  0.00    +0.000 A 
ATOM     18  C   UNL     1       4.975   3.675  14.653  0.00  0.00    +0.000 A 
ATOM     19  C   UNL     1       5.862   4.080  13.664  0.00  0.00    +0.000 A 
ATOM     20  F   UNL     1       5.561   3.824  12.383  0.00  0.00    +0.000 F 
ENDBRANCH   1  17
BRANCH   8  21
ATOM     21  C   UNL     1       0.646  10.082  18.417  0.00  0.00    +0.000 C 
ATOM     22  C   UNL     1      -0.837  10.248  18.082  0.00  0.00    +0.000 C 
ATOM     23  C   UNL     1       1.281  11.442  18.698  0.00  0.00    +0.000 C 
ENDBRANCH   8  21
BRANCH  11  24
ATOM     24  C   UNL     1       2.094   4.912  21.080  0.00  0.00    +0.000 C 
BRANCH  24  25
ATOM     25  O   UNL     1       1.301   3.738  20.985  0.00  0.00    +0.000 OA
ATOM     26  H   UNL     1       1.203   3.498  20.052  0.00  0.00    +0.000 HD
ENDBRANCH  24  25
ENDBRANCH  11  24
TORSDOF 4
ENDMDL
MODEL 5
REMARK VINA RESULT:      -7.8      3.197      7.914
REMARK  Name = 
REMARK  7 active torsions:
REMARK  status: ('A' for Active; 'I' for Inactive)
REMARK    1  A    between atoms: C_1  and  C_2
REMARK    2  A    between atoms: C_5  and  C_6
REMARK    3  A    between atoms: C_13  and  C_15
REMARK    4  A    between atoms: C_15  and  C_16
REMARK    5  A    between atoms: C_15  and  C_17
REMARK    6  A    between atoms: C_19  and  C_20
REMARK    7  A    between atoms: C_20  and  O_21
REMARK                            x       y       z     vdW  Elec       q    Type
REMARK                         _______ _______ _______ _____ _____    ______ ____
ROOT
ATOM      1  C   UNL     1       1.576   9.322  18.598  0.00  0.00    +0.000 C 
ATOM      2  O   UNL     1       1.758  10.055  17.627  0.00  0.00    +0.000 OA
ATOM      3  N   UNL     1       2.178   8.070  18.695  0.00  0.00    +0.000 N 
ATOM      4  C   UNL     1       2.236   7.225  19.827  0.00  0.00    +0.000 C 
ATOM      5  C   UNL     1       3.219   6.152  19.398  0.00  0.00    +0.000 C 
ATOM      6  C   UNL     1       2.511   4.827  19.693  0.00  0.00    +0.000 C 
ATOM      7  N   UNL     1       3.154   3.943  18.799  0.00  0.00    +0.000 N 
ATOM      8  C   UNL     1       3.034   2.573  18.728  0.00  0.00    +0.000 C 
ATOM      9  O   UNL     1       3.798   1.890  18.048  0.00  0.00    +0.000 OA
ATOM     10  C   UNL     1       4.103   4.695  18.026  0.00  0.00    +0.000 C 
ATOM     11  C   UNL     1       3.514   6.154  17.748  0.00  0.00    +0.000 C 
ATOM     12  C   UNL     1       3.257   7.710  17.816  0.00  0.00    +0.000 C 
ENDROOT
BRANCH   1  17
ATOM     13  C   UNL     1      -1.477  11.751  22.890  0.00  0.00    +0.000 C 
ATOM     14  C   UNL     1      -0.725  11.097  21.775  0.00  0.00    +0.000 A 
ATOM     15  C   UNL     1      -0.904  11.482  20.445  0.00  0.00    +0.000 A 
ATOM     16  C   UNL     1      -0.161  10.871  19.432  0.00  0.00    +0.000 A 
ATOM     17  C   UNL     1       0.763   9.856  19.728  0.00  0.00    +0.000 A 
ATOM     18  C   UNL     1       0.874   9.416  21.047  0.00  0.00    +0.000 A 
ATOM     19  C   UNL     1       0.166  10.056  22.055  0.00  0.00    +0.000 A 
ATOM     20  F   UNL     1       0.365   9.675  23.325  0.00  0.00    +0.000 F 
ENDBRANCH   1  17
BRANCH   8  21
ATOM     21  C   UNL     1       1.832   1.958  19.445  0.00  0.00    +0.000 C 
ATOM     22  C   UNL     1       1.864   2.362  20.920  0.00  0.00    +0.000 C 
ATOM     23  C   UNL     1       0.523   2.409  18.802  0.00  0.00    +0.000 C 
ENDBRANCH   8  21
BRANCH  11  24
ATOM     24  C   UNL     1       4.810   6.445  16.815  0.00  0.00    +0.000 C 
BRANCH  24  25
ATOM     25  O   UNL     1       5.101   5.425  15.871  0.00  0.00    +0.000 OA
ATOM     26  H   UNL     1       5.126   4.571  16.326  0.00  0.00    +0.000 HD
ENDBRANCH  24  25
ENDBRANCH  11  24
TORSDOF 4
ENDMDL
MODEL 6
REMARK VINA RESULT:      -7.5      3.182      7.770
REMARK  Name = 
REMARK  7 active torsions:
REMARK  status: ('A' for Active; 'I' for Inactive)
REMARK    1  A    between atoms: C_1  and  C_2
REMARK    2  A    between atoms: C_5  and  C_6
REMARK    3  A    between atoms: C_13  and  C_15
REMARK    4  A    between atoms: C_15  and  C_16
REMARK    5  A    between atoms: C_15  and  C_17
REMARK    6  A    between atoms: C_19  and  C_20
REMARK    7  A    between atoms: C_20  and  O_21
REMARK                            x       y       z     vdW  Elec       q    Type
REMARK                         _______ _______ _______ _____ _____    ______ ____
ROOT
ATOM      1  C   UNL     1       1.784   9.400  18.103  0.00  0.00    +0.000 C 
ATOM      2  O   UNL     1       2.207  10.013  17.124  0.00  0.00    +0.000 OA
ATOM      3  N   UNL     1       2.311   8.168  18.482  0.00  0.00    +0.000 N 
ATOM      4  C   UNL     1       2.080   7.464  19.686  0.00  0.00    +0.000 C 
ATOM      5  C   UNL     1       3.106   6.348  19.626  0.00  0.00    +0.000 C 
ATOM      6  C   UNL     1       2.312   5.067  19.898  0.00  0.00    +0.000 C 
ATOM      7  N   UNL     1       3.121   4.083  19.288  0.00  0.00    +0.000 N 
ATOM      8  C   UNL     1       2.982   2.714  19.350  0.00  0.00    +0.000 C 
ATOM      9  O   UNL     1       3.864   1.955  18.951  0.00  0.00    +0.000 OA
ATOM     10  C   UNL     1       4.244   4.738  18.678  0.00  0.00    +0.000 C 
ATOM     11  C   UNL     1       3.777   6.153  18.103  0.00  0.00    +0.000 C 
ATOM     12  C   UNL     1       3.555   7.706  17.928  0.00  0.00    +0.000 C 
ENDROOT
BRANCH   1  17
ATOM     13  C   UNL     1      -2.329  12.217  21.069  0.00  0.00    +0.000 C 
ATOM     14  C   UNL     1      -1.285  11.452  20.320  0.00  0.00    +0.000 A 
ATOM     15  C   UNL     1      -1.549  10.873  19.077  0.00  0.00    +0.000 A 
ATOM     16  C   UNL     1      -0.540  10.192  18.392  0.00  0.00    +0.000 A 
ATOM     17  C   UNL     1       0.745  10.065  18.942  0.00  0.00    +0.000 A 
ATOM     18  C   UNL     1       0.979  10.568  20.221  0.00  0.00    +0.000 A 
ATOM     19  C   UNL     1      -0.014  11.282  20.879  0.00  0.00    +0.000 A 
ATOM     20  F   UNL     1       0.269  11.836  22.066  0.00  0.00    +0.000 F 
ENDBRANCH   1  17
BRANCH   8  21
ATOM     21  C   UNL     1       1.629   2.189  19.831  0.00  0.00    +0.000 C 
ATOM     22  C   UNL     1       1.363   2.706  21.246  0.00  0.00    +0.000 C 
ATOM     23  C   UNL     1       0.508   2.624  18.890  0.00  0.00    +0.000 C 
ENDBRANCH   8  21
BRANCH  11  24
ATOM     24  C   UNL     1       5.262   6.331  17.473  0.00  0.00    +0.000 C 
BRANCH  24  25
ATOM     25  O   UNL     1       5.285   6.825  16.142  0.00  0.00    +0.000 OA
ATOM     26  H   UNL     1       6.164   6.671  15.764  0.00  0.00    +0.000 HD
ENDBRANCH  24  25
ENDBRANCH  11  24
TORSDOF 4
ENDMDL
MODEL 7
REMARK VINA RESULT:      -7.5      1.274      1.571
REMARK  Name = 
REMARK  7 active torsions:
REMARK  status: ('A' for Active; 'I' for Inactive)
REMARK    1  A    between atoms: C_1  and  C_2
REMARK    2  A    between atoms: C_5  and  C_6
REMARK    3  A    between atoms: C_13  and  C_15
REMARK    4  A    between atoms: C_15  and  C_16
REMARK    5  A    between atoms: C_15  and  C_17
REMARK    6  A    between atoms: C_19  and  C_20
REMARK    7  A    between atoms: C_20  and  O_21
REMARK                            x       y       z     vdW  Elec       q    Type
REMARK                         _______ _______ _______ _____ _____    ______ ____
ROOT
ATOM      1  C   UNL     1       2.240   6.105  20.212  0.00  0.00    +0.000 C 
ATOM      2  O   UNL     1       2.239   5.486  21.274  0.00  0.00    +0.000 OA
ATOM      3  N   UNL     1       1.628   7.349  20.087  0.00  0.00    +0.000 N 
ATOM      4  C   UNL     1       1.734   8.260  19.010  0.00  0.00    +0.000 C 
ATOM      5  C   UNL     1       1.071   9.510  19.558  0.00  0.00    +0.000 C 
ATOM      6  C   UNL     1       0.053   9.916  18.489  0.00  0.00    +0.000 C 
ATOM      7  N   UNL     1      -0.882  10.663  19.240  0.00  0.00    +0.000 N 
ATOM      8  C   UNL     1      -1.940  11.411  18.773  0.00  0.00    +0.000 C 
ATOM      9  O   UNL     1      -2.559  12.183  19.504  0.00  0.00    +0.000 OA
ATOM     10  C   UNL     1      -0.471  10.644  20.616  0.00  0.00    +0.000 C 
ATOM     11  C   UNL     1       0.182   9.225  20.949  0.00  0.00    +0.000 C 
ATOM     12  C   UNL     1       1.233   8.088  21.255  0.00  0.00    +0.000 C 
ENDROOT
BRANCH   1  17
ATOM     13  C   UNL     1       5.266   4.206  15.641  0.00  0.00    +0.000 C 
ATOM     14  C   UNL     1       4.510   4.667  16.846  0.00  0.00    +0.000 A 
ATOM     15  C   UNL     1       5.019   5.647  17.701  0.00  0.00    +0.000 A 
ATOM     16  C   UNL     1       4.270   6.076  18.800  0.00  0.00    +0.000 A 
ATOM     17  C   UNL     1       3.007   5.525  19.071  0.00  0.00    +0.000 A 
ATOM     18  C   UNL     1       2.543   4.486  18.265  0.00  0.00    +0.000 A 
ATOM     19  C   UNL     1       3.270   4.095  17.149  0.00  0.00    +0.000 A 
ATOM     20  F   UNL     1       2.754   3.160  16.339  0.00  0.00    +0.000 F 
ENDBRANCH   1  17
BRANCH   8  21
ATOM     21  C   UNL     1      -2.378  11.144  17.333  0.00  0.00    +0.000 C 
ATOM     22  C   UNL     1      -2.269   9.646  17.043  0.00  0.00    +0.000 C 
ATOM     23  C   UNL     1      -3.807  11.626  17.098  0.00  0.00    +0.000 C 
ENDBRANCH   8  21
BRANCH  11  24
ATOM     24  C   UNL     1       0.294   9.696  22.498  0.00  0.00    +0.000 C 
BRANCH  24  25
ATOM     25  O   UNL     1      -0.831   9.369  23.300  0.00  0.00    +0.000 OA
ATOM     26  H   UNL     1      -1.293  10.184  23.544  0.00  0.00    +0.000 HD
ENDBRANCH  24  25
ENDBRANCH  11  24
TORSDOF 4
ENDMDL
MODEL 8
REMARK VINA RESULT:      -7.5      3.305      7.899
REMARK  Name = 
REMARK  7 active torsions:
REMARK  status: ('A' for Active; 'I' for Inactive)
REMARK    1  A    between atoms: C_1  and  C_2
REMARK    2  A    between atoms: C_5  and  C_6
REMARK    3  A    between atoms: C_13  and  C_15
REMARK    4  A    between atoms: C_15  and  C_16
REMARK    5  A    between atoms: C_15  and  C_17
REMARK    6  A    between atoms: C_19  and  C_20
REMARK    7  A    between atoms: C_20  and  O_21
REMARK                            x       y       z     vdW  Elec       q    Type
REMARK                         _______ _______ _______ _____ _____    ______ ____
ROOT
ATOM      1  C   UNL     1       1.656   9.311  18.504  0.00  0.00    +0.000 C 
ATOM      2  O   UNL     1       1.848  10.005  17.508  0.00  0.00    +0.000 OA
ATOM      3  N   UNL     1       2.231   8.050  18.642  0.00  0.00    +0.000 N 
ATOM      4  C   UNL     1       2.277   7.244  19.803  0.00  0.00    +0.000 C 
ATOM      5  C   UNL     1       3.235   6.136  19.407  0.00  0.00    +0.000 C 
ATOM      6  C   UNL     1       2.500   4.838  19.752  0.00  0.00    +0.000 C 
ATOM      7  N   UNL     1       3.119   3.909  18.886  0.00  0.00    +0.000 N 
ATOM      8  C   UNL     1       2.969   2.540  18.864  0.00  0.00    +0.000 C 
ATOM      9  O   UNL     1       3.713   1.817  18.204  0.00  0.00    +0.000 OA
ATOM     10  C   UNL     1       4.079   4.613  18.083  0.00  0.00    +0.000 C 
ATOM     11  C   UNL     1       3.520   6.074  17.757  0.00  0.00    +0.000 C 
ATOM     12  C   UNL     1       3.297   7.636  17.771  0.00  0.00    +0.000 C 
ENDROOT
BRANCH   1  17
ATOM     13  C   UNL     1      -1.493  11.253  22.972  0.00  0.00    +0.000 C 
ATOM     14  C   UNL     1      -0.652  10.786  21.827  0.00  0.00    +0.000 A 
ATOM     15  C   UNL     1       0.460   9.964  22.022  0.00  0.00    +0.000 A 
ATOM     16  C   UNL     1       1.205   9.521  20.926  0.00  0.00    +0.000 A 
ATOM     17  C   UNL     1       0.861   9.902  19.619  0.00  0.00    +0.000 A 
ATOM     18  C   UNL     1      -0.197  10.792  19.438  0.00  0.00    +0.000 A 
ATOM     19  C   UNL     1      -0.961  11.194  20.526  0.00  0.00    +0.000 A 
ATOM     20  F   UNL     1      -2.029  11.974  20.310  0.00  0.00    +0.000 F 
ENDBRANCH   1  17
BRANCH   8  21
ATOM     21  C   UNL     1       1.757   1.978  19.608  0.00  0.00    +0.000 C 
ATOM     22  C   UNL     1       1.802   2.440  21.066  0.00  0.00    +0.000 C 
ATOM     23  C   UNL     1       0.455   2.426  18.950  0.00  0.00    +0.000 C 
ENDBRANCH   8  21
BRANCH  11  24
ATOM     24  C   UNL     1       4.816   6.303  16.808  0.00  0.00    +0.000 C 
BRANCH  24  25
ATOM     25  O   UNL     1       5.081   5.244  15.900  0.00  0.00    +0.000 OA
ATOM     26  H   UNL     1       5.000   4.400  16.367  0.00  0.00    +0.000 HD
ENDBRANCH  24  25
ENDBRANCH  11  24
TORSDOF 4
ENDMDL
MODEL 9
REMARK VINA RESULT:      -7.3      2.858      7.559
REMARK  Name = 
REMARK  7 active torsions:
REMARK  status: ('A' for Active; 'I' for Inactive)
REMARK    1  A    between atoms: C_1  and  C_2
REMARK    2  A    between atoms: C_5  and  C_6
REMARK    3  A    between atoms: C_13  and  C_15
REMARK    4  A    between atoms: C_15  and  C_16
REMARK    5  A    between atoms: C_15  and  C_17
REMARK    6  A    between atoms: C_19  and  C_20
REMARK    7  A    between atoms: C_20  and  O_21
REMARK                            x       y       z     vdW  Elec       q    Type
REMARK                         _______ _______ _______ _____ _____    ______ ____
ROOT
ATOM      1  C   UNL     1       0.956  10.035  21.270  0.00  0.00    +0.000 C 
ATOM      2  O   UNL     1       0.712   9.863  22.463  0.00  0.00    +0.000 OA
ATOM      3  N   UNL     1       1.382   8.993  20.451  0.00  0.00    +0.000 N 
ATOM      4  C   UNL     1       1.489   8.990  19.040  0.00  0.00    +0.000 C 
ATOM      5  C   UNL     1       1.750   7.530  18.724  0.00  0.00    +0.000 C 
ATOM      6  C   UNL     1       2.982   7.538  17.815  0.00  0.00    +0.000 C 
ATOM      7  N   UNL     1       3.507   6.242  18.018  0.00  0.00    +0.000 N 
ATOM      8  C   UNL     1       4.535   5.628  17.337  0.00  0.00    +0.000 C 
ATOM      9  O   UNL     1       4.767   4.427  17.462  0.00  0.00    +0.000 OA
ATOM     10  C   UNL     1       2.690   5.572  18.989  0.00  0.00    +0.000 C 
ATOM     11  C   UNL     1       2.184   6.633  20.072  0.00  0.00    +0.000 C 
ATOM     12  C   UNL     1       1.272   7.628  20.890  0.00  0.00    +0.000 C 
ENDROOT
BRANCH   1  17
ATOM     13  C   UNL     1      -0.252  15.105  18.723  0.00  0.00    +0.000 C 
ATOM     14  C   UNL     1       0.045  13.815  19.419  0.00  0.00    +0.000 A 
ATOM     15  C   UNL     1      -0.946  12.857  19.643  0.00  0.00    +0.000 A 
ATOM     16  C   UNL     1      -0.626  11.650  20.268  0.00  0.00    +0.000 A 
ATOM     17  C   UNL     1       0.685  11.383  20.693  0.00  0.00    +0.000 A 
ATOM     18  C   UNL     1       1.652  12.378  20.546  0.00  0.00    +0.000 A 
ATOM     19  C   UNL     1       1.339  13.558  19.884  0.00  0.00    +0.000 A 
ATOM     20  F   UNL     1       2.311  14.456  19.673  0.00  0.00    +0.000 F 
ENDBRANCH   1  17
BRANCH   8  21
ATOM     21  C   UNL     1       5.442   6.539  16.509  0.00  0.00    +0.000 C 
ATOM     22  C   UNL     1       6.705   6.856  17.311  0.00  0.00    +0.000 C 
ATOM     23  C   UNL     1       5.810   5.883  15.181  0.00  0.00    +0.000 C 
ENDBRANCH   8  21
BRANCH  11  24
ATOM     24  C   UNL     1       1.517   5.403  20.893  0.00  0.00    +0.000 C 
BRANCH  24  25
ATOM     25  O   UNL     1       1.187   4.272  20.101  0.00  0.00    +0.000 OA
ATOM     26  H   UNL     1       1.377   3.467  20.606  0.00  0.00    +0.000 HD
ENDBRANCH  24  25
ENDBRANCH  11  24
TORSDOF 4
ENDMDL
