MODEL 1
REMARK VINA RESULT:      -8.8      0.000      0.000
REMARK  Name = 
REMARK  5 active torsions:
REMARK  status: ('A' for Active; 'I' for Inactive)
REMARK    1  A    between atoms: C_2  and  C_3
REMARK    2  A    between atoms: C_3  and  N_4
REMARK    3  A    between atoms: C_10  and  C_11
REMARK    4  A    between atoms: C_11  and  C_13
REMARK    5  A    between atoms: N_23  and  C_24
REMARK                            x       y       z     vdW  Elec       q    Type
REMARK                         _______ _______ _______ _____ _____    ______ ____
ROOT
ATOM      1  N   UNL     1      -0.018  11.106  19.808  0.00  0.00    +0.000 N 
ATOM      2  C   UNL     1      -0.365  11.172  21.146  0.00  0.00    +0.000 A 
ATOM      3  O   UNL     1      -1.120  11.984  21.654  0.00  0.00    +0.000 OA
ATOM      4  S   UNL     1       0.387   9.837  22.028  0.00  0.00    +0.000 S 
ATOM      5  C   UNL     1       1.020   9.144  20.527  0.00  0.00    +0.000 A 
ATOM      6  C   UNL     1       1.712   7.956  20.369  0.00  0.00    +0.000 A 
ATOM      7  C   UNL     1       2.094   7.575  19.077  0.00  0.00    +0.000 A 
ATOM      8  C   UNL     1       1.738   8.367  17.968  0.00  0.00    +0.000 A 
ATOM      9  C   UNL     1       1.059   9.577  18.147  0.00  0.00    +0.000 A 
ATOM     10  C   UNL     1       0.704   9.955  19.435  0.00  0.00    +0.000 A 
ENDROOT
BRANCH   7  11
ATOM     11  C   UNL     1       2.842   6.306  18.914  0.00  0.00    +0.000 C 
ATOM     12  O   UNL     1       3.937   6.335  18.358  0.00  0.00    +0.000 OA
BRANCH  11  13
ATOM     13  C   UNL     1       2.313   5.006  19.393  0.00  0.00    +0.000 A 
ATOM     14  C   UNL     1       2.666   4.571  20.677  0.00  0.00    +0.000 A 
ATOM     15  C   UNL     1       2.218   3.334  21.148  0.00  0.00    +0.000 A 
ATOM     16  C   UNL     1       1.416   2.526  20.341  0.00  0.00    +0.000 A 
ATOM     17  C   UNL     1       1.067   2.951  19.060  0.00  0.00    +0.000 A 
ATOM     18  C   UNL     1       1.527   4.178  18.588  0.00  0.00    +0.000 A 
ATOM     19  F   UNL     1       1.212   4.522  17.331  0.00  0.00    +0.000 F 
ENDBRANCH  11  13
ENDBRANCH   7  11
BRANCH   1  20
ATOM     20  C   UNL     1      -0.513  12.072  18.849  0.00  0.00    +0.000 C 
BRANCH  20  22
ATOM     21  O   UNL     1      -2.136  11.030  17.448  0.00  0.00    +0.000 OA
ATOM     22  C   UNL     1      -1.941  11.746  18.428  0.00  0.00    +0.000 C 
ATOM     23  N   UNL     1      -2.915  12.376  19.188  0.00  0.00    +0.000 N 
ATOM     24  H   UNL     1      -2.609  13.124  19.804  0.00  0.00    +0.000 HD
BRANCH  23  25
ATOM     25  C   UNL     1      -4.307  12.195  19.053  0.00  0.00    +0.000 A 
ATOM     26  C   UNL     1      -5.196  12.296  20.125  0.00  0.00    +0.000 A 
ATOM     27  C   UNL     1      -6.559  12.042  19.948  0.00  0.00    +0.000 A 
ATOM     28  C   UNL     1      -7.045  11.694  18.692  0.00  0.00    +0.000 A 
ATOM     29  C   UNL     1      -6.174  11.638  17.605  0.00  0.00    +0.000 A 
ATOM     30  C   UNL     1      -4.812  11.900  17.781  0.00  0.00    +0.000 A 
ENDBRANCH  23  25
ENDBRANCH  20  22
ENDBRANCH   1  20
TORSDOF 5
ENDMDL
MODEL 2
REMARK VINA RESULT:      -8.8      0.966      1.574
REMARK  Name = 
REMARK  5 active torsions:
REMARK  status: ('A' for Active; 'I' for Inactive)
REMARK    1  A    between atoms: C_2  and  C_3
REMARK    2  A    between atoms: C_3  and  N_4
REMARK    3  A    between atoms: C_10  and  C_11
REMARK    4  A    between atoms: C_11  and  C_13
REMARK    5  A    between atoms: N_23  and  C_24
REMARK                            x       y       z     vdW  Elec       q    Type
REMARK                         _______ _______ _______ _____ _____    ______ ____
ROOT
ATOM      1  N   UNL     1      -0.063  10.738  19.671  0.00  0.00    +0.000 N 
ATOM      2  C   UNL     1      -0.446  10.859  20.994  0.00  0.00    +0.000 A 
ATOM      3  O   UNL     1      -1.264  11.649  21.438  0.00  0.00    +0.000 OA
ATOM      4  S   UNL     1       0.367   9.630  21.970  0.00  0.00    +0.000 S 
ATOM      5  C   UNL     1       1.080   8.893  20.527  0.00  0.00    +0.000 A 
ATOM      6  C   UNL     1       1.851   7.746  20.455  0.00  0.00    +0.000 A 
ATOM      7  C   UNL     1       2.287   7.316  19.196  0.00  0.00    +0.000 A 
ATOM      8  C   UNL     1       1.909   8.017  18.035  0.00  0.00    +0.000 A 
ATOM      9  C   UNL     1       1.151   9.188  18.126  0.00  0.00    +0.000 A 
ATOM     10  C   UNL     1       0.740   9.617  19.382  0.00  0.00    +0.000 A 
ENDROOT
BRANCH   7  11
ATOM     11  C   UNL     1       3.118   6.091  19.125  0.00  0.00    +0.000 C 
ATOM     12  O   UNL     1       4.335   6.211  18.995  0.00  0.00    +0.000 OA
BRANCH  11  13
ATOM     13  C   UNL     1       2.534   4.730  19.200  0.00  0.00    +0.000 A 
ATOM     14  C   UNL     1       2.215   4.071  18.005  0.00  0.00    +0.000 A 
ATOM     15  C   UNL     1       1.627   2.804  18.036  0.00  0.00    +0.000 A 
ATOM     16  C   UNL     1       1.356   2.188  19.258  0.00  0.00    +0.000 A 
ATOM     17  C   UNL     1       1.665   2.841  20.450  0.00  0.00    +0.000 A 
ATOM     18  C   UNL     1       2.237   4.111  20.416  0.00  0.00    +0.000 A 
ATOM     19  F   UNL     1       2.467   4.724  21.585  0.00  0.00    +0.000 F 
ENDBRANCH  11  13
ENDBRANCH   7  11
BRANCH   1  20
ATOM     20  C   UNL     1      -0.594  11.613  18.646  0.00  0.00    +0.000 C 
BRANCH  20  22
ATOM     21  O   UNL     1      -2.330  10.317  17.648  0.00  0.00    +0.000 OA
ATOM     22  C   UNL     1      -2.054  11.288  18.350  0.00  0.00    +0.000 C 
ATOM     23  N   UNL     1      -2.956  12.205  18.871  0.00  0.00    +0.000 N 
ATOM     24  H   UNL     1      -2.576  13.082  19.217  0.00  0.00    +0.000 HD
BRANCH  23  25
ATOM     25  C   UNL     1      -4.360  12.105  18.800  0.00  0.00    +0.000 A 
ATOM     26  C   UNL     1      -5.050  11.885  17.605  0.00  0.00    +0.000 A 
ATOM     27  C   UNL     1      -6.447  11.861  17.582  0.00  0.00    +0.000 A 
ATOM     28  C   UNL     1      -7.166  12.048  18.758  0.00  0.00    +0.000 A 
ATOM     29  C   UNL     1      -6.489  12.221  19.963  0.00  0.00    +0.000 A 
ATOM     30  C   UNL     1      -5.090  12.236  19.988  0.00  0.00    +0.000 A 
ENDBRANCH  23  25
ENDBRANCH  20  22
ENDBRANCH   1  20
TORSDOF 5
ENDMDL
MODEL 3
REMARK VINA RESULT:      -8.7      2.046      2.889
REMARK  Name = 
REMARK  5 active torsions:
REMARK  status: ('A' for Active; 'I' for Inactive)
REMARK    1  A    between atoms: C_2  and  C_3
REMARK    2  A    between atoms: C_3  and  N_4
REMARK    3  A    between atoms: C_10  and  C_11
REMARK    4  A    between atoms: C_11  and  C_13
REMARK    5  A    between atoms: N_23  and  C_24
REMARK                            x       y       z     vdW  Elec       q    Type
REMARK                         _______ _______ _______ _____ _____    ______ ____
ROOT
ATOM      1  N   UNL     1       0.288  10.414  19.915  0.00  0.00    +0.000 N 
ATOM      2  C   UNL     1       0.036  10.265  21.267  0.00  0.00    +0.000 A 
ATOM      3  O   UNL     1      -0.723  10.946  21.937  0.00  0.00    +0.000 OA
ATOM      4  S   UNL     1       0.922   8.870  21.893  0.00  0.00    +0.000 S 
ATOM      5  C   UNL     1       1.481   8.441  20.268  0.00  0.00    +0.000 A 
ATOM      6  C   UNL     1       2.224   7.335  19.894  0.00  0.00    +0.000 A 
ATOM      7  C   UNL     1       2.530   7.168  18.538  0.00  0.00    +0.000 A 
ATOM      8  C   UNL     1       2.052   8.086  17.583  0.00  0.00    +0.000 A 
ATOM      9  C   UNL     1       1.323   9.211  17.981  0.00  0.00    +0.000 A 
ATOM     10  C   UNL     1       1.043   9.378  19.330  0.00  0.00    +0.000 A 
ENDROOT
BRANCH   7  11
ATOM     11  C   UNL     1       3.332   5.986  18.142  0.00  0.00    +0.000 C 
ATOM     12  O   UNL     1       2.744   4.959  17.810  0.00  0.00    +0.000 OA
BRANCH  11  13
ATOM     13  C   UNL     1       4.815   5.998  18.137  0.00  0.00    +0.000 A 
ATOM     14  C   UNL     1       5.493   5.468  19.243  0.00  0.00    +0.000 A 
ATOM     15  C   UNL     1       6.889   5.497  19.292  0.00  0.00    +0.000 A 
ATOM     16  C   UNL     1       7.615   6.054  18.238  0.00  0.00    +0.000 A 
ATOM     17  C   UNL     1       6.946   6.589  17.139  0.00  0.00    +0.000 A 
ATOM     18  C   UNL     1       5.553   6.573  17.100  0.00  0.00    +0.000 A 
ATOM     19  F   UNL     1       4.951   7.146  16.050  0.00  0.00    +0.000 F 
ENDBRANCH  11  13
ENDBRANCH   7  11
BRANCH   1  20
ATOM     20  C   UNL     1      -0.327  11.474  19.142  0.00  0.00    +0.000 C 
BRANCH  20  22
ATOM     21  O   UNL     1      -2.033  10.023  18.325  0.00  0.00    +0.000 OA
ATOM     22  C   UNL     1      -1.770  11.130  18.790  0.00  0.00    +0.000 C 
ATOM     23  N   UNL     1      -2.664  12.174  18.975  0.00  0.00    +0.000 N 
ATOM     24  H   UNL     1      -2.270  13.098  19.132  0.00  0.00    +0.000 HD
BRANCH  23  25
ATOM     25  C   UNL     1      -4.060  12.103  18.790  0.00  0.00    +0.000 A 
ATOM     26  C   UNL     1      -4.652  11.843  17.552  0.00  0.00    +0.000 A 
ATOM     27  C   UNL     1      -6.042  11.848  17.411  0.00  0.00    +0.000 A 
ATOM     28  C   UNL     1      -6.853  12.105  18.512  0.00  0.00    +0.000 A 
ATOM     29  C   UNL     1      -6.274  12.318  19.762  0.00  0.00    +0.000 A 
ATOM     30  C   UNL     1      -4.883  12.304  19.905  0.00  0.00    +0.000 A 
ENDBRANCH  23  25
ENDBRANCH  20  22
ENDBRANCH   1  20
TORSDOF 5
ENDMDL
MODEL 4
REMARK VINA RESULT:      -8.7      1.168      1.418
REMARK  Name = 
REMARK  5 active torsions:
REMARK  status: ('A' for Active; 'I' for Inactive)
REMARK    1  A    between atoms: C_2  and  C_3
REMARK    2  A    between atoms: C_3  and  N_4
REMARK    3  A    between atoms: C_10  and  C_11
REMARK    4  A    between atoms: C_11  and  C_13
REMARK    5  A    between atoms: N_23  and  C_24
REMARK                            x       y       z     vdW  Elec       q    Type
REMARK                         _______ _______ _______ _____ _____    ______ ____
ROOT
ATOM      1  N   UNL     1       0.030  10.701  19.923  0.00  0.00    +0.000 N 
ATOM      2  C   UNL     1      -0.287  10.483  21.252  0.00  0.00    +0.000 A 
ATOM      3  O   UNL     1      -1.102  11.109  21.910  0.00  0.00    +0.000 OA
ATOM      4  S   UNL     1       0.611   9.088  21.863  0.00  0.00    +0.000 S 
ATOM      5  C   UNL     1       1.268   8.751  20.254  0.00  0.00    +0.000 A 
ATOM      6  C   UNL     1       2.065   7.686  19.871  0.00  0.00    +0.000 A 
ATOM      7  C   UNL     1       2.447   7.591  18.528  0.00  0.00    +0.000 A 
ATOM      8  C   UNL     1       1.989   8.536  17.590  0.00  0.00    +0.000 A 
ATOM      9  C   UNL     1       1.204   9.619  17.997  0.00  0.00    +0.000 A 
ATOM     10  C   UNL     1       0.848   9.715  19.335  0.00  0.00    +0.000 A 
ENDROOT
BRANCH   7  11
ATOM     11  C   UNL     1       3.307   6.453  18.124  0.00  0.00    +0.000 C 
ATOM     12  O   UNL     1       4.346   6.688  17.512  0.00  0.00    +0.000 OA
BRANCH  11  13
ATOM     13  C   UNL     1       2.956   5.045  18.429  0.00  0.00    +0.000 A 
ATOM     14  C   UNL     1       1.710   4.559  18.007  0.00  0.00    +0.000 A 
ATOM     15  C   UNL     1       1.328   3.250  18.309  0.00  0.00    +0.000 A 
ATOM     16  C   UNL     1       2.185   2.419  19.032  0.00  0.00    +0.000 A 
ATOM     17  C   UNL     1       3.422   2.899  19.460  0.00  0.00    +0.000 A 
ATOM     18  C   UNL     1       3.794   4.210  19.171  0.00  0.00    +0.000 A 
ATOM     19  F   UNL     1       4.968   4.646  19.648  0.00  0.00    +0.000 F 
ENDBRANCH  11  13
ENDBRANCH   7  11
BRANCH   1  20
ATOM     20  C   UNL     1      -0.579  11.775  19.166  0.00  0.00    +0.000 C 
BRANCH  20  22
ATOM     21  O   UNL     1      -2.262  10.527  18.029  0.00  0.00    +0.000 OA
ATOM     22  C   UNL     1      -2.024  11.445  18.811  0.00  0.00    +0.000 C 
ATOM     23  N   UNL     1      -2.957  12.300  19.379  0.00  0.00    +0.000 N 
ATOM     24  H   UNL     1      -2.605  13.155  19.801  0.00  0.00    +0.000 HD
BRANCH  23  25
ATOM     25  C   UNL     1      -4.357  12.179  19.266  0.00  0.00    +0.000 A 
ATOM     26  C   UNL     1      -5.229  12.382  20.339  0.00  0.00    +0.000 A 
ATOM     27  C   UNL     1      -6.604  12.185  20.188  0.00  0.00    +0.000 A 
ATOM     28  C   UNL     1      -7.120  11.790  18.958  0.00  0.00    +0.000 A 
ATOM     29  C   UNL     1      -6.266  11.630  17.869  0.00  0.00    +0.000 A 
ATOM     30  C   UNL     1      -4.890  11.837  18.018  0.00  0.00    +0.000 A 
ENDBRANCH  23  25
ENDBRANCH  20  22
ENDBRANCH   1  20
TORSDOF 5
ENDMDL
MODEL 5
REMARK VINA RESULT:      -8.6      1.702      2.327
REMARK  Name = 
REMARK  5 active torsions:
REMARK  status: ('A' for Active; 'I' for Inactive)
REMARK    1  A    between atoms: C_2  and  C_3
REMARK    2  A    between atoms: C_3  and  N_4
REMARK    3  A    between atoms: C_10  and  C_11
REMARK    4  A    between atoms: C_11  and  C_13
REMARK    5  A    between atoms: N_23  and  C_24
REMARK                            x       y       z     vdW  Elec       q    Type
REMARK                         _______ _______ _______ _____ _____    ______ ____
ROOT
ATOM      1  N   UNL     1       1.164  10.626  20.029  0.00  0.00    +0.000 N 
ATOM      2  C   UNL     1       0.680  10.386  21.302  0.00  0.00    +0.000 A 
ATOM      3  O   UNL     1       0.035  11.164  21.985  0.00  0.00    +0.000 OA
ATOM      4  S   UNL     1       1.059   8.729  21.787  0.00  0.00    +0.000 S 
ATOM      5  C   UNL     1       1.725   8.367  20.187  0.00  0.00    +0.000 A 
ATOM      6  C   UNL     1       2.197   7.152  19.722  0.00  0.00    +0.000 A 
ATOM      7  C   UNL     1       2.651   7.077  18.400  0.00  0.00    +0.000 A 
ATOM      8  C   UNL     1       2.584   8.206  17.560  0.00  0.00    +0.000 A 
ATOM      9  C   UNL     1       2.127   9.432  18.052  0.00  0.00    +0.000 A 
ATOM     10  C   UNL     1       1.698   9.500  19.371  0.00  0.00    +0.000 A 
ENDROOT
BRANCH   7  11
ATOM     11  C   UNL     1       3.163   5.775  17.909  0.00  0.00    +0.000 C 
ATOM     12  O   UNL     1       4.011   5.773  17.020  0.00  0.00    +0.000 OA
BRANCH  11  13
ATOM     13  C   UNL     1       2.684   4.480  18.448  0.00  0.00    +0.000 A 
ATOM     14  C   UNL     1       1.393   4.050  18.111  0.00  0.00    +0.000 A 
ATOM     15  C   UNL     1       0.892   2.854  18.631  0.00  0.00    +0.000 A 
ATOM     16  C   UNL     1       1.677   2.080  19.488  0.00  0.00    +0.000 A 
ATOM     17  C   UNL     1       2.959   2.506  19.832  0.00  0.00    +0.000 A 
ATOM     18  C   UNL     1       3.449   3.707  19.324  0.00  0.00    +0.000 A 
ATOM     19  F   UNL     1       4.665   4.104  19.724  0.00  0.00    +0.000 F 
ENDBRANCH  11  13
ENDBRANCH   7  11
BRANCH   1  20
ATOM     20  C   UNL     1       0.977  11.905  19.376  0.00  0.00    +0.000 C 
BRANCH  20  22
ATOM     21  O   UNL     1      -1.115  13.041  19.498  0.00  0.00    +0.000 OA
ATOM     22  C   UNL     1      -0.483  12.116  18.993  0.00  0.00    +0.000 C 
ATOM     23  N   UNL     1      -0.988  11.157  18.127  0.00  0.00    +0.000 N 
ATOM     24  H   UNL     1      -0.427  10.321  17.986  0.00  0.00    +0.000 HD
BRANCH  23  25
ATOM     25  C   UNL     1      -2.282  11.155  17.567  0.00  0.00    +0.000 A 
ATOM     26  C   UNL     1      -2.530  10.870  16.223  0.00  0.00    +0.000 A 
ATOM     27  C   UNL     1      -3.826  10.946  15.705  0.00  0.00    +0.000 A 
ATOM     28  C   UNL     1      -4.886  11.301  16.532  0.00  0.00    +0.000 A 
ATOM     29  C   UNL     1      -4.658  11.541  17.885  0.00  0.00    +0.000 A 
ATOM     30  C   UNL     1      -3.362  11.456  18.405  0.00  0.00    +0.000 A 
ENDBRANCH  23  25
ENDBRANCH  20  22
ENDBRANCH   1  20
TORSDOF 5
ENDMDL
MODEL 6
REMARK VINA RESULT:      -8.6      2.739      4.988
REMARK  Name = 
REMARK  5 active torsions:
REMARK  status: ('A' for Active; 'I' for Inactive)
REMARK    1  A    between atoms: C_2  and  C_3
REMARK    2  A    between atoms: C_3  and  N_4
REMARK    3  A    between atoms: C_10  and  C_11
REMARK    4  A    between atoms: C_11  and  C_13
REMARK    5  A    between atoms: N_23  and  C_24
REMARK                            x       y       z     vdW  Elec       q    Type
REMARK                         _______ _______ _______ _____ _____    ______ ____
ROOT
ATOM      1  N   UNL     1       0.096  11.085  19.586  0.00  0.00    +0.000 N 
ATOM      2  C   UNL     1      -0.465  11.171  20.848  0.00  0.00    +0.000 A 
ATOM      3  O   UNL     1      -1.266  12.011  21.224  0.00  0.00    +0.000 OA
ATOM      4  S   UNL     1       0.085   9.818  21.844  0.00  0.00    +0.000 S 
ATOM      5  C   UNL     1       0.935   9.095  20.469  0.00  0.00    +0.000 A 
ATOM      6  C   UNL     1       1.603   7.883  20.429  0.00  0.00    +0.000 A 
ATOM      7  C   UNL     1       2.180   7.482  19.219  0.00  0.00    +0.000 A 
ATOM      8  C   UNL     1       2.040   8.278  18.066  0.00  0.00    +0.000 A 
ATOM      9  C   UNL     1       1.382   9.510  18.128  0.00  0.00    +0.000 A 
ATOM     10  C   UNL     1       0.831   9.908  19.339  0.00  0.00    +0.000 A 
ENDROOT
BRANCH   7  11
ATOM     11  C   UNL     1       2.902   6.188  19.183  0.00  0.00    +0.000 C 
ATOM     12  O   UNL     1       4.048   6.164  18.739  0.00  0.00    +0.000 OA
BRANCH  11  13
ATOM     13  C   UNL     1       2.289   4.924  19.658  0.00  0.00    +0.000 A 
ATOM     14  C   UNL     1       2.546   4.506  20.971  0.00  0.00    +0.000 A 
ATOM     15  C   UNL     1       2.017   3.301  21.441  0.00  0.00    +0.000 A 
ATOM     16  C   UNL     1       1.229   2.509  20.606  0.00  0.00    +0.000 A 
ATOM     17  C   UNL     1       0.976   2.916  19.297  0.00  0.00    +0.000 A 
ATOM     18  C   UNL     1       1.517   4.110  18.826  0.00  0.00    +0.000 A 
ATOM     19  F   UNL     1       1.292   4.435  17.545  0.00  0.00    +0.000 F 
ENDBRANCH  11  13
ENDBRANCH   7  11
BRANCH   1  20
ATOM     20  C   UNL     1      -0.200  12.061  18.558  0.00  0.00    +0.000 C 
BRANCH  20  22
ATOM     21  O   UNL     1       0.098  14.412  18.818  0.00  0.00    +0.000 OA
ATOM     22  C   UNL     1       0.647  13.315  18.732  0.00  0.00    +0.000 C 
ATOM     23  N   UNL     1       2.015  13.085  18.704  0.00  0.00    +0.000 N 
ATOM     24  H   UNL     1       2.323  12.171  18.384  0.00  0.00    +0.000 HD
BRANCH  23  25
ATOM     25  C   UNL     1       3.016  14.057  18.907  0.00  0.00    +0.000 A 
ATOM     26  C   UNL     1       3.589  14.790  17.866  0.00  0.00    +0.000 A 
ATOM     27  C   UNL     1       4.624  15.695  18.116  0.00  0.00    +0.000 A 
ATOM     28  C   UNL     1       5.088  15.881  19.414  0.00  0.00    +0.000 A 
ATOM     29  C   UNL     1       4.491  15.190  20.467  0.00  0.00    +0.000 A 
ATOM     30  C   UNL     1       3.449  14.291  20.218  0.00  0.00    +0.000 A 
ENDBRANCH  23  25
ENDBRANCH  20  22
ENDBRANCH   1  20
TORSDOF 5
ENDMDL
MODEL 7
REMARK VINA RESULT:      -8.6      2.459      3.208
REMARK  Name = 
REMARK  5 active torsions:
REMARK  status: ('A' for Active; 'I' for Inactive)
REMARK    1  A    between atoms: C_2  and  C_3
REMARK    2  A    between atoms: C_3  and  N_4
REMARK    3  A    between atoms: C_10  and  C_11
REMARK    4  A    between atoms: C_11  and  C_13
REMARK    5  A    between atoms: N_23  and  C_24
REMARK                            x       y       z     vdW  Elec       q    Type
REMARK                         _______ _______ _______ _____ _____    ______ ____
ROOT
ATOM      1  N   UNL     1       0.892   9.864  19.576  0.00  0.00    +0.000 N 
ATOM      2  C   UNL     1       0.408   9.883  20.872  0.00  0.00    +0.000 A 
ATOM      3  O   UNL     1      -0.359  10.708  21.341  0.00  0.00    +0.000 OA
ATOM      4  S   UNL     1       0.999   8.471  21.756  0.00  0.00    +0.000 S 
ATOM      5  C   UNL     1       1.756   7.819  20.295  0.00  0.00    +0.000 A 
ATOM      6  C   UNL     1       2.406   6.606  20.148  0.00  0.00    +0.000 A 
ATOM      7  C   UNL     1       2.906   6.269  18.884  0.00  0.00    +0.000 A 
ATOM      8  C   UNL     1       2.708   7.130  17.788  0.00  0.00    +0.000 A 
ATOM      9  C   UNL     1       2.070   8.363  17.958  0.00  0.00    +0.000 A 
ATOM     10  C   UNL     1       1.597   8.696  19.220  0.00  0.00    +0.000 A 
ENDROOT
BRANCH   7  11
ATOM     11  C   UNL     1       3.608   4.971  18.733  0.00  0.00    +0.000 C 
ATOM     12  O   UNL     1       3.146   3.983  19.299  0.00  0.00    +0.000 OA
BRANCH  11  13
ATOM     13  C   UNL     1       4.846   4.828  17.930  0.00  0.00    +0.000 A 
ATOM     14  C   UNL     1       4.744   4.318  16.628  0.00  0.00    +0.000 A 
ATOM     15  C   UNL     1       5.893   4.133  15.855  0.00  0.00    +0.000 A 
ATOM     16  C   UNL     1       7.147   4.455  16.376  0.00  0.00    +0.000 A 
ATOM     17  C   UNL     1       7.255   4.955  17.672  0.00  0.00    +0.000 A 
ATOM     18  C   UNL     1       6.109   5.125  18.446  0.00  0.00    +0.000 A 
ATOM     19  F   UNL     1       6.264   5.557  19.705  0.00  0.00    +0.000 F 
ENDBRANCH  11  13
ENDBRANCH   7  11
BRANCH   1  20
ATOM     20  C   UNL     1       0.548  10.899  18.624  0.00  0.00    +0.000 C 
BRANCH  20  22
ATOM     21  O   UNL     1      -1.177   9.867  17.341  0.00  0.00    +0.000 OA
ATOM     22  C   UNL     1      -0.892  10.750  18.148  0.00  0.00    +0.000 C 
ATOM     23  N   UNL     1      -1.757  11.714  18.645  0.00  0.00    +0.000 N 
ATOM     24  H   UNL     1      -1.338  12.519  19.103  0.00  0.00    +0.000 HD
BRANCH  23  25
ATOM     25  C   UNL     1      -3.147  11.766  18.417  0.00  0.00    +0.000 A 
ATOM     26  C   UNL     1      -3.733  11.423  17.196  0.00  0.00    +0.000 A 
ATOM     27  C   UNL     1      -5.111  11.555  17.004  0.00  0.00    +0.000 A 
ATOM     28  C   UNL     1      -5.916  12.025  18.036  0.00  0.00    +0.000 A 
ATOM     29  C   UNL     1      -5.349  12.326  19.273  0.00  0.00    +0.000 A 
ATOM     30  C   UNL     1      -3.972  12.184  19.469  0.00  0.00    +0.000 A 
ENDBRANCH  23  25
ENDBRANCH  20  22
ENDBRANCH   1  20
TORSDOF 5
ENDMDL
MODEL 8
REMARK VINA RESULT:      -8.6      2.003      2.969
REMARK  Name = 
REMARK  5 active torsions:
REMARK  status: ('A' for Active; 'I' for Inactive)
REMARK    1  A    between atoms: C_2  and  C_3
REMARK    2  A    between atoms: C_3  and  N_4
REMARK    3  A    between atoms: C_10  and  C_11
REMARK    4  A    between atoms: C_11  and  C_13
REMARK    5  A    between atoms: N_23  and  C_24
REMARK                            x       y       z     vdW  Elec       q    Type
REMARK                         _______ _______ _______ _____ _____    ______ ____
ROOT
ATOM      1  N   UNL     1       0.161  10.477  19.881  0.00  0.00    +0.000 N 
ATOM      2  C   UNL     1      -0.097  10.301  21.229  0.00  0.00    +0.000 A 
ATOM      3  O   UNL     1      -0.880  10.950  21.903  0.00  0.00    +0.000 OA
ATOM      4  S   UNL     1       0.823   8.921  21.842  0.00  0.00    +0.000 S 
ATOM      5  C   UNL     1       1.406   8.532  20.216  0.00  0.00    +0.000 A 
ATOM      6  C   UNL     1       2.182   7.452  19.831  0.00  0.00    +0.000 A 
ATOM      7  C   UNL     1       2.504   7.315  18.476  0.00  0.00    +0.000 A 
ATOM      8  C   UNL     1       2.008   8.233  17.530  0.00  0.00    +0.000 A 
ATOM      9  C   UNL     1       1.245   9.332  17.938  0.00  0.00    +0.000 A 
ATOM     10  C   UNL     1       0.949   9.470  19.288  0.00  0.00    +0.000 A 
ENDROOT
BRANCH   7  11
ATOM     11  C   UNL     1       3.342   6.161  18.069  0.00  0.00    +0.000 C 
ATOM     12  O   UNL     1       2.787   5.153  17.639  0.00  0.00    +0.000 OA
BRANCH  11  13
ATOM     13  C   UNL     1       4.821   6.181  18.169  0.00  0.00    +0.000 A 
ATOM     14  C   UNL     1       5.541   7.006  17.294  0.00  0.00    +0.000 A 
ATOM     15  C   UNL     1       6.937   7.022  17.333  0.00  0.00    +0.000 A 
ATOM     16  C   UNL     1       7.622   6.216  18.243  0.00  0.00    +0.000 A 
ATOM     17  C   UNL     1       6.911   5.388  19.111  0.00  0.00    +0.000 A 
ATOM     18  C   UNL     1       5.520   5.363  19.060  0.00  0.00    +0.000 A 
ATOM     19  F   UNL     1       4.880   4.513  19.875  0.00  0.00    +0.000 F 
ENDBRANCH  11  13
ENDBRANCH   7  11
BRANCH   1  20
ATOM     20  C   UNL     1      -0.477  11.530  19.119  0.00  0.00    +0.000 C 
BRANCH  20  22
ATOM     21  O   UNL     1      -2.172  10.084  18.271  0.00  0.00    +0.000 OA
ATOM     22  C   UNL     1      -1.921  11.170  18.789  0.00  0.00    +0.000 C 
ATOM     23  N   UNL     1      -2.833  12.181  19.056  0.00  0.00    +0.000 N 
ATOM     24  H   UNL     1      -2.456  13.104  19.252  0.00  0.00    +0.000 HD
BRANCH  23  25
ATOM     25  C   UNL     1      -4.232  12.085  18.906  0.00  0.00    +0.000 A 
ATOM     26  C   UNL     1      -4.850  11.795  17.688  0.00  0.00    +0.000 A 
ATOM     27  C   UNL     1      -6.243  11.777  17.580  0.00  0.00    +0.000 A 
ATOM     28  C   UNL     1      -7.030  12.040  18.696  0.00  0.00    +0.000 A 
ATOM     29  C   UNL     1      -6.425  12.285  19.927  0.00  0.00    +0.000 A 
ATOM     30  C   UNL     1      -5.031  12.294  20.036  0.00  0.00    +0.000 A 
ENDBRANCH  23  25
ENDBRANCH  20  22
ENDBRANCH   1  20
TORSDOF 5
ENDMDL
MODEL 9
REMARK VINA RESULT:      -8.6      2.664      3.861
REMARK  Name = 
REMARK  5 active torsions:
REMARK  status: ('A' for Active; 'I' for Inactive)
REMARK    1  A    between atoms: C_2  and  C_3
REMARK    2  A    between atoms: C_3  and  N_4
REMARK    3  A    between atoms: C_10  and  C_11
REMARK    4  A    between atoms: C_11  and  C_13
REMARK    5  A    between atoms: N_23  and  C_24
REMARK                            x       y       z     vdW  Elec       q    Type
REMARK                         _______ _______ _______ _____ _____    ______ ____
ROOT
ATOM      1  N   UNL     1      -0.009  11.141  19.402  0.00  0.00    +0.000 N 
ATOM      2  C   UNL     1      -0.533  11.292  20.673  0.00  0.00    +0.000 A 
ATOM      3  O   UNL     1      -1.337  12.140  21.024  0.00  0.00    +0.000 OA
ATOM      4  S   UNL     1       0.072  10.011  21.730  0.00  0.00    +0.000 S 
ATOM      5  C   UNL     1       0.893   9.221  20.374  0.00  0.00    +0.000 A 
ATOM      6  C   UNL     1       1.582   8.021  20.385  0.00  0.00    +0.000 A 
ATOM      7  C   UNL     1       2.129   7.558  19.183  0.00  0.00    +0.000 A 
ATOM      8  C   UNL     1       1.940   8.282  17.990  0.00  0.00    +0.000 A 
ATOM      9  C   UNL     1       1.261   9.504  18.000  0.00  0.00    +0.000 A 
ATOM     10  C   UNL     1       0.740   9.964  19.202  0.00  0.00    +0.000 A 
ENDROOT
BRANCH   7  11
ATOM     11  C   UNL     1       2.873   6.276  19.201  0.00  0.00    +0.000 C 
ATOM     12  O   UNL     1       4.030   6.260  18.787  0.00  0.00    +0.000 OA
BRANCH  11  13
ATOM     13  C   UNL     1       2.269   5.015  19.695  0.00  0.00    +0.000 A 
ATOM     14  C   UNL     1       2.531   4.619  21.014  0.00  0.00    +0.000 A 
ATOM     15  C   UNL     1       2.011   3.418  21.503  0.00  0.00    +0.000 A 
ATOM     16  C   UNL     1       1.228   2.607  20.681  0.00  0.00    +0.000 A 
ATOM     17  C   UNL     1       0.971   2.993  19.366  0.00  0.00    +0.000 A 
ATOM     18  C   UNL     1       1.503   4.183  18.876  0.00  0.00    +0.000 A 
ATOM     19  F   UNL     1       1.275   4.488  17.591  0.00  0.00    +0.000 F 
ENDBRANCH  11  13
ENDBRANCH   7  11
BRANCH   1  20
ATOM     20  C   UNL     1      -0.353  12.049  18.328  0.00  0.00    +0.000 C 
BRANCH  20  22
ATOM     21  O   UNL     1       1.479  13.568  18.467  0.00  0.00    +0.000 OA
ATOM     22  C   UNL     1       0.261  13.425  18.555  0.00  0.00    +0.000 C 
ATOM     23  N   UNL     1      -0.653  14.402  18.922  0.00  0.00    +0.000 N 
ATOM     24  H   UNL     1      -1.581  14.088  19.192  0.00  0.00    +0.000 HD
BRANCH  23  25
ATOM     25  C   UNL     1      -0.360  15.766  19.126  0.00  0.00    +0.000 A 
ATOM     26  C   UNL     1      -0.380  16.712  18.098  0.00  0.00    +0.000 A 
ATOM     27  C   UNL     1      -0.018  18.039  18.342  0.00  0.00    +0.000 A 
ATOM     28  C   UNL     1       0.360  18.433  19.621  0.00  0.00    +0.000 A 
ATOM     29  C   UNL     1       0.338  17.510  20.664  0.00  0.00    +0.000 A 
ATOM     30  C   UNL     1      -0.033  16.183  20.421  0.00  0.00    +0.000 A 
ENDBRANCH  23  25
ENDBRANCH  20  22
ENDBRANCH   1  20
TORSDOF 5
ENDMDL
