MODEL 1
REMARK VINA RESULT:      -8.0      0.000      0.000
REMARK  Name = 
REMARK  6 active torsions:
REMARK  status: ('A' for Active; 'I' for Inactive)
REMARK    1  A    between atoms: C_1  and  C_2
REMARK    2  A    between atoms: C_2  and  P_3
REMARK    3  A    between atoms: P_3  and  O_5
REMARK    4  A    between atoms: P_3  and  C_6
REMARK    5  A    between atoms: C_11  and  C_12
REMARK    6  A    between atoms: C_16  and  C_17
REMARK                            x       y       z     vdW  Elec       q    Type
REMARK                         _______ _______ _______ _____ _____    ______ ____
ROOT
ATOM      1  C   UNL     1       0.581  10.313  20.499  0.00  0.00    +0.000 A 
ATOM      2  C   UNL     1       0.773  10.932  19.256  0.00  0.00    +0.000 A 
ATOM      3  C   UNL     1       1.444  10.269  18.206  0.00  0.00    +0.000 A 
ATOM      4  C   UNL     1       1.882   8.972  18.472  0.00  0.00    +0.000 A 
ATOM      5  O   UNL     1       2.541   8.103  17.642  0.00  0.00    +0.000 OA
ATOM      6  C   UNL     1       2.724   6.982  18.421  0.00  0.00    +0.000 A 
ATOM      7  N   UNL     1       2.226   7.067  19.638  0.00  0.00    +0.000 NA
ATOM      8  C   UNL     1       1.713   8.331  19.682  0.00  0.00    +0.000 A 
ATOM      9  C   UNL     1       1.078   9.004  20.718  0.00  0.00    +0.000 A 
ENDROOT
BRANCH   6  10
ATOM     10  C   UNL     1       3.485   5.871  17.857  0.00  0.00    +0.000 A 
ATOM     11  C   UNL     1       2.841   4.633  17.663  0.00  0.00    +0.000 A 
ATOM     12  C   UNL     1       3.547   3.522  17.208  0.00  0.00    +0.000 A 
ATOM     13  C   UNL     1       4.910   3.627  16.942  0.00  0.00    +0.000 A 
ATOM     14  C   UNL     1       5.575   4.850  17.116  0.00  0.00    +0.000 A 
ATOM     15  C   UNL     1       4.848   5.971  17.560  0.00  0.00    +0.000 A 
BRANCH  14  16
ATOM     16  C   UNL     1       7.057   4.975  16.866  0.00  0.00    +0.000 C 
ATOM     17  F   UNL     1       7.448   4.495  15.652  0.00  0.00    +0.000 F 
ATOM     18  F   UNL     1       7.485   6.268  16.910  0.00  0.00    +0.000 F 
ATOM     19  F   UNL     1       7.800   4.303  17.787  0.00  0.00    +0.000 F 
ENDBRANCH  14  16
ENDBRANCH   6  10
BRANCH   1  20
ATOM     20  P   UNL     1      -0.413  11.050  21.847  0.00  0.00    +0.000 P 
ATOM     21  O   UNL     1       0.378  12.369  21.787  0.00  0.00    +0.000 OA
BRANCH  20  23
ATOM     22  C   UNL     1      -1.322  13.307  23.184  0.00  0.00    +0.000 C 
ATOM     23  C   UNL     1      -1.408  11.787  23.195  0.00  0.00    +0.000 C 
ENDBRANCH  20  23
BRANCH  20  24
ATOM     24  O   UNL     1       0.351  10.130  22.987  0.00  0.00    +0.000 OA
ATOM     25  H   UNL     1       0.410   9.198  22.689  0.00  0.00    +0.000 HD
ENDBRANCH  20  24
ENDBRANCH   1  20
TORSDOF 5
ENDMDL
MODEL 2
REMARK VINA RESULT:      -7.8      2.157      2.711
REMARK  Name = 
REMARK  6 active torsions:
REMARK  status: ('A' for Active; 'I' for Inactive)
REMARK    1  A    between atoms: C_1  and  C_2
REMARK    2  A    between atoms: C_2  and  P_3
REMARK    3  A    between atoms: P_3  and  O_5
REMARK    4  A    between atoms: P_3  and  C_6
REMARK    5  A    between atoms: C_11  and  C_12
REMARK    6  A    between atoms: C_16  and  C_17
REMARK                            x       y       z     vdW  Elec       q    Type
REMARK                         _______ _______ _______ _____ _____    ______ ____
ROOT
ATOM      1  C   UNL     1       0.322  10.799  20.563  0.00  0.00    +0.000 A 
ATOM      2  C   UNL     1       0.383  11.257  19.239  0.00  0.00    +0.000 A 
ATOM      3  C   UNL     1       0.980  10.480  18.224  0.00  0.00    +0.000 A 
ATOM      4  C   UNL     1       1.483   9.238  18.610  0.00  0.00    +0.000 A 
ATOM      5  O   UNL     1       2.095   8.284  17.839  0.00  0.00    +0.000 OA
ATOM      6  C   UNL     1       2.382   7.276  18.733  0.00  0.00    +0.000 A 
ATOM      7  N   UNL     1       1.991   7.507  19.970  0.00  0.00    +0.000 NA
ATOM      8  C   UNL     1       1.442   8.754  19.902  0.00  0.00    +0.000 A 
ATOM      9  C   UNL     1       0.879   9.541  20.899  0.00  0.00    +0.000 A 
ENDROOT
BRANCH   6  10
ATOM     10  C   UNL     1       3.128   6.119  18.246  0.00  0.00    +0.000 A 
ATOM     11  C   UNL     1       4.212   6.328  17.371  0.00  0.00    +0.000 A 
ATOM     12  C   UNL     1       4.899   5.253  16.812  0.00  0.00    +0.000 A 
ATOM     13  C   UNL     1       4.512   3.949  17.116  0.00  0.00    +0.000 A 
ATOM     14  C   UNL     1       3.443   3.712  17.993  0.00  0.00    +0.000 A 
ATOM     15  C   UNL     1       2.767   4.806  18.564  0.00  0.00    +0.000 A 
BRANCH  14  16
ATOM     16  C   UNL     1       2.989   2.309  18.307  0.00  0.00    +0.000 C 
ATOM     17  F   UNL     1       2.992   2.020  19.639  0.00  0.00    +0.000 F 
ATOM     18  F   UNL     1       1.721   2.064  17.876  0.00  0.00    +0.000 F 
ATOM     19  F   UNL     1       3.773   1.363  17.721  0.00  0.00    +0.000 F 
ENDBRANCH  14  16
ENDBRANCH   6  10
BRANCH   1  20
ATOM     20  P   UNL     1      -0.574  11.682  21.893  0.00  0.00    +0.000 P 
ATOM     21  O   UNL     1       0.456  12.826  21.906  0.00  0.00    +0.000 OA
BRANCH  20  23
ATOM     22  C   UNL     1      -2.903  12.068  23.353  0.00  0.00    +0.000 C 
ATOM     23  C   UNL     1      -1.469  12.564  23.223  0.00  0.00    +0.000 C 
ENDBRANCH  20  23
BRANCH  20  24
ATOM     24  O   UNL     1      -0.050  10.606  23.033  0.00  0.00    +0.000 OA
ATOM     25  H   UNL     1      -0.541  10.733  23.872  0.00  0.00    +0.000 HD
ENDBRANCH  20  24
ENDBRANCH   1  20
TORSDOF 5
ENDMDL
MODEL 3
REMARK VINA RESULT:      -7.7      0.695      1.116
REMARK  Name = 
REMARK  6 active torsions:
REMARK  status: ('A' for Active; 'I' for Inactive)
REMARK    1  A    between atoms: C_1  and  C_2
REMARK    2  A    between atoms: C_2  and  P_3
REMARK    3  A    between atoms: P_3  and  O_5
REMARK    4  A    between atoms: P_3  and  C_6
REMARK    5  A    between atoms: C_11  and  C_12
REMARK    6  A    between atoms: C_16  and  C_17
REMARK                            x       y       z     vdW  Elec       q    Type
REMARK                         _______ _______ _______ _____ _____    ______ ____
ROOT
ATOM      1  C   UNL     1       0.573  10.915  20.361  0.00  0.00    +0.000 A 
ATOM      2  C   UNL     1       0.779  11.493  19.100  0.00  0.00    +0.000 A 
ATOM      3  C   UNL     1       1.401  10.773  18.059  0.00  0.00    +0.000 A 
ATOM      4  C   UNL     1       1.777   9.462  18.351  0.00  0.00    +0.000 A 
ATOM      5  O   UNL     1       2.380   8.541  17.535  0.00  0.00    +0.000 OA
ATOM      6  C   UNL     1       2.517   7.431  18.338  0.00  0.00    +0.000 A 
ATOM      7  N   UNL     1       2.040   7.571  19.559  0.00  0.00    +0.000 NA
ATOM      8  C   UNL     1       1.592   8.860  19.578  0.00  0.00    +0.000 A 
ATOM      9  C   UNL     1       1.006   9.589  20.606  0.00  0.00    +0.000 A 
ENDROOT
BRANCH   6  10
ATOM     10  C   UNL     1       3.214   6.271  17.792  0.00  0.00    +0.000 A 
ATOM     11  C   UNL     1       2.596   5.007  17.870  0.00  0.00    +0.000 A 
ATOM     12  C   UNL     1       3.257   3.859  17.440  0.00  0.00    +0.000 A 
ATOM     13  C   UNL     1       4.549   3.953  16.929  0.00  0.00    +0.000 A 
ATOM     14  C   UNL     1       5.185   5.199  16.830  0.00  0.00    +0.000 A 
ATOM     15  C   UNL     1       4.501   6.355  17.252  0.00  0.00    +0.000 A 
BRANCH  14  16
ATOM     16  C   UNL     1       6.595   5.316  16.311  0.00  0.00    +0.000 C 
ATOM     17  F   UNL     1       7.234   6.451  16.714  0.00  0.00    +0.000 F 
ATOM     18  F   UNL     1       7.386   4.283  16.714  0.00  0.00    +0.000 F 
ATOM     19  F   UNL     1       6.652   5.321  14.951  0.00  0.00    +0.000 F 
ENDBRANCH  14  16
ENDBRANCH   6  10
BRANCH   1  20
ATOM     20  P   UNL     1      -0.365  11.733  21.702  0.00  0.00    +0.000 P 
ATOM     21  O   UNL     1       0.642  12.895  21.776  0.00  0.00    +0.000 OA
BRANCH  20  23
ATOM     22  C   UNL     1      -2.698  11.958  23.192  0.00  0.00    +0.000 C 
ATOM     23  C   UNL     1      -1.303  12.552  23.044  0.00  0.00    +0.000 C 
ENDBRANCH  20  23
BRANCH  20  24
ATOM     24  O   UNL     1       0.156  10.628  22.814  0.00  0.00    +0.000 OA
ATOM     25  H   UNL     1       0.685  11.070  23.512  0.00  0.00    +0.000 HD
ENDBRANCH  20  24
ENDBRANCH   1  20
TORSDOF 5
ENDMDL
MODEL 4
REMARK VINA RESULT:      -7.6      4.991      8.924
REMARK  Name = 
REMARK  6 active torsions:
REMARK  status: ('A' for Active; 'I' for Inactive)
REMARK    1  A    between atoms: C_1  and  C_2
REMARK    2  A    between atoms: C_2  and  P_3
REMARK    3  A    between atoms: P_3  and  O_5
REMARK    4  A    between atoms: P_3  and  C_6
REMARK    5  A    between atoms: C_11  and  C_12
REMARK    6  A    between atoms: C_16  and  C_17
REMARK                            x       y       z     vdW  Elec       q    Type
REMARK                         _______ _______ _______ _____ _____    ______ ____
ROOT
ATOM      1  C   UNL     1       5.085   5.268  16.874  0.00  0.00    +0.000 A 
ATOM      2  C   UNL     1       4.904   4.523  18.047  0.00  0.00    +0.000 A 
ATOM      3  C   UNL     1       4.061   4.980  19.081  0.00  0.00    +0.000 A 
ATOM      4  C   UNL     1       3.412   6.195  18.859  0.00  0.00    +0.000 A 
ATOM      5  O   UNL     1       2.536   6.861  19.677  0.00  0.00    +0.000 OA
ATOM      6  C   UNL     1       2.216   7.993  18.961  0.00  0.00    +0.000 A 
ATOM      7  N   UNL     1       2.791   8.079  17.778  0.00  0.00    +0.000 NA
ATOM      8  C   UNL     1       3.565   6.957  17.719  0.00  0.00    +0.000 A 
ATOM      9  C   UNL     1       4.422   6.511  16.721  0.00  0.00    +0.000 A 
ENDROOT
BRANCH   6  10
ATOM     10  C   UNL     1       1.350   8.984  19.593  0.00  0.00    +0.000 A 
ATOM     11  C   UNL     1       1.027  10.157  18.884  0.00  0.00    +0.000 A 
ATOM     12  C   UNL     1       0.275  11.168  19.477  0.00  0.00    +0.000 A 
ATOM     13  C   UNL     1      -0.163  11.026  20.792  0.00  0.00    +0.000 A 
ATOM     14  C   UNL     1       0.135   9.865  21.519  0.00  0.00    +0.000 A 
ATOM     15  C   UNL     1       0.881   8.841  20.903  0.00  0.00    +0.000 A 
BRANCH  14  16
ATOM     16  C   UNL     1      -0.302   9.707  22.953  0.00  0.00    +0.000 C 
ATOM     17  F   UNL     1       0.720   9.421  23.808  0.00  0.00    +0.000 F 
ATOM     18  F   UNL     1      -0.892  10.833  23.443  0.00  0.00    +0.000 F 
ATOM     19  F   UNL     1      -1.212   8.708  23.114  0.00  0.00    +0.000 F 
ENDBRANCH  14  16
ENDBRANCH   6  10
BRANCH   1  20
ATOM     20  P   UNL     1       6.036   4.662  15.433  0.00  0.00    +0.000 P 
ATOM     21  O   UNL     1       7.360   4.703  16.217  0.00  0.00    +0.000 OA
BRANCH  20  23
ATOM     22  C   UNL     1       6.067   3.572  12.880  0.00  0.00    +0.000 C 
ATOM     23  C   UNL     1       6.987   4.056  13.992  0.00  0.00    +0.000 C 
ENDBRANCH  20  23
BRANCH  20  24
ATOM     24  O   UNL     1       5.928   6.128  14.676  0.00  0.00    +0.000 OA
ATOM     25  H   UNL     1       5.046   6.232  14.261  0.00  0.00    +0.000 HD
ENDBRANCH  20  24
ENDBRANCH   1  20
TORSDOF 5
ENDMDL
MODEL 5
REMARK VINA RESULT:      -7.6      5.102      8.966
REMARK  Name = 
REMARK  6 active torsions:
REMARK  status: ('A' for Active; 'I' for Inactive)
REMARK    1  A    between atoms: C_1  and  C_2
REMARK    2  A    between atoms: C_2  and  P_3
REMARK    3  A    between atoms: P_3  and  O_5
REMARK    4  A    between atoms: P_3  and  C_6
REMARK    5  A    between atoms: C_11  and  C_12
REMARK    6  A    between atoms: C_16  and  C_17
REMARK                            x       y       z     vdW  Elec       q    Type
REMARK                         _______ _______ _______ _____ _____    ______ ____
ROOT
ATOM      1  C   UNL     1       5.008   5.404  16.804  0.00  0.00    +0.000 A 
ATOM      2  C   UNL     1       4.841   4.494  17.857  0.00  0.00    +0.000 A 
ATOM      3  C   UNL     1       4.014   4.796  18.960  0.00  0.00    +0.000 A 
ATOM      4  C   UNL     1       3.368   6.031  18.929  0.00  0.00    +0.000 A 
ATOM      5  O   UNL     1       2.507   6.571  19.849  0.00  0.00    +0.000 OA
ATOM      6  C   UNL     1       2.182   7.798  19.313  0.00  0.00    +0.000 A 
ATOM      7  N   UNL     1       2.741   8.056  18.148  0.00  0.00    +0.000 NA
ATOM      8  C   UNL     1       3.508   6.953  17.912  0.00  0.00    +0.000 A 
ATOM      9  C   UNL     1       4.349   6.657  16.846  0.00  0.00    +0.000 A 
ENDROOT
BRANCH   6  10
ATOM     10  C   UNL     1       1.330   8.686  20.098  0.00  0.00    +0.000 A 
ATOM     11  C   UNL     1       1.217   8.468  21.485  0.00  0.00    +0.000 A 
ATOM     12  C   UNL     1       0.351   9.235  22.262  0.00  0.00    +0.000 A 
ATOM     13  C   UNL     1      -0.420  10.230  21.664  0.00  0.00    +0.000 A 
ATOM     14  C   UNL     1      -0.320  10.475  20.287  0.00  0.00    +0.000 A 
ATOM     15  C   UNL     1       0.571   9.706  19.514  0.00  0.00    +0.000 A 
BRANCH  14  16
ATOM     16  C   UNL     1      -1.170  11.524  19.617  0.00  0.00    +0.000 C 
ATOM     17  F   UNL     1      -0.487  12.660  19.298  0.00  0.00    +0.000 F 
ATOM     18  F   UNL     1      -1.721  11.083  18.452  0.00  0.00    +0.000 F 
ATOM     19  F   UNL     1      -2.213  11.925  20.395  0.00  0.00    +0.000 F 
ENDBRANCH  14  16
ENDBRANCH   6  10
BRANCH   1  20
ATOM     20  P   UNL     1       5.936   5.016  15.275  0.00  0.00    +0.000 P 
ATOM     21  O   UNL     1       6.068   3.532  15.665  0.00  0.00    +0.000 OA
BRANCH  20  23
ATOM     22  C   UNL     1       6.121   3.614  12.885  0.00  0.00    +0.000 C 
ATOM     23  C   UNL     1       6.864   4.627  13.747  0.00  0.00    +0.000 C 
ENDBRANCH  20  23
BRANCH  20  24
ATOM     24  O   UNL     1       7.301   5.746  15.854  0.00  0.00    +0.000 OA
ATOM     25  H   UNL     1       8.086   5.451  15.346  0.00  0.00    +0.000 HD
ENDBRANCH  20  24
ENDBRANCH   1  20
TORSDOF 5
ENDMDL
MODEL 6
REMARK VINA RESULT:      -7.6      1.706      2.339
REMARK  Name = 
REMARK  6 active torsions:
REMARK  status: ('A' for Active; 'I' for Inactive)
REMARK    1  A    between atoms: C_1  and  C_2
REMARK    2  A    between atoms: C_2  and  P_3
REMARK    3  A    between atoms: P_3  and  O_5
REMARK    4  A    between atoms: P_3  and  C_6
REMARK    5  A    between atoms: C_11  and  C_12
REMARK    6  A    between atoms: C_16  and  C_17
REMARK                            x       y       z     vdW  Elec       q    Type
REMARK                         _______ _______ _______ _____ _____    ______ ____
ROOT
ATOM      1  C   UNL     1       0.536  10.736  19.633  0.00  0.00    +0.000 A 
ATOM      2  C   UNL     1       0.447   9.982  20.812  0.00  0.00    +0.000 A 
ATOM      3  C   UNL     1       1.030   8.700  20.906  0.00  0.00    +0.000 A 
ATOM      4  C   UNL     1       1.706   8.243  19.775  0.00  0.00    +0.000 A 
ATOM      5  O   UNL     1       2.368   7.057  19.593  0.00  0.00    +0.000 OA
ATOM      6  C   UNL     1       2.837   7.139  18.300  0.00  0.00    +0.000 A 
ATOM      7  N   UNL     1       2.547   8.263  17.678  0.00  0.00    +0.000 NA
ATOM      8  C   UNL     1       1.813   8.955  18.598  0.00  0.00    +0.000 A 
ATOM      9  C   UNL     1       1.210  10.203  18.507  0.00  0.00    +0.000 A 
ENDROOT
BRANCH   6  10
ATOM     10  C   UNL     1       3.529   5.979  17.748  0.00  0.00    +0.000 A 
ATOM     11  C   UNL     1       2.852   4.744  17.693  0.00  0.00    +0.000 A 
ATOM     12  C   UNL     1       3.499   3.591  17.254  0.00  0.00    +0.000 A 
ATOM     13  C   UNL     1       4.835   3.652  16.864  0.00  0.00    +0.000 A 
ATOM     14  C   UNL     1       5.531   4.869  16.898  0.00  0.00    +0.000 A 
ATOM     15  C   UNL     1       4.862   6.031  17.328  0.00  0.00    +0.000 A 
BRANCH  14  16
ATOM     16  C   UNL     1       6.986   4.947  16.511  0.00  0.00    +0.000 C 
ATOM     17  F   UNL     1       7.492   6.212  16.539  0.00  0.00    +0.000 F 
ATOM     18  F   UNL     1       7.783   4.211  17.335  0.00  0.00    +0.000 F 
ATOM     19  F   UNL     1       7.217   4.482  15.253  0.00  0.00    +0.000 F 
ENDBRANCH  14  16
ENDBRANCH   6  10
BRANCH   1  20
ATOM     20  P   UNL     1      -0.057  12.461  19.495  0.00  0.00    +0.000 P 
ATOM     21  O   UNL     1      -1.262  12.181  20.410  0.00  0.00    +0.000 OA
BRANCH  20  23
ATOM     22  C   UNL     1       0.384  15.176  19.880  0.00  0.00    +0.000 C 
ATOM     23  C   UNL     1      -0.649  14.187  19.357  0.00  0.00    +0.000 C 
ENDBRANCH  20  23
BRANCH  20  24
ATOM     24  O   UNL     1      -0.604  12.207  17.957  0.00  0.00    +0.000 OA
ATOM     25  H   UNL     1      -1.136  12.973  17.654  0.00  0.00    +0.000 HD
ENDBRANCH  20  24
ENDBRANCH   1  20
TORSDOF 5
ENDMDL
MODEL 7
REMARK VINA RESULT:      -7.6      6.754      7.846
REMARK  Name = 
REMARK  6 active torsions:
REMARK  status: ('A' for Active; 'I' for Inactive)
REMARK    1  A    between atoms: C_1  and  C_2
REMARK    2  A    between atoms: C_2  and  P_3
REMARK    3  A    between atoms: P_3  and  O_5
REMARK    4  A    between atoms: P_3  and  C_6
REMARK    5  A    between atoms: C_11  and  C_12
REMARK    6  A    between atoms: C_16  and  C_17
REMARK                            x       y       z     vdW  Elec       q    Type
REMARK                         _______ _______ _______ _____ _____    ______ ____
ROOT
ATOM      1  C   UNL     1       9.626  13.161  18.674  0.00  0.00    +0.000 A 
ATOM      2  C   UNL     1      10.235  12.624  19.817  0.00  0.00    +0.000 A 
ATOM      3  C   UNL     1      10.107  11.256  20.139  0.00  0.00    +0.000 A 
ATOM      4  C   UNL     1       9.364  10.478  19.252  0.00  0.00    +0.000 A 
ATOM      5  O   UNL     1       9.092   9.135  19.309  0.00  0.00    +0.000 OA
ATOM      6  C   UNL     1       8.324   8.909  18.189  0.00  0.00    +0.000 A 
ATOM      7  N   UNL     1       8.114   9.972  17.439  0.00  0.00    +0.000 NA
ATOM      8  C   UNL     1       8.750  10.970  18.118  0.00  0.00    +0.000 A 
ATOM      9  C   UNL     1       8.857  12.324  17.827  0.00  0.00    +0.000 A 
ENDROOT
BRANCH   6  10
ATOM     10  C   UNL     1       7.783   7.568  17.988  0.00  0.00    +0.000 A 
ATOM     11  C   UNL     1       8.138   6.549  18.894  0.00  0.00    +0.000 A 
ATOM     12  C   UNL     1       7.716   5.236  18.695  0.00  0.00    +0.000 A 
ATOM     13  C   UNL     1       6.935   4.918  17.586  0.00  0.00    +0.000 A 
ATOM     14  C   UNL     1       6.558   5.915  16.674  0.00  0.00    +0.000 A 
ATOM     15  C   UNL     1       6.976   7.242  16.894  0.00  0.00    +0.000 A 
BRANCH  14  16
ATOM     16  C   UNL     1       5.741   5.584  15.451  0.00  0.00    +0.000 C 
ATOM     17  F   UNL     1       4.884   4.540  15.632  0.00  0.00    +0.000 F 
ATOM     18  F   UNL     1       4.970   6.630  15.042  0.00  0.00    +0.000 F 
ATOM     19  F   UNL     1       6.514   5.249  14.382  0.00  0.00    +0.000 F 
ENDBRANCH  14  16
ENDBRANCH   6  10
BRANCH   1  20
ATOM     20  P   UNL     1       9.879  14.884  18.114  0.00  0.00    +0.000 P 
ATOM     21  O   UNL     1       9.690  15.435  19.539  0.00  0.00    +0.000 OA
BRANCH  20  23
ATOM     22  C   UNL     1      11.607  16.907  17.317  0.00  0.00    +0.000 C 
ATOM     23  C   UNL     1      10.133  16.608  17.554  0.00  0.00    +0.000 C 
ENDBRANCH  20  23
BRANCH  20  24
ATOM     24  O   UNL     1       8.381  14.936  17.419  0.00  0.00    +0.000 OA
ATOM     25  H   UNL     1       8.191  15.839  17.087  0.00  0.00    +0.000 HD
ENDBRANCH  20  24
ENDBRANCH   1  20
TORSDOF 5
ENDMDL
MODEL 8
REMARK VINA RESULT:      -7.5      1.498      2.104
REMARK  Name = 
REMARK  6 active torsions:
REMARK  status: ('A' for Active; 'I' for Inactive)
REMARK    1  A    between atoms: C_1  and  C_2
REMARK    2  A    between atoms: C_2  and  P_3
REMARK    3  A    between atoms: P_3  and  O_5
REMARK    4  A    between atoms: P_3  and  C_6
REMARK    5  A    between atoms: C_11  and  C_12
REMARK    6  A    between atoms: C_16  and  C_17
REMARK                            x       y       z     vdW  Elec       q    Type
REMARK                         _______ _______ _______ _____ _____    ______ ____
ROOT
ATOM      1  C   UNL     1       0.449  10.541  20.001  0.00  0.00    +0.000 A 
ATOM      2  C   UNL     1       0.453   9.752  21.160  0.00  0.00    +0.000 A 
ATOM      3  C   UNL     1       1.088   8.492  21.184  0.00  0.00    +0.000 A 
ATOM      4  C   UNL     1       1.718   8.094  20.005  0.00  0.00    +0.000 A 
ATOM      5  O   UNL     1       2.414   6.939  19.754  0.00  0.00    +0.000 OA
ATOM      6  C   UNL     1       2.809   7.075  18.441  0.00  0.00    +0.000 A 
ATOM      7  N   UNL     1       2.443   8.204  17.869  0.00  0.00    +0.000 NA
ATOM      8  C   UNL     1       1.735   8.841  18.846  0.00  0.00    +0.000 A 
ATOM      9  C   UNL     1       1.081  10.067  18.825  0.00  0.00    +0.000 A 
ENDROOT
BRANCH   6  10
ATOM     10  C   UNL     1       3.514   5.959  17.818  0.00  0.00    +0.000 A 
ATOM     11  C   UNL     1       2.847   4.726  17.678  0.00  0.00    +0.000 A 
ATOM     12  C   UNL     1       3.505   3.610  17.168  0.00  0.00    +0.000 A 
ATOM     13  C   UNL     1       4.843   3.705  16.793  0.00  0.00    +0.000 A 
ATOM     14  C   UNL     1       5.529   4.922  16.911  0.00  0.00    +0.000 A 
ATOM     15  C   UNL     1       4.849   6.049  17.412  0.00  0.00    +0.000 A 
BRANCH  14  16
ATOM     16  C   UNL     1       6.986   5.036  16.541  0.00  0.00    +0.000 C 
ATOM     17  F   UNL     1       7.810   4.289  17.328  0.00  0.00    +0.000 F 
ATOM     18  F   UNL     1       7.231   4.636  15.262  0.00  0.00    +0.000 F 
ATOM     19  F   UNL     1       7.448   6.314  16.629  0.00  0.00    +0.000 F 
ENDBRANCH  14  16
ENDBRANCH   6  10
BRANCH   1  20
ATOM     20  P   UNL     1      -0.215  12.245  19.945  0.00  0.00    +0.000 P 
ATOM     21  O   UNL     1       0.843  12.751  20.943  0.00  0.00    +0.000 OA
BRANCH  20  23
ATOM     22  C   UNL     1      -0.172  14.790  18.836  0.00  0.00    +0.000 C 
ATOM     23  C   UNL     1      -0.879  13.949  19.890  0.00  0.00    +0.000 C 
ENDBRANCH  20  23
BRANCH  20  24
ATOM     24  O   UNL     1      -1.521  11.824  20.866  0.00  0.00    +0.000 OA
ATOM     25  H   UNL     1      -2.090  11.191  20.379  0.00  0.00    +0.000 HD
ENDBRANCH  20  24
ENDBRANCH   1  20
TORSDOF 5
ENDMDL
MODEL 9
REMARK VINA RESULT:      -7.5      1.003      1.140
REMARK  Name = 
REMARK  6 active torsions:
REMARK  status: ('A' for Active; 'I' for Inactive)
REMARK    1  A    between atoms: C_1  and  C_2
REMARK    2  A    between atoms: C_2  and  P_3
REMARK    3  A    between atoms: P_3  and  O_5
REMARK    4  A    between atoms: P_3  and  C_6
REMARK    5  A    between atoms: C_11  and  C_12
REMARK    6  A    between atoms: C_16  and  C_17
REMARK                            x       y       z     vdW  Elec       q    Type
REMARK                         _______ _______ _______ _____ _____    ______ ____
ROOT
ATOM      1  C   UNL     1       0.227  10.469  20.778  0.00  0.00    +0.000 A 
ATOM      2  C   UNL     1       0.405  10.986  19.488  0.00  0.00    +0.000 A 
ATOM      3  C   UNL     1       1.093  10.255  18.496  0.00  0.00    +0.000 A 
ATOM      4  C   UNL     1       1.563   8.995  18.869  0.00  0.00    +0.000 A 
ATOM      5  O   UNL     1       2.244   8.076  18.114  0.00  0.00    +0.000 OA
ATOM      6  C   UNL     1       2.453   7.029  18.984  0.00  0.00    +0.000 A 
ATOM      7  N   UNL     1       1.951   7.204  20.190  0.00  0.00    +0.000 NA
ATOM      8  C   UNL     1       1.407   8.454  20.129  0.00  0.00    +0.000 A 
ATOM      9  C   UNL     1       0.755   9.195  21.106  0.00  0.00    +0.000 A 
ENDROOT
BRANCH   6  10
ATOM     10  C   UNL     1       3.242   5.894  18.514  0.00  0.00    +0.000 A 
ATOM     11  C   UNL     1       3.223   4.698  19.258  0.00  0.00    +0.000 A 
ATOM     12  C   UNL     1       4.025   3.617  18.897  0.00  0.00    +0.000 A 
ATOM     13  C   UNL     1       4.862   3.715  17.788  0.00  0.00    +0.000 A 
ATOM     14  C   UNL     1       4.893   4.890  17.022  0.00  0.00    +0.000 A 
ATOM     15  C   UNL     1       4.066   5.970  17.386  0.00  0.00    +0.000 A 
BRANCH  14  16
ATOM     16  C   UNL     1       5.816   5.026  15.839  0.00  0.00    +0.000 C 
ATOM     17  F   UNL     1       6.140   3.836  15.259  0.00  0.00    +0.000 F 
ATOM     18  F   UNL     1       5.280   5.789  14.845  0.00  0.00    +0.000 F 
ATOM     19  F   UNL     1       7.000   5.614  16.165  0.00  0.00    +0.000 F 
ENDBRANCH  14  16
ENDBRANCH   6  10
BRANCH   1  20
ATOM     20  P   UNL     1      -0.786  11.291  22.061  0.00  0.00    +0.000 P 
ATOM     21  O   UNL     1       0.070  12.569  21.999  0.00  0.00    +0.000 OA
BRANCH  20  23
ATOM     22  C   UNL     1      -1.540  13.614  23.384  0.00  0.00    +0.000 C 
ATOM     23  C   UNL     1      -1.800  12.114  23.343  0.00  0.00    +0.000 C 
ENDBRANCH  20  23
BRANCH  20  24
ATOM     24  O   UNL     1      -0.116  10.370  23.258  0.00  0.00    +0.000 OA
ATOM     25  H   UNL     1      -0.817   9.914  23.769  0.00  0.00    +0.000 HD
ENDBRANCH  20  24
ENDBRANCH   1  20
TORSDOF 5
ENDMDL
