MODEL 1
REMARK VINA RESULT:      -8.0      0.000      0.000
REMARK  Name = 
REMARK  6 active torsions:
REMARK  status: ('A' for Active; 'I' for Inactive)
REMARK    1  A    between atoms: C_1  and  C_2
REMARK    2  A    between atoms: C_2  and  O_3
REMARK    3  A    between atoms: C_7  and  C_9
REMARK    4  A    between atoms: C_9  and  C_10
REMARK    5  A    between atoms: C_10  and  C_11
REMARK    6  A    between atoms: C_21  and  O_22
REMARK                            x       y       z     vdW  Elec       q    Type
REMARK                         _______ _______ _______ _____ _____    ______ ____
ROOT
ATOM      1  C   UNL     1       1.539   2.105  18.681  0.00  0.00    +0.000 C 
ATOM      2  C   UNL     1       2.084   3.502  18.998  0.00  0.00    +0.000 C 
ATOM      3  C   UNL     1       1.891   4.421  17.777  0.00  0.00    +0.000 C 
ATOM      4  C   UNL     1       2.536   5.791  17.985  0.00  0.00    +0.000 C 
ATOM      5  N   UNL     1       3.937   5.651  18.374  0.00  0.00    +0.000 N 
ATOM      6  C   UNL     1       4.917   6.322  17.645  0.00  0.00    +0.000 C 
ATOM      7  O   UNL     1       4.639   6.999  16.655  0.00  0.00    +0.000 OA
ATOM      8  C   UNL     1       4.177   4.841  19.580  0.00  0.00    +0.000 C 
ATOM      9  C   UNL     1       3.581   3.434  19.405  0.00  0.00    +0.000 C 
ENDROOT
BRANCH   2  10
ATOM     10  O   UNL     1       1.291   3.986  20.093  0.00  0.00    +0.000 OA
ATOM     11  H   UNL     1       1.527   3.520  20.910  0.00  0.00    +0.000 HD
ENDBRANCH   2  10
BRANCH   9  12
ATOM     12  O   UNL     1       4.358   2.735  18.423  0.00  0.00    +0.000 OA
ATOM     13  H   UNL     1       4.858   3.403  17.918  0.00  0.00    +0.000 HD
ENDBRANCH   9  12
BRANCH   6  14
ATOM     14  C   UNL     1       6.350   6.152  18.104  0.00  0.00    +0.000 C 
BRANCH  14  15
ATOM     15  C   UNL     1       6.949   4.819  17.666  0.00  0.00    +0.000 C 
BRANCH  15  16
ATOM     16  C   UNL     1       6.806   4.620  16.196  0.00  0.00    +0.000 A 
ATOM     17  C   UNL     1       5.960   3.766  15.518  0.00  0.00    +0.000 A 
ATOM     18  N   UNL     1       6.275   3.905  14.192  0.00  0.00    +0.000 N 
ATOM     19  C   UNL     1       5.763   3.232  13.084  0.00  0.00    +0.000 A 
ATOM     20  C   UNL     1       6.243   3.524  11.864  0.00  0.00    +0.000 A 
ATOM     21  C   UNL     1       7.273   4.546  11.738  0.00  0.00    +0.000 A 
ATOM     22  C   UNL     1       7.763   5.191  12.816  0.00  0.00    +0.000 A 
ATOM     23  C   UNL     1       7.273   4.870  14.113  0.00  0.00    +0.000 A 
ATOM     24  N   UNL     1       7.605   5.312  15.310  0.00  0.00    +0.000 NA
ENDBRANCH  15  16
ENDBRANCH  14  15
ENDBRANCH   6  14
TORSDOF 5
ENDMDL
MODEL 2
REMARK VINA RESULT:      -7.8      1.499      2.068
REMARK  Name = 
REMARK  6 active torsions:
REMARK  status: ('A' for Active; 'I' for Inactive)
REMARK    1  A    between atoms: C_1  and  C_2
REMARK    2  A    between atoms: C_2  and  O_3
REMARK    3  A    between atoms: C_7  and  C_9
REMARK    4  A    between atoms: C_9  and  C_10
REMARK    5  A    between atoms: C_10  and  C_11
REMARK    6  A    between atoms: C_21  and  O_22
REMARK                            x       y       z     vdW  Elec       q    Type
REMARK                         _______ _______ _______ _____ _____    ______ ____
ROOT
ATOM      1  C   UNL     1       0.734   2.614  20.062  0.00  0.00    +0.000 C 
ATOM      2  C   UNL     1       2.075   2.649  19.320  0.00  0.00    +0.000 C 
ATOM      3  C   UNL     1       3.228   2.681  20.340  0.00  0.00    +0.000 C 
ATOM      4  C   UNL     1       4.587   2.851  19.660  0.00  0.00    +0.000 C 
ATOM      5  N   UNL     1       4.582   4.011  18.773  0.00  0.00    +0.000 N 
ATOM      6  C   UNL     1       5.565   4.988  18.923  0.00  0.00    +0.000 C 
ATOM      7  O   UNL     1       6.416   4.921  19.810  0.00  0.00    +0.000 OA
ATOM      8  C   UNL     1       3.544   4.000  17.729  0.00  0.00    +0.000 C 
ATOM      9  C   UNL     1       2.149   3.872  18.366  0.00  0.00    +0.000 C 
ENDROOT
BRANCH   2  10
ATOM     10  O   UNL     1       2.132   1.426  18.569  0.00  0.00    +0.000 OA
ATOM     11  H   UNL     1       2.983   1.354  18.109  0.00  0.00    +0.000 HD
ENDBRANCH   2  10
BRANCH   9  12
ATOM     12  O   UNL     1       1.856   5.093  19.057  0.00  0.00    +0.000 OA
ATOM     13  H   UNL     1       2.613   5.285  19.642  0.00  0.00    +0.000 HD
ENDBRANCH   9  12
BRANCH   6  14
ATOM     14  C   UNL     1       5.518   6.159  17.965  0.00  0.00    +0.000 C 
BRANCH  14  15
ATOM     15  C   UNL     1       6.773   6.257  17.100  0.00  0.00    +0.000 C 
BRANCH  15  16
ATOM     16  C   UNL     1       6.571   5.595  15.780  0.00  0.00    +0.000 A 
ATOM     17  C   UNL     1       5.464   4.918  15.314  0.00  0.00    +0.000 A 
ATOM     18  N   UNL     1       5.815   4.433  14.081  0.00  0.00    +0.000 N 
ATOM     19  C   UNL     1       5.088   3.632  13.204  0.00  0.00    +0.000 A 
ATOM     20  C   UNL     1       5.650   3.257  12.042  0.00  0.00    +0.000 A 
ATOM     21  C   UNL     1       6.998   3.716  11.732  0.00  0.00    +0.000 A 
ATOM     22  C   UNL     1       7.694   4.491  12.588  0.00  0.00    +0.000 A 
ATOM     23  C   UNL     1       7.110   4.872  13.830  0.00  0.00    +0.000 A 
ATOM     24  N   UNL     1       7.582   5.573  14.842  0.00  0.00    +0.000 NA
ENDBRANCH  15  16
ENDBRANCH  14  15
ENDBRANCH   6  14
TORSDOF 5
ENDMDL
MODEL 3
REMARK VINA RESULT:      -7.3      4.059      8.242
REMARK  Name = 
REMARK  6 active torsions:
REMARK  status: ('A' for Active; 'I' for Inactive)
REMARK    1  A    between atoms: C_1  and  C_2
REMARK    2  A    between atoms: C_2  and  O_3
REMARK    3  A    between atoms: C_7  and  C_9
REMARK    4  A    between atoms: C_9  and  C_10
REMARK    5  A    between atoms: C_10  and  C_11
REMARK    6  A    between atoms: C_21  and  O_22
REMARK                            x       y       z     vdW  Elec       q    Type
REMARK                         _______ _______ _______ _____ _____    ______ ____
ROOT
ATOM      1  C   UNL     1       7.178   4.915  14.647  0.00  0.00    +0.000 C 
ATOM      2  C   UNL     1       6.514   4.806  16.024  0.00  0.00    +0.000 C 
ATOM      3  C   UNL     1       5.335   3.817  15.951  0.00  0.00    +0.000 C 
ATOM      4  C   UNL     1       4.550   3.767  17.262  0.00  0.00    +0.000 C 
ATOM      5  N   UNL     1       4.141   5.108  17.673  0.00  0.00    +0.000 N 
ATOM      6  C   UNL     1       2.798   5.357  17.945  0.00  0.00    +0.000 C 
ATOM      7  O   UNL     1       1.936   4.488  17.810  0.00  0.00    +0.000 OA
ATOM      8  C   UNL     1       5.237   6.079  17.830  0.00  0.00    +0.000 C 
ATOM      9  C   UNL     1       6.036   6.197  16.521  0.00  0.00    +0.000 C 
ENDROOT
BRANCH   2  10
ATOM     10  O   UNL     1       7.525   4.283  16.899  0.00  0.00    +0.000 OA
ATOM     11  H   UNL     1       7.667   4.886  17.646  0.00  0.00    +0.000 HD
ENDBRANCH   2  10
BRANCH   9  12
ATOM     12  O   UNL     1       5.208   6.845  15.545  0.00  0.00    +0.000 OA
ATOM     13  H   UNL     1       4.377   7.095  15.989  0.00  0.00    +0.000 HD
ENDBRANCH   9  12
BRANCH   6  14
ATOM     14  C   UNL     1       2.436   6.761  18.383  0.00  0.00    +0.000 C 
BRANCH  14  15
ATOM     15  C   UNL     1       2.399   6.908  19.902  0.00  0.00    +0.000 C 
BRANCH  15  16
ATOM     16  C   UNL     1       1.540   8.055  20.312  0.00  0.00    +0.000 A 
ATOM     17  C   UNL     1       1.148   9.149  19.570  0.00  0.00    +0.000 A 
ATOM     18  N   UNL     1       0.436   9.946  20.428  0.00  0.00    +0.000 N 
ATOM     19  C   UNL     1      -0.136  11.197  20.208  0.00  0.00    +0.000 A 
ATOM     20  C   UNL     1      -0.779  11.808  21.217  0.00  0.00    +0.000 A 
ATOM     21  C   UNL     1      -0.870  11.133  22.504  0.00  0.00    +0.000 A 
ATOM     22  C   UNL     1      -0.313   9.923  22.709  0.00  0.00    +0.000 A 
ATOM     23  C   UNL     1       0.388   9.281  21.649  0.00  0.00    +0.000 A 
ATOM     24  N   UNL     1       1.048   8.141  21.598  0.00  0.00    +0.000 NA
ENDBRANCH  15  16
ENDBRANCH  14  15
ENDBRANCH   6  14
TORSDOF 5
ENDMDL
MODEL 4
REMARK VINA RESULT:      -7.2      4.283      8.352
REMARK  Name = 
REMARK  6 active torsions:
REMARK  status: ('A' for Active; 'I' for Inactive)
REMARK    1  A    between atoms: C_1  and  C_2
REMARK    2  A    between atoms: C_2  and  O_3
REMARK    3  A    between atoms: C_7  and  C_9
REMARK    4  A    between atoms: C_9  and  C_10
REMARK    5  A    between atoms: C_10  and  C_11
REMARK    6  A    between atoms: C_21  and  O_22
REMARK                            x       y       z     vdW  Elec       q    Type
REMARK                         _______ _______ _______ _____ _____    ______ ____
ROOT
ATOM      1  C   UNL     1       6.683   4.269  14.670  0.00  0.00    +0.000 C 
ATOM      2  C   UNL     1       6.193   4.660  16.068  0.00  0.00    +0.000 C 
ATOM      3  C   UNL     1       4.819   4.015  16.332  0.00  0.00    +0.000 C 
ATOM      4  C   UNL     1       4.218   4.476  17.660  0.00  0.00    +0.000 C 
ATOM      5  N   UNL     1       4.185   5.934  17.736  0.00  0.00    +0.000 N 
ATOM      6  C   UNL     1       2.981   6.574  18.023  0.00  0.00    +0.000 C 
ATOM      7  O   UNL     1       1.932   5.947  18.175  0.00  0.00    +0.000 OA
ATOM      8  C   UNL     1       5.485   6.602  17.563  0.00  0.00    +0.000 C 
ATOM      9  C   UNL     1       6.116   6.203  16.219  0.00  0.00    +0.000 C 
ENDROOT
BRANCH   2  10
ATOM     10  O   UNL     1       7.160   4.117  16.980  0.00  0.00    +0.000 OA
ATOM     11  H   UNL     1       7.991   3.929  16.515  0.00  0.00    +0.000 HD
ENDBRANCH   2  10
BRANCH   9  12
ATOM     12  O   UNL     1       5.341   6.793  15.165  0.00  0.00    +0.000 OA
ATOM     13  H   UNL     1       4.401   6.696  15.407  0.00  0.00    +0.000 HD
ENDBRANCH   9  12
BRANCH   6  14
ATOM     14  C   UNL     1       3.011   8.086  18.105  0.00  0.00    +0.000 C 
BRANCH  14  15
ATOM     15  C   UNL     1       1.633   8.710  17.898  0.00  0.00    +0.000 C 
BRANCH  15  16
ATOM     16  C   UNL     1       1.074   9.222  19.181  0.00  0.00    +0.000 A 
ATOM     17  C   UNL     1       1.176   8.679  20.445  0.00  0.00    +0.000 A 
ATOM     18  N   UNL     1       0.423   9.486  21.259  0.00  0.00    +0.000 N 
ATOM     19  C   UNL     1       0.140   9.358  22.616  0.00  0.00    +0.000 A 
ATOM     20  C   UNL     1      -0.649  10.271  23.208  0.00  0.00    +0.000 A 
ATOM     21  C   UNL     1      -1.169  11.374  22.411  0.00  0.00    +0.000 A 
ATOM     22  C   UNL     1      -0.890  11.489  21.097  0.00  0.00    +0.000 A 
ATOM     23  C   UNL     1      -0.072  10.512  20.461  0.00  0.00    +0.000 A 
ATOM     24  N   UNL     1       0.310  10.370  19.208  0.00  0.00    +0.000 NA
ENDBRANCH  15  16
ENDBRANCH  14  15
ENDBRANCH   6  14
TORSDOF 5
ENDMDL
MODEL 5
REMARK VINA RESULT:      -7.1      0.607      1.275
REMARK  Name = 
REMARK  6 active torsions:
REMARK  status: ('A' for Active; 'I' for Inactive)
REMARK    1  A    between atoms: C_1  and  C_2
REMARK    2  A    between atoms: C_2  and  O_3
REMARK    3  A    between atoms: C_7  and  C_9
REMARK    4  A    between atoms: C_9  and  C_10
REMARK    5  A    between atoms: C_10  and  C_11
REMARK    6  A    between atoms: C_21  and  O_22
REMARK                            x       y       z     vdW  Elec       q    Type
REMARK                         _______ _______ _______ _____ _____    ______ ____
ROOT
ATOM      1  C   UNL     1       1.466   1.891  18.713  0.00  0.00    +0.000 C 
ATOM      2  C   UNL     1       1.996   3.272  19.116  0.00  0.00    +0.000 C 
ATOM      3  C   UNL     1       1.737   4.276  17.977  0.00  0.00    +0.000 C 
ATOM      4  C   UNL     1       2.363   5.641  18.266  0.00  0.00    +0.000 C 
ATOM      5  N   UNL     1       3.781   5.503  18.589  0.00  0.00    +0.000 N 
ATOM      6  C   UNL     1       4.717   6.249  17.877  0.00  0.00    +0.000 C 
ATOM      7  O   UNL     1       4.387   6.994  16.954  0.00  0.00    +0.000 OA
ATOM      8  C   UNL     1       4.084   4.609  19.719  0.00  0.00    +0.000 C 
ATOM      9  C   UNL     1       3.509   3.206  19.459  0.00  0.00    +0.000 C 
ENDROOT
BRANCH   2  10
ATOM     10  O   UNL     1       1.238   3.653  20.274  0.00  0.00    +0.000 OA
ATOM     11  H   UNL     1       1.085   4.611  20.275  0.00  0.00    +0.000 HD
ENDBRANCH   2  10
BRANCH   9  12
ATOM     12  O   UNL     1       4.260   2.602  18.398  0.00  0.00    +0.000 OA
ATOM     13  H   UNL     1       5.108   3.080  18.332  0.00  0.00    +0.000 HD
ENDBRANCH   9  12
BRANCH   6  14
ATOM     14  C   UNL     1       6.170   6.077  18.267  0.00  0.00    +0.000 C 
BRANCH  14  15
ATOM     15  C   UNL     1       6.724   4.711  17.870  0.00  0.00    +0.000 C 
BRANCH  15  16
ATOM     16  C   UNL     1       6.825   4.580  16.389  0.00  0.00    +0.000 A 
ATOM     17  C   UNL     1       7.627   5.280  15.512  0.00  0.00    +0.000 A 
ATOM     18  N   UNL     1       7.283   4.841  14.261  0.00  0.00    +0.000 N 
ATOM     19  C   UNL     1       7.746   5.260  13.016  0.00  0.00    +0.000 A 
ATOM     20  C   UNL     1       7.245   4.692  11.906  0.00  0.00    +0.000 A 
ATOM     21  C   UNL     1       6.244   3.643  12.044  0.00  0.00    +0.000 A 
ATOM     22  C   UNL     1       5.801   3.243  13.253  0.00  0.00    +0.000 A 
ATOM     23  C   UNL     1       6.314   3.858  14.430  0.00  0.00    +0.000 A 
ATOM     24  N   UNL     1       6.025   3.688  15.705  0.00  0.00    +0.000 NA
ENDBRANCH  15  16
ENDBRANCH  14  15
ENDBRANCH   6  14
TORSDOF 5
ENDMDL
MODEL 6
REMARK VINA RESULT:      -7.1      4.081      8.136
REMARK  Name = 
REMARK  6 active torsions:
REMARK  status: ('A' for Active; 'I' for Inactive)
REMARK    1  A    between atoms: C_1  and  C_2
REMARK    2  A    between atoms: C_2  and  O_3
REMARK    3  A    between atoms: C_7  and  C_9
REMARK    4  A    between atoms: C_9  and  C_10
REMARK    5  A    between atoms: C_10  and  C_11
REMARK    6  A    between atoms: C_21  and  O_22
REMARK                            x       y       z     vdW  Elec       q    Type
REMARK                         _______ _______ _______ _____ _____    ______ ____
ROOT
ATOM      1  C   UNL     1       7.083   4.884  14.585  0.00  0.00    +0.000 C 
ATOM      2  C   UNL     1       6.442   4.772  15.973  0.00  0.00    +0.000 C 
ATOM      3  C   UNL     1       5.196   3.869  15.894  0.00  0.00    +0.000 C 
ATOM      4  C   UNL     1       4.438   3.827  17.221  0.00  0.00    +0.000 C 
ATOM      5  N   UNL     1       4.131   5.177  17.686  0.00  0.00    +0.000 N 
ATOM      6  C   UNL     1       2.814   5.507  17.999  0.00  0.00    +0.000 C 
ATOM      7  O   UNL     1       1.892   4.704  17.855  0.00  0.00    +0.000 OA
ATOM      8  C   UNL     1       5.294   6.065  17.850  0.00  0.00    +0.000 C 
ATOM      9  C   UNL     1       6.071   6.175  16.527  0.00  0.00    +0.000 C 
ENDROOT
BRANCH   2  10
ATOM     10  O   UNL     1       7.433   4.152  16.806  0.00  0.00    +0.000 OA
ATOM     11  H   UNL     1       7.209   4.276  17.742  0.00  0.00    +0.000 HD
ENDBRANCH   2  10
BRANCH   9  12
ATOM     12  O   UNL     1       5.270   6.911  15.593  0.00  0.00    +0.000 OA
ATOM     13  H   UNL     1       4.647   7.456  16.111  0.00  0.00    +0.000 HD
ENDBRANCH   9  12
BRANCH   6  14
ATOM     14  C   UNL     1       2.559   6.917  18.491  0.00  0.00    +0.000 C 
BRANCH  14  15
ATOM     15  C   UNL     1       2.276   6.969  19.991  0.00  0.00    +0.000 C 
BRANCH  15  16
ATOM     16  C   UNL     1       1.528   8.205  20.356  0.00  0.00    +0.000 A 
ATOM     17  C   UNL     1       1.086   8.612  21.597  0.00  0.00    +0.000 A 
ATOM     18  N   UNL     1       0.386   9.771  21.382  0.00  0.00    +0.000 N 
ATOM     19  C   UNL     1      -0.316  10.563  22.287  0.00  0.00    +0.000 A 
ATOM     20  C   UNL     1      -0.953  11.659  21.840  0.00  0.00    +0.000 A 
ATOM     21  C   UNL     1      -0.873  11.990  20.424  0.00  0.00    +0.000 A 
ATOM     22  C   UNL     1      -0.192  11.217  19.555  0.00  0.00    +0.000 A 
ATOM     23  C   UNL     1       0.466  10.043  20.020  0.00  0.00    +0.000 A 
ATOM     24  N   UNL     1       1.150   9.111  19.387  0.00  0.00    +0.000 NA
ENDBRANCH  15  16
ENDBRANCH  14  15
ENDBRANCH   6  14
TORSDOF 5
ENDMDL
MODEL 7
REMARK VINA RESULT:      -6.9      4.058      7.850
REMARK  Name = 
REMARK  6 active torsions:
REMARK  status: ('A' for Active; 'I' for Inactive)
REMARK    1  A    between atoms: C_1  and  C_2
REMARK    2  A    between atoms: C_2  and  O_3
REMARK    3  A    between atoms: C_7  and  C_9
REMARK    4  A    between atoms: C_9  and  C_10
REMARK    5  A    between atoms: C_10  and  C_11
REMARK    6  A    between atoms: C_21  and  O_22
REMARK                            x       y       z     vdW  Elec       q    Type
REMARK                         _______ _______ _______ _____ _____    ______ ____
ROOT
ATOM      1  C   UNL     1       2.115   2.195  21.270  0.00  0.00    +0.000 C 
ATOM      2  C   UNL     1       2.329   2.787  19.873  0.00  0.00    +0.000 C 
ATOM      3  C   UNL     1       3.720   3.444  19.798  0.00  0.00    +0.000 C 
ATOM      4  C   UNL     1       3.940   4.167  18.470  0.00  0.00    +0.000 C 
ATOM      5  N   UNL     1       2.853   5.108  18.206  0.00  0.00    +0.000 N 
ATOM      6  C   UNL     1       3.157   6.439  17.928  0.00  0.00    +0.000 C 
ATOM      7  O   UNL     1       4.315   6.856  17.938  0.00  0.00    +0.000 OA
ATOM      8  C   UNL     1       1.503   4.521  18.193  0.00  0.00    +0.000 C 
ATOM      9  C   UNL     1       1.216   3.813  19.528  0.00  0.00    +0.000 C 
ENDROOT
BRANCH   2  10
ATOM     10  O   UNL     1       2.276   1.671  18.971  0.00  0.00    +0.000 OA
ATOM     11  H   UNL     1       3.168   1.447  18.661  0.00  0.00    +0.000 HD
ENDBRANCH   2  10
BRANCH   9  12
ATOM     12  O   UNL     1       1.092   4.812  20.550  0.00  0.00    +0.000 OA
ATOM     13  H   UNL     1       1.652   5.566  20.288  0.00  0.00    +0.000 HD
ENDBRANCH   9  12
BRANCH   6  14
ATOM     14  C   UNL     1       1.991   7.364  17.647  0.00  0.00    +0.000 C 
BRANCH  14  15
ATOM     15  C   UNL     1       2.309   8.820  17.974  0.00  0.00    +0.000 C 
BRANCH  15  16
ATOM     16  C   UNL     1       1.490   9.307  19.121  0.00  0.00    +0.000 A 
ATOM     17  C   UNL     1       0.809  10.499  19.251  0.00  0.00    +0.000 A 
ATOM     18  N   UNL     1       0.286  10.493  20.518  0.00  0.00    +0.000 N 
ATOM     19  C   UNL     1      -0.439  11.480  21.182  0.00  0.00    +0.000 A 
ATOM     20  C   UNL     1      -0.838  11.259  22.446  0.00  0.00    +0.000 A 
ATOM     21  C   UNL     1      -0.511   9.986  23.074  0.00  0.00    +0.000 A 
ATOM     22  C   UNL     1       0.193   9.037  22.425  0.00  0.00    +0.000 A 
ATOM     23  C   UNL     1       0.636   9.276  21.092  0.00  0.00    +0.000 A 
ATOM     24  N   UNL     1       1.361   8.549  20.266  0.00  0.00    +0.000 NA
ENDBRANCH  15  16
ENDBRANCH  14  15
ENDBRANCH   6  14
TORSDOF 5
ENDMDL
MODEL 8
REMARK VINA RESULT:      -6.9      1.649      2.439
REMARK  Name = 
REMARK  6 active torsions:
REMARK  status: ('A' for Active; 'I' for Inactive)
REMARK    1  A    between atoms: C_1  and  C_2
REMARK    2  A    between atoms: C_2  and  O_3
REMARK    3  A    between atoms: C_7  and  C_9
REMARK    4  A    between atoms: C_9  and  C_10
REMARK    5  A    between atoms: C_10  and  C_11
REMARK    6  A    between atoms: C_21  and  O_22
REMARK                            x       y       z     vdW  Elec       q    Type
REMARK                         _______ _______ _______ _____ _____    ______ ____
ROOT
ATOM      1  C   UNL     1       1.055   2.857  21.212  0.00  0.00    +0.000 C 
ATOM      2  C   UNL     1       2.061   2.813  20.056  0.00  0.00    +0.000 C 
ATOM      3  C   UNL     1       3.482   2.612  20.616  0.00  0.00    +0.000 C 
ATOM      4  C   UNL     1       4.544   2.693  19.520  0.00  0.00    +0.000 C 
ATOM      5  N   UNL     1       4.406   3.930  18.755  0.00  0.00    +0.000 N 
ATOM      6  C   UNL     1       5.509   4.768  18.611  0.00  0.00    +0.000 C 
ATOM      7  O   UNL     1       6.590   4.517  19.144  0.00  0.00    +0.000 OA
ATOM      8  C   UNL     1       3.088   4.142  18.135  0.00  0.00    +0.000 C 
ATOM      9  C   UNL     1       1.983   4.109  19.205  0.00  0.00    +0.000 C 
ENDROOT
BRANCH   2  10
ATOM     10  O   UNL     1       1.690   1.674  19.266  0.00  0.00    +0.000 OA
ATOM     11  H   UNL     1       0.957   1.901  18.673  0.00  0.00    +0.000 HD
ENDBRANCH   2  10
BRANCH   9  12
ATOM     12  O   UNL     1       2.114   5.281  20.022  0.00  0.00    +0.000 OA
ATOM     13  H   UNL     1       3.052   5.547  20.000  0.00  0.00    +0.000 HD
ENDBRANCH   9  12
BRANCH   6  14
ATOM     14  C   UNL     1       5.311   6.028  17.794  0.00  0.00    +0.000 C 
BRANCH  14  15
ATOM     15  C   UNL     1       6.503   6.332  16.891  0.00  0.00    +0.000 C 
BRANCH  15  16
ATOM     16  C   UNL     1       6.459   5.515  15.645  0.00  0.00    +0.000 A 
ATOM     17  C   UNL     1       7.480   5.230  14.762  0.00  0.00    +0.000 A 
ATOM     18  N   UNL     1       6.905   4.513  13.746  0.00  0.00    +0.000 N 
ATOM     19  C   UNL     1       7.474   4.026  12.572  0.00  0.00    +0.000 A 
ATOM     20  C   UNL     1       6.702   3.358  11.699  0.00  0.00    +0.000 A 
ATOM     21  C   UNL     1       5.296   3.152  12.018  0.00  0.00    +0.000 A 
ATOM     22  C   UNL     1       4.752   3.628  13.156  0.00  0.00    +0.000 A 
ATOM     23  C   UNL     1       5.562   4.355  14.074  0.00  0.00    +0.000 A 
ATOM     24  N   UNL     1       5.276   4.952  15.215  0.00  0.00    +0.000 NA
ENDBRANCH  15  16
ENDBRANCH  14  15
ENDBRANCH   6  14
TORSDOF 5
ENDMDL
MODEL 9
REMARK VINA RESULT:      -6.9      4.118      8.242
REMARK  Name = 
REMARK  6 active torsions:
REMARK  status: ('A' for Active; 'I' for Inactive)
REMARK    1  A    between atoms: C_1  and  C_2
REMARK    2  A    between atoms: C_2  and  O_3
REMARK    3  A    between atoms: C_7  and  C_9
REMARK    4  A    between atoms: C_9  and  C_10
REMARK    5  A    between atoms: C_10  and  C_11
REMARK    6  A    between atoms: C_21  and  O_22
REMARK                            x       y       z     vdW  Elec       q    Type
REMARK                         _______ _______ _______ _____ _____    ______ ____
ROOT
ATOM      1  C   UNL     1       7.296   5.508  16.005  0.00  0.00    +0.000 C 
ATOM      2  C   UNL     1       6.474   4.850  17.118  0.00  0.00    +0.000 C 
ATOM      3  C   UNL     1       5.236   4.166  16.509  0.00  0.00    +0.000 C 
ATOM      4  C   UNL     1       4.306   3.604  17.585  0.00  0.00    +0.000 C 
ATOM      5  N   UNL     1       3.963   4.635  18.562  0.00  0.00    +0.000 N 
ATOM      6  C   UNL     1       2.621   4.891  18.838  0.00  0.00    +0.000 C 
ATOM      7  O   UNL     1       1.713   4.302  18.251  0.00  0.00    +0.000 OA
ATOM      8  C   UNL     1       5.108   5.274  19.231  0.00  0.00    +0.000 C 
ATOM      9  C   UNL     1       6.056   5.892  18.190  0.00  0.00    +0.000 C 
ENDROOT
BRANCH   2  10
ATOM     10  O   UNL     1       7.335   3.857  17.696  0.00  0.00    +0.000 OA
ATOM     11  H   UNL     1       8.178   4.257  17.961  0.00  0.00    +0.000 HD
ENDBRANCH   2  10
BRANCH   9  12
ATOM     12  O   UNL     1       5.398   7.019  17.595  0.00  0.00    +0.000 OA
ATOM     13  H   UNL     1       4.465   6.993  17.878  0.00  0.00    +0.000 HD
ENDBRANCH   9  12
BRANCH   6  14
ATOM     14  C   UNL     1       2.326   5.959  19.871  0.00  0.00    +0.000 C 
BRANCH  14  15
ATOM     15  C   UNL     1       2.274   7.359  19.266  0.00  0.00    +0.000 C 
BRANCH  15  16
ATOM     16  C   UNL     1       1.508   8.295  20.138  0.00  0.00    +0.000 A 
ATOM     17  C   UNL     1       1.205   8.174  21.478  0.00  0.00    +0.000 A 
ATOM     18  N   UNL     1       0.419   9.255  21.781  0.00  0.00    +0.000 N 
ATOM     19  C   UNL     1      -0.207   9.587  22.980  0.00  0.00    +0.000 A 
ATOM     20  C   UNL     1      -0.956  10.701  23.040  0.00  0.00    +0.000 A 
ATOM     21  C   UNL     1      -1.074  11.534  21.851  0.00  0.00    +0.000 A 
ATOM     22  C   UNL     1      -0.466  11.204  20.694  0.00  0.00    +0.000 A 
ATOM     23  C   UNL     1       0.311  10.013  20.620  0.00  0.00    +0.000 A 
ATOM     24  N   UNL     1       0.960   9.450  19.620  0.00  0.00    +0.000 NA
ENDBRANCH  15  16
ENDBRANCH  14  15
ENDBRANCH   6  14
TORSDOF 5
ENDMDL
