MODEL 1
REMARK VINA RESULT:      -8.3      0.000      0.000
REMARK  Name = 
REMARK  5 active torsions:
REMARK  status: ('A' for Active; 'I' for Inactive)
REMARK    1  A    between atoms: N_1  and  C_2
REMARK    2  A    between atoms: C_2  and  C_3
REMARK    3  A    between atoms: C_2  and  C_10
REMARK    4  A    between atoms: C_13  and  N_14
REMARK    5  A    between atoms: C_15  and  C_17
REMARK                            x       y       z     vdW  Elec       q    Type
REMARK                         _______ _______ _______ _____ _____    ______ ____
ROOT
ATOM      1  C   UNL     1       1.907   2.969  19.542  0.00  0.00    +0.000 C 
ATOM      2  C   UNL     1       1.922   3.064  21.073  0.00  0.00    +0.000 C 
ATOM      3  C   UNL     1       2.321   4.496  21.411  0.00  0.00    +0.000 C 
ATOM      4  C   UNL     1       2.201   5.309  20.110  0.00  0.00    +0.000 C 
ATOM      5  C   UNL     1       1.444   4.385  19.152  0.00  0.00    +0.000 C 
ENDROOT
BRANCH   4   6
ATOM      6  N   UNL     1       1.595   6.614  20.297  0.00  0.00    +0.000 N 
ATOM      7  C   UNL     1       2.016   7.651  19.472  0.00  0.00    +0.000 C 
ATOM      8  O   UNL     1       2.987   7.547  18.726  0.00  0.00    +0.000 OA
ATOM      9  H   UNL     1       0.641   6.647  20.630  0.00  0.00    +0.000 HD
BRANCH   7  10
ATOM     10  C   UNL     1       1.248   8.928  19.536  0.00  0.00    +0.000 A 
ATOM     11  C   UNL     1       1.011   9.608  18.329  0.00  0.00    +0.000 A 
ATOM     12  C   UNL     1       0.218  10.748  18.310  0.00  0.00    +0.000 A 
ATOM     13  C   UNL     1      -0.359  11.208  19.490  0.00  0.00    +0.000 A 
ATOM     14  C   UNL     1      -0.148  10.547  20.710  0.00  0.00    +0.000 A 
ATOM     15  C   UNL     1      -0.767  11.027  21.878  0.00  0.00    +0.000 A 
ATOM     16  C   UNL     1      -0.583  10.395  23.107  0.00  0.00    +0.000 A 
ATOM     17  C   UNL     1       0.241   9.284  23.187  0.00  0.00    +0.000 A 
ATOM     18  C   UNL     1       0.868   8.798  22.036  0.00  0.00    +0.000 A 
ATOM     19  C   UNL     1       0.678   9.395  20.761  0.00  0.00    +0.000 A 
ENDBRANCH   7  10
ENDBRANCH   4   6
BRANCH   1  20
ATOM     20  C   UNL     1       3.244   2.529  18.879  0.00  0.00    +0.000 C 
BRANCH  20  21
ATOM     21  C   UNL     1       3.494   3.283  17.544  0.00  0.00    +0.000 C 
ATOM     22  O   UNL     1       2.746   3.091  16.578  0.00  0.00    +0.000 OA
ATOM     23  N   UNL     1       4.529   4.185  17.475  0.00  0.00    +0.000 N 
ATOM     24  C   UNL     1       4.732   4.932  16.241  0.00  0.00    +0.000 C 
ATOM     25  C   UNL     1       5.776   6.022  16.444  0.00  0.00    +0.000 C 
ATOM     26  S   UNL     1       6.302   5.924  18.172  0.00  0.00    +0.000 S 
ATOM     27  C   UNL     1       5.637   4.268  18.392  0.00  0.00    +0.000 C 
ENDBRANCH  20  21
BRANCH  20  28
ATOM     28  N   UNL     1       3.346   1.081  18.613  0.00  0.00    +0.000 NA
ATOM     29  H   UNL     1       4.235   0.899  18.145  0.00  0.00    +0.000 HD
ATOM     30  H   UNL     1       2.658   0.853  17.885  0.00  0.00    +0.000 HD
ENDBRANCH  20  28
ENDBRANCH   1  20
TORSDOF 5
ENDMDL
MODEL 2
REMARK VINA RESULT:      -7.9      0.840      2.182
REMARK  Name = 
REMARK  5 active torsions:
REMARK  status: ('A' for Active; 'I' for Inactive)
REMARK    1  A    between atoms: N_1  and  C_2
REMARK    2  A    between atoms: C_2  and  C_3
REMARK    3  A    between atoms: C_2  and  C_10
REMARK    4  A    between atoms: C_13  and  N_14
REMARK    5  A    between atoms: C_15  and  C_17
REMARK                            x       y       z     vdW  Elec       q    Type
REMARK                         _______ _______ _______ _____ _____    ______ ____
ROOT
ATOM      1  C   UNL     1       1.672   2.752  19.730  0.00  0.00    +0.000 C 
ATOM      2  C   UNL     1       1.834   2.546  21.240  0.00  0.00    +0.000 C 
ATOM      3  C   UNL     1       2.277   3.887  21.813  0.00  0.00    +0.000 C 
ATOM      4  C   UNL     1       2.041   4.939  20.714  0.00  0.00    +0.000 C 
ATOM      5  C   UNL     1       1.187   4.213  19.671  0.00  0.00    +0.000 C 
ENDROOT
BRANCH   4   6
ATOM      6  N   UNL     1       1.468   6.176  21.210  0.00  0.00    +0.000 N 
ATOM      7  C   UNL     1       1.735   7.345  20.507  0.00  0.00    +0.000 C 
ATOM      8  O   UNL     1       2.565   7.394  19.602  0.00  0.00    +0.000 OA
ATOM      9  H   UNL     1       0.584   6.123  21.699  0.00  0.00    +0.000 HD
BRANCH   7  10
ATOM     10  C   UNL     1       0.982   8.568  20.906  0.00  0.00    +0.000 A 
ATOM     11  C   UNL     1       0.332   8.558  22.152  0.00  0.00    +0.000 A 
ATOM     12  C   UNL     1      -0.301   9.701  22.623  0.00  0.00    +0.000 A 
ATOM     13  C   UNL     1      -0.275  10.868  21.864  0.00  0.00    +0.000 A 
ATOM     14  C   UNL     1       0.372  10.912  20.619  0.00  0.00    +0.000 A 
ATOM     15  C   UNL     1       0.398  12.116  19.892  0.00  0.00    +0.000 A 
ATOM     16  C   UNL     1       1.034  12.199  18.654  0.00  0.00    +0.000 A 
ATOM     17  C   UNL     1       1.635  11.072  18.117  0.00  0.00    +0.000 A 
ATOM     18  C   UNL     1       1.612   9.868  18.825  0.00  0.00    +0.000 A 
ATOM     19  C   UNL     1       1.004   9.752  20.104  0.00  0.00    +0.000 A 
ENDBRANCH   7  10
ENDBRANCH   4   6
BRANCH   1  20
ATOM     20  C   UNL     1       2.935   2.463  18.869  0.00  0.00    +0.000 C 
BRANCH  20  21
ATOM     21  C   UNL     1       3.126   3.534  17.759  0.00  0.00    +0.000 C 
ATOM     22  O   UNL     1       2.283   3.649  16.861  0.00  0.00    +0.000 OA
ATOM     23  N   UNL     1       4.220   4.364  17.818  0.00  0.00    +0.000 N 
ATOM     24  C   UNL     1       4.373   5.403  16.808  0.00  0.00    +0.000 C 
ATOM     25  C   UNL     1       5.516   6.340  17.177  0.00  0.00    +0.000 C 
ATOM     26  S   UNL     1       6.182   5.753  18.754  0.00  0.00    +0.000 S 
ATOM     27  C   UNL     1       5.408   4.138  18.602  0.00  0.00    +0.000 C 
ENDBRANCH  20  21
BRANCH  20  28
ATOM     28  N   UNL     1       2.947   1.134  18.229  0.00  0.00    +0.000 NA
ATOM     29  H   UNL     1       2.701   1.246  17.244  0.00  0.00    +0.000 HD
ATOM     30  H   UNL     1       2.149   0.606  18.600  0.00  0.00    +0.000 HD
ENDBRANCH  20  28
ENDBRANCH   1  20
TORSDOF 5
ENDMDL
MODEL 3
REMARK VINA RESULT:      -7.8      0.998      2.314
REMARK  Name = 
REMARK  5 active torsions:
REMARK  status: ('A' for Active; 'I' for Inactive)
REMARK    1  A    between atoms: N_1  and  C_2
REMARK    2  A    between atoms: C_2  and  C_3
REMARK    3  A    between atoms: C_2  and  C_10
REMARK    4  A    between atoms: C_13  and  N_14
REMARK    5  A    between atoms: C_15  and  C_17
REMARK                            x       y       z     vdW  Elec       q    Type
REMARK                         _______ _______ _______ _____ _____    ______ ____
ROOT
ATOM      1  C   UNL     1       2.183   3.720  18.590  0.00  0.00    +0.000 C 
ATOM      2  C   UNL     1       1.421   3.006  19.712  0.00  0.00    +0.000 C 
ATOM      3  C   UNL     1       1.533   3.897  20.944  0.00  0.00    +0.000 C 
ATOM      4  C   UNL     1       2.050   5.263  20.457  0.00  0.00    +0.000 C 
ATOM      5  C   UNL     1       1.918   5.198  18.933  0.00  0.00    +0.000 C 
ENDROOT
BRANCH   4   6
ATOM      6  N   UNL     1       1.376   6.390  21.075  0.00  0.00    +0.000 N 
ATOM      7  C   UNL     1       1.563   7.647  20.512  0.00  0.00    +0.000 C 
ATOM      8  O   UNL     1       2.399   7.861  19.637  0.00  0.00    +0.000 OA
ATOM      9  H   UNL     1       0.493   6.216  21.535  0.00  0.00    +0.000 HD
BRANCH   7  10
ATOM     10  C   UNL     1       0.712   8.759  21.028  0.00  0.00    +0.000 A 
ATOM     11  C   UNL     1       0.647   8.939  22.420  0.00  0.00    +0.000 A 
ATOM     12  C   UNL     1      -0.047  10.016  22.956  0.00  0.00    +0.000 A 
ATOM     13  C   UNL     1      -0.664  10.932  22.109  0.00  0.00    +0.000 A 
ATOM     14  C   UNL     1      -0.610  10.783  20.714  0.00  0.00    +0.000 A 
ATOM     15  C   UNL     1      -1.225  11.742  19.889  0.00  0.00    +0.000 A 
ATOM     16  C   UNL     1      -1.190  11.629  18.499  0.00  0.00    +0.000 A 
ATOM     17  C   UNL     1      -0.555  10.544  17.917  0.00  0.00    +0.000 A 
ATOM     18  C   UNL     1       0.056   9.582  18.724  0.00  0.00    +0.000 A 
ATOM     19  C   UNL     1       0.070   9.678  20.142  0.00  0.00    +0.000 A 
ENDBRANCH   7  10
ENDBRANCH   4   6
BRANCH   1  20
ATOM     20  C   UNL     1       3.689   3.355  18.457  0.00  0.00    +0.000 C 
BRANCH  20  21
ATOM     21  C   UNL     1       4.361   4.122  17.284  0.00  0.00    +0.000 C 
ATOM     22  O   UNL     1       3.815   4.155  16.175  0.00  0.00    +0.000 OA
ATOM     23  N   UNL     1       5.541   4.787  17.516  0.00  0.00    +0.000 N 
ATOM     24  C   UNL     1       6.145   5.551  16.433  0.00  0.00    +0.000 C 
ATOM     25  C   UNL     1       7.313   6.380  16.952  0.00  0.00    +0.000 C 
ATOM     26  S   UNL     1       7.427   6.063  18.730  0.00  0.00    +0.000 S 
ATOM     27  C   UNL     1       6.422   4.576  18.637  0.00  0.00    +0.000 C 
ENDBRANCH  20  21
BRANCH  20  28
ATOM     28  N   UNL     1       3.954   1.915  18.271  0.00  0.00    +0.000 NA
ATOM     29  H   UNL     1       4.885   1.707  18.636  0.00  0.00    +0.000 HD
ATOM     30  H   UNL     1       4.065   1.750  17.264  0.00  0.00    +0.000 HD
ENDBRANCH  20  28
ENDBRANCH   1  20
TORSDOF 5
ENDMDL
MODEL 4
REMARK VINA RESULT:      -7.5      1.540      1.798
REMARK  Name = 
REMARK  5 active torsions:
REMARK  status: ('A' for Active; 'I' for Inactive)
REMARK    1  A    between atoms: N_1  and  C_2
REMARK    2  A    between atoms: C_2  and  C_3
REMARK    3  A    between atoms: C_2  and  C_10
REMARK    4  A    between atoms: C_13  and  N_14
REMARK    5  A    between atoms: C_15  and  C_17
REMARK                            x       y       z     vdW  Elec       q    Type
REMARK                         _______ _______ _______ _____ _____    ______ ____
ROOT
ATOM      1  C   UNL     1       2.695   4.261  18.361  0.00  0.00    +0.000 C 
ATOM      2  C   UNL     1       1.452   4.041  19.233  0.00  0.00    +0.000 C 
ATOM      3  C   UNL     1       1.535   5.059  20.365  0.00  0.00    +0.000 C 
ATOM      4  C   UNL     1       2.618   6.078  19.967  0.00  0.00    +0.000 C 
ATOM      5  C   UNL     1       2.893   5.783  18.490  0.00  0.00    +0.000 C 
ENDROOT
BRANCH   4   6
ATOM      6  N   UNL     1       2.250   7.452  20.251  0.00  0.00    +0.000 N 
ATOM      7  C   UNL     1       1.819   8.243  19.191  0.00  0.00    +0.000 C 
ATOM      8  O   UNL     1       1.904   7.879  18.021  0.00  0.00    +0.000 OA
ATOM      9  H   UNL     1       1.872   7.660  21.165  0.00  0.00    +0.000 HD
BRANCH   7  10
ATOM     10  C   UNL     1       1.256   9.583  19.524  0.00  0.00    +0.000 A 
ATOM     11  C   UNL     1       1.335  10.586  18.543  0.00  0.00    +0.000 A 
ATOM     12  C   UNL     1       0.740  11.823  18.755  0.00  0.00    +0.000 A 
ATOM     13  C   UNL     1       0.046  12.063  19.938  0.00  0.00    +0.000 A 
ATOM     14  C   UNL     1      -0.057  11.079  20.934  0.00  0.00    +0.000 A 
ATOM     15  C   UNL     1      -0.786  11.349  22.106  0.00  0.00    +0.000 A 
ATOM     16  C   UNL     1      -0.912  10.395  23.115  0.00  0.00    +0.000 A 
ATOM     17  C   UNL     1      -0.293   9.164  22.974  0.00  0.00    +0.000 A 
ATOM     18  C   UNL     1       0.439   8.883  21.817  0.00  0.00    +0.000 A 
ATOM     19  C   UNL     1       0.563   9.816  20.753  0.00  0.00    +0.000 A 
ENDBRANCH   7  10
ENDBRANCH   4   6
BRANCH   1  20
ATOM     20  C   UNL     1       3.945   3.419  18.743  0.00  0.00    +0.000 C 
BRANCH  20  21
ATOM     21  C   UNL     1       5.262   4.199  18.475  0.00  0.00    +0.000 C 
ATOM     22  O   UNL     1       5.927   4.634  19.423  0.00  0.00    +0.000 OA
ATOM     23  N   UNL     1       5.686   4.359  17.177  0.00  0.00    +0.000 N 
ATOM     24  C   UNL     1       6.947   5.044  16.925  0.00  0.00    +0.000 C 
ATOM     25  C   UNL     1       7.336   4.922  15.458  0.00  0.00    +0.000 C 
ATOM     26  S   UNL     1       6.044   3.940  14.656  0.00  0.00    +0.000 S 
ATOM     27  C   UNL     1       4.874   4.189  15.998  0.00  0.00    +0.000 C 
ENDBRANCH  20  21
BRANCH  20  28
ATOM     28  N   UNL     1       4.038   2.117  18.056  0.00  0.00    +0.000 NA
ATOM     29  H   UNL     1       3.792   2.250  17.074  0.00  0.00    +0.000 HD
ATOM     30  H   UNL     1       3.270   1.530  18.402  0.00  0.00    +0.000 HD
ENDBRANCH  20  28
ENDBRANCH   1  20
TORSDOF 5
ENDMDL
MODEL 5
REMARK VINA RESULT:      -7.4      3.925      8.691
REMARK  Name = 
REMARK  5 active torsions:
REMARK  status: ('A' for Active; 'I' for Inactive)
REMARK    1  A    between atoms: N_1  and  C_2
REMARK    2  A    between atoms: C_2  and  C_3
REMARK    3  A    between atoms: C_2  and  C_10
REMARK    4  A    between atoms: C_13  and  N_14
REMARK    5  A    between atoms: C_15  and  C_17
REMARK                            x       y       z     vdW  Elec       q    Type
REMARK                         _______ _______ _______ _____ _____    ______ ____
ROOT
ATOM      1  C   UNL     1      -0.605  11.394  18.548  0.00  0.00    +0.000 C 
ATOM      2  C   UNL     1       0.726  12.150  18.641  0.00  0.00    +0.000 C 
ATOM      3  C   UNL     1       1.792  11.107  18.959  0.00  0.00    +0.000 C 
ATOM      4  C   UNL     1       1.152   9.729  18.711  0.00  0.00    +0.000 C 
ATOM      5  C   UNL     1      -0.149  10.042  17.967  0.00  0.00    +0.000 C 
ENDROOT
BRANCH   4   6
ATOM      6  N   UNL     1       2.030   8.798  18.028  0.00  0.00    +0.000 N 
ATOM      7  C   UNL     1       2.431   7.658  18.715  0.00  0.00    +0.000 C 
ATOM      8  O   UNL     1       2.215   7.501  19.915  0.00  0.00    +0.000 OA
ATOM      9  H   UNL     1       1.952   8.728  17.023  0.00  0.00    +0.000 HD
BRANCH   7  10
ATOM     10  C   UNL     1       3.163   6.616  17.939  0.00  0.00    +0.000 A 
ATOM     11  C   UNL     1       4.327   7.009  17.255  0.00  0.00    +0.000 A 
ATOM     12  C   UNL     1       5.106   6.066  16.598  0.00  0.00    +0.000 A 
ATOM     13  C   UNL     1       4.744   4.723  16.635  0.00  0.00    +0.000 A 
ATOM     14  C   UNL     1       3.592   4.298  17.316  0.00  0.00    +0.000 A 
ATOM     15  C   UNL     1       3.271   2.929  17.351  0.00  0.00    +0.000 A 
ATOM     16  C   UNL     1       2.137   2.470  18.020  0.00  0.00    +0.000 A 
ATOM     17  C   UNL     1       1.298   3.377  18.647  0.00  0.00    +0.000 A 
ATOM     18  C   UNL     1       1.602   4.740  18.616  0.00  0.00    +0.000 A 
ATOM     19  C   UNL     1       2.765   5.244  17.973  0.00  0.00    +0.000 A 
ENDBRANCH   7  10
ENDBRANCH   4   6
BRANCH   1  20
ATOM     20  C   UNL     1      -1.412  11.281  19.873  0.00  0.00    +0.000 C 
BRANCH  20  21
ATOM     21  C   UNL     1      -2.775  12.020  19.776  0.00  0.00    +0.000 C 
ATOM     22  O   UNL     1      -3.076  12.872  20.620  0.00  0.00    +0.000 OA
ATOM     23  N   UNL     1      -3.610  11.736  18.722  0.00  0.00    +0.000 N 
ATOM     24  C   UNL     1      -4.865  12.465  18.600  0.00  0.00    +0.000 C 
ATOM     25  C   UNL     1      -5.530  12.162  17.263  0.00  0.00    +0.000 C 
ATOM     26  S   UNL     1      -4.434  11.020  16.385  0.00  0.00    +0.000 S 
ATOM     27  C   UNL     1      -3.530  10.574  17.872  0.00  0.00    +0.000 C 
ENDBRANCH  20  21
BRANCH  20  28
ATOM     28  N   UNL     1      -0.703  11.785  21.065  0.00  0.00    +0.000 NA
ATOM     29  H   UNL     1      -1.306  11.658  21.879  0.00  0.00    +0.000 HD
ATOM     30  H   UNL     1      -0.649  12.807  20.982  0.00  0.00    +0.000 HD
ENDBRANCH  20  28
ENDBRANCH   1  20
TORSDOF 5
ENDMDL
MODEL 6
REMARK VINA RESULT:      -7.4      1.674      2.854
REMARK  Name = 
REMARK  5 active torsions:
REMARK  status: ('A' for Active; 'I' for Inactive)
REMARK    1  A    between atoms: N_1  and  C_2
REMARK    2  A    between atoms: C_2  and  C_3
REMARK    3  A    between atoms: C_2  and  C_10
REMARK    4  A    between atoms: C_13  and  N_14
REMARK    5  A    between atoms: C_15  and  C_17
REMARK                            x       y       z     vdW  Elec       q    Type
REMARK                         _______ _______ _______ _____ _____    ______ ____
ROOT
ATOM      1  C   UNL     1       3.018   4.608  18.747  0.00  0.00    +0.000 C 
ATOM      2  C   UNL     1       1.683   3.915  19.045  0.00  0.00    +0.000 C 
ATOM      3  C   UNL     1       1.217   4.445  20.397  0.00  0.00    +0.000 C 
ATOM      4  C   UNL     1       2.084   5.676  20.715  0.00  0.00    +0.000 C 
ATOM      5  C   UNL     1       2.799   5.987  19.397  0.00  0.00    +0.000 C 
ENDROOT
BRANCH   4   6
ATOM      6  N   UNL     1       1.333   6.785  21.271  0.00  0.00    +0.000 N 
ATOM      7  C   UNL     1       1.374   8.001  20.599  0.00  0.00    +0.000 C 
ATOM      8  O   UNL     1       2.148   8.214  19.668  0.00  0.00    +0.000 OA
ATOM      9  H   UNL     1       0.490   6.571  21.787  0.00  0.00    +0.000 HD
BRANCH   7  10
ATOM     10  C   UNL     1       0.444   9.070  21.064  0.00  0.00    +0.000 A 
ATOM     11  C   UNL     1       0.312   9.263  22.450  0.00  0.00    +0.000 A 
ATOM     12  C   UNL     1      -0.460  10.307  22.942  0.00  0.00    +0.000 A 
ATOM     13  C   UNL     1      -1.092  11.176  22.057  0.00  0.00    +0.000 A 
ATOM     14  C   UNL     1      -0.975  11.014  20.668  0.00  0.00    +0.000 A 
ATOM     15  C   UNL     1      -1.608  11.926  19.805  0.00  0.00    +0.000 A 
ATOM     16  C   UNL     1      -1.511  11.798  18.420  0.00  0.00    +0.000 A 
ATOM     17  C   UNL     1      -0.794  10.742  17.879  0.00  0.00    +0.000 A 
ATOM     18  C   UNL     1      -0.164   9.826  18.724  0.00  0.00    +0.000 A 
ATOM     19  C   UNL     1      -0.212   9.941  20.140  0.00  0.00    +0.000 A 
ENDBRANCH   7  10
ENDBRANCH   4   6
BRANCH   1  20
ATOM     20  C   UNL     1       4.291   3.863  19.240  0.00  0.00    +0.000 C 
BRANCH  20  21
ATOM     21  C   UNL     1       5.588   4.558  18.742  0.00  0.00    +0.000 C 
ATOM     22  O   UNL     1       6.391   5.026  19.558  0.00  0.00    +0.000 OA
ATOM     23  N   UNL     1       5.839   4.605  17.391  0.00  0.00    +0.000 N 
ATOM     24  C   UNL     1       7.080   5.209  16.924  0.00  0.00    +0.000 C 
ATOM     25  C   UNL     1       7.263   4.965  15.432  0.00  0.00    +0.000 C 
ATOM     26  S   UNL     1       5.838   3.992  14.885  0.00  0.00    +0.000 S 
ATOM     27  C   UNL     1       4.870   4.390  16.346  0.00  0.00    +0.000 C 
ENDBRANCH  20  21
BRANCH  20  28
ATOM     28  N   UNL     1       4.356   2.441  18.850  0.00  0.00    +0.000 NA
ATOM     29  H   UNL     1       5.325   2.126  18.932  0.00  0.00    +0.000 HD
ATOM     30  H   UNL     1       4.188   2.391  17.839  0.00  0.00    +0.000 HD
ENDBRANCH  20  28
ENDBRANCH   1  20
TORSDOF 5
ENDMDL
MODEL 7
REMARK VINA RESULT:      -7.3      2.309      4.133
REMARK  Name = 
REMARK  5 active torsions:
REMARK  status: ('A' for Active; 'I' for Inactive)
REMARK    1  A    between atoms: N_1  and  C_2
REMARK    2  A    between atoms: C_2  and  C_3
REMARK    3  A    between atoms: C_2  and  C_10
REMARK    4  A    between atoms: C_13  and  N_14
REMARK    5  A    between atoms: C_15  and  C_17
REMARK                            x       y       z     vdW  Elec       q    Type
REMARK                         _______ _______ _______ _____ _____    ______ ____
ROOT
ATOM      1  C   UNL     1       4.761   5.975  18.115  0.00  0.00    +0.000 C 
ATOM      2  C   UNL     1       4.525   6.973  16.975  0.00  0.00    +0.000 C 
ATOM      3  C   UNL     1       3.082   7.445  17.108  0.00  0.00    +0.000 C 
ATOM      4  C   UNL     1       2.595   6.999  18.499  0.00  0.00    +0.000 C 
ATOM      5  C   UNL     1       3.871   6.563  19.225  0.00  0.00    +0.000 C 
ENDROOT
BRANCH   4   6
ATOM      6  N   UNL     1       1.820   8.010  19.192  0.00  0.00    +0.000 N 
ATOM      7  C   UNL     1       1.530   9.187  18.513  0.00  0.00    +0.000 C 
ATOM      8  O   UNL     1       2.046   9.469  17.433  0.00  0.00    +0.000 OA
ATOM      9  H   UNL     1       1.150   7.699  19.882  0.00  0.00    +0.000 HD
BRANCH   7  10
ATOM     10  C   UNL     1       0.568  10.128  19.156  0.00  0.00    +0.000 A 
ATOM     11  C   UNL     1       1.002  10.827  20.296  0.00  0.00    +0.000 A 
ATOM     12  C   UNL     1       0.189  11.789  20.880  0.00  0.00    +0.000 A 
ATOM     13  C   UNL     1      -1.053  12.076  20.322  0.00  0.00    +0.000 A 
ATOM     14  C   UNL     1      -1.511  11.401  19.180  0.00  0.00    +0.000 A 
ATOM     15  C   UNL     1      -2.762  11.735  18.630  0.00  0.00    +0.000 A 
ATOM     16  C   UNL     1      -3.249  11.089  17.494  0.00  0.00    +0.000 A 
ATOM     17  C   UNL     1      -2.498  10.084  16.905  0.00  0.00    +0.000 A 
ATOM     18  C   UNL     1      -1.256   9.738  17.443  0.00  0.00    +0.000 A 
ATOM     19  C   UNL     1      -0.712  10.396  18.579  0.00  0.00    +0.000 A 
ENDBRANCH   7  10
ENDBRANCH   4   6
BRANCH   1  20
ATOM     20  C   UNL     1       4.465   4.485  17.780  0.00  0.00    +0.000 C 
BRANCH  20  21
ATOM     21  C   UNL     1       4.383   3.617  19.067  0.00  0.00    +0.000 C 
ATOM     22  O   UNL     1       5.420   3.231  19.618  0.00  0.00    +0.000 OA
ATOM     23  N   UNL     1       3.147   3.325  19.592  0.00  0.00    +0.000 N 
ATOM     24  C   UNL     1       3.069   2.556  20.827  0.00  0.00    +0.000 C 
ATOM     25  C   UNL     1       1.639   2.531  21.351  0.00  0.00    +0.000 C 
ATOM     26  S   UNL     1       0.645   3.507  20.196  0.00  0.00    +0.000 S 
ATOM     27  C   UNL     1       1.888   3.436  18.899  0.00  0.00    +0.000 C 
ENDBRANCH  20  21
BRANCH  20  28
ATOM     28  N   UNL     1       5.441   3.858  16.868  0.00  0.00    +0.000 NA
ATOM     29  H   UNL     1       6.117   4.567  16.580  0.00  0.00    +0.000 HD
ATOM     30  H   UNL     1       4.950   3.646  15.992  0.00  0.00    +0.000 HD
ENDBRANCH  20  28
ENDBRANCH   1  20
TORSDOF 5
ENDMDL
MODEL 8
REMARK VINA RESULT:      -7.3      4.001      8.630
REMARK  Name = 
REMARK  5 active torsions:
REMARK  status: ('A' for Active; 'I' for Inactive)
REMARK    1  A    between atoms: N_1  and  C_2
REMARK    2  A    between atoms: C_2  and  C_3
REMARK    3  A    between atoms: C_2  and  C_10
REMARK    4  A    between atoms: C_13  and  N_14
REMARK    5  A    between atoms: C_15  and  C_17
REMARK                            x       y       z     vdW  Elec       q    Type
REMARK                         _______ _______ _______ _____ _____    ______ ____
ROOT
ATOM      1  C   UNL     1      -0.184  12.233  19.992  0.00  0.00    +0.000 C 
ATOM      2  C   UNL     1      -1.271  11.439  19.257  0.00  0.00    +0.000 C 
ATOM      3  C   UNL     1      -0.558  10.299  18.539  0.00  0.00    +0.000 C 
ATOM      4  C   UNL     1       0.863  10.224  19.125  0.00  0.00    +0.000 C 
ATOM      5  C   UNL     1       0.809  11.117  20.367  0.00  0.00    +0.000 C 
ENDROOT
BRANCH   4   6
ATOM      6  N   UNL     1       1.315   8.868  19.374  0.00  0.00    +0.000 N 
ATOM      7  C   UNL     1       2.122   8.265  18.416  0.00  0.00    +0.000 C 
ATOM      8  O   UNL     1       2.317   8.763  17.310  0.00  0.00    +0.000 OA
ATOM      9  H   UNL     1       1.450   8.586  20.335  0.00  0.00    +0.000 HD
BRANCH   7  10
ATOM     10  C   UNL     1       2.743   6.957  18.772  0.00  0.00    +0.000 A 
ATOM     11  C   UNL     1       2.253   6.289  19.908  0.00  0.00    +0.000 A 
ATOM     12  C   UNL     1       2.720   5.023  20.233  0.00  0.00    +0.000 A 
ATOM     13  C   UNL     1       3.665   4.404  19.420  0.00  0.00    +0.000 A 
ATOM     14  C   UNL     1       4.168   5.041  18.275  0.00  0.00    +0.000 A 
ATOM     15  C   UNL     1       5.104   4.375  17.463  0.00  0.00    +0.000 A 
ATOM     16  C   UNL     1       5.623   4.976  16.316  0.00  0.00    +0.000 A 
ATOM     17  C   UNL     1       5.228   6.259  15.978  0.00  0.00    +0.000 A 
ATOM     18  C   UNL     1       4.303   6.935  16.777  0.00  0.00    +0.000 A 
ATOM     19  C   UNL     1       3.726   6.345  17.934  0.00  0.00    +0.000 A 
ENDBRANCH   7  10
ENDBRANCH   4   6
BRANCH   1  20
ATOM     20  C   UNL     1       0.448  13.410  19.196  0.00  0.00    +0.000 C 
BRANCH  20  21
ATOM     21  C   UNL     1       1.396  14.259  20.089  0.00  0.00    +0.000 C 
ATOM     22  O   UNL     1       1.078  14.516  21.256  0.00  0.00    +0.000 OA
ATOM     23  N   UNL     1       2.597  14.679  19.570  0.00  0.00    +0.000 N 
ATOM     24  C   UNL     1       3.510  15.430  20.421  0.00  0.00    +0.000 C 
ATOM     25  C   UNL     1       4.858  15.606  19.734  0.00  0.00    +0.000 C 
ATOM     26  S   UNL     1       4.739  14.768  18.134  0.00  0.00    +0.000 S 
ATOM     27  C   UNL     1       2.942  14.722  18.171  0.00  0.00    +0.000 C 
ENDBRANCH  20  21
BRANCH  20  28
ATOM     28  N   UNL     1      -0.530  14.322  18.573  0.00  0.00    +0.000 NA
ATOM     29  H   UNL     1      -0.245  14.494  17.608  0.00  0.00    +0.000 HD
ATOM     30  H   UNL     1      -0.413  15.244  19.009  0.00  0.00    +0.000 HD
ENDBRANCH  20  28
ENDBRANCH   1  20
TORSDOF 5
ENDMDL
MODEL 9
REMARK VINA RESULT:      -7.2      2.036      3.513
REMARK  Name = 
REMARK  5 active torsions:
REMARK  status: ('A' for Active; 'I' for Inactive)
REMARK    1  A    between atoms: N_1  and  C_2
REMARK    2  A    between atoms: C_2  and  C_3
REMARK    3  A    between atoms: C_2  and  C_10
REMARK    4  A    between atoms: C_13  and  N_14
REMARK    5  A    between atoms: C_15  and  C_17
REMARK                            x       y       z     vdW  Elec       q    Type
REMARK                         _______ _______ _______ _____ _____    ______ ____
ROOT
ATOM      1  C   UNL     1       5.363   5.268  17.804  0.00  0.00    +0.000 C 
ATOM      2  C   UNL     1       5.635   6.084  16.534  0.00  0.00    +0.000 C 
ATOM      3  C   UNL     1       4.470   7.057  16.391  0.00  0.00    +0.000 C 
ATOM      4  C   UNL     1       3.717   7.049  17.733  0.00  0.00    +0.000 C 
ATOM      5  C   UNL     1       4.656   6.310  18.691  0.00  0.00    +0.000 C 
ENDROOT
BRANCH   4   6
ATOM      6  N   UNL     1       3.316   8.370  18.180  0.00  0.00    +0.000 N 
ATOM      7  C   UNL     1       1.957   8.658  18.218  0.00  0.00    +0.000 C 
ATOM      8  O   UNL     1       1.110   7.912  17.732  0.00  0.00    +0.000 OA
ATOM      9  H   UNL     1       3.907   8.840  18.852  0.00  0.00    +0.000 HD
BRANCH   7  10
ATOM     10  C   UNL     1       1.549   9.938  18.866  0.00  0.00    +0.000 A 
ATOM     11  C   UNL     1       1.758  11.128  18.147  0.00  0.00    +0.000 A 
ATOM     12  C   UNL     1       1.308  12.341  18.653  0.00  0.00    +0.000 A 
ATOM     13  C   UNL     1       0.631  12.375  19.869  0.00  0.00    +0.000 A 
ATOM     14  C   UNL     1       0.400  11.203  20.606  0.00  0.00    +0.000 A 
ATOM     15  C   UNL     1      -0.309  11.272  21.819  0.00  0.00    +0.000 A 
ATOM     16  C   UNL     1      -0.560  10.129  22.576  0.00  0.00    +0.000 A 
ATOM     17  C   UNL     1      -0.087   8.902  22.140  0.00  0.00    +0.000 A 
ATOM     18  C   UNL     1       0.624   8.818  20.940  0.00  0.00    +0.000 A 
ATOM     19  C   UNL     1       0.871   9.955  20.124  0.00  0.00    +0.000 A 
ENDBRANCH   7  10
ENDBRANCH   4   6
BRANCH   1  20
ATOM     20  C   UNL     1       4.561   3.951  17.602  0.00  0.00    +0.000 C 
BRANCH  20  21
ATOM     21  C   UNL     1       4.354   3.198  18.946  0.00  0.00    +0.000 C 
ATOM     22  O   UNL     1       5.286   2.558  19.445  0.00  0.00    +0.000 OA
ATOM     23  N   UNL     1       3.136   3.291  19.577  0.00  0.00    +0.000 N 
ATOM     24  C   UNL     1       2.956   2.630  20.863  0.00  0.00    +0.000 C 
ATOM     25  C   UNL     1       1.627   3.035  21.488  0.00  0.00    +0.000 C 
ATOM     26  S   UNL     1       0.848   4.202  20.346  0.00  0.00    +0.000 S 
ATOM     27  C   UNL     1       1.903   3.725  18.971  0.00  0.00    +0.000 C 
ENDBRANCH  20  21
BRANCH  20  28
ATOM     28  N   UNL     1       5.166   3.009  16.640  0.00  0.00    +0.000 NA
ATOM     29  H   UNL     1       4.986   3.351  15.695  0.00  0.00    +0.000 HD
ATOM     30  H   UNL     1       4.618   2.141  16.673  0.00  0.00    +0.000 HD
ENDBRANCH  20  28
ENDBRANCH   1  20
TORSDOF 5
ENDMDL
