MODEL 1
REMARK VINA RESULT:      -6.8      0.000      0.000
REMARK  Name = 
REMARK  4 active torsions:
REMARK  status: ('A' for Active; 'I' for Inactive)
REMARK    1  A    between atoms: N_1  and  C_2
REMARK    2  A    between atoms: C_2  and  N_4
REMARK    3  A    between atoms: N_4  and  N_5
REMARK    4  A    between atoms: C_11  and  O_12
REMARK                            x       y       z     vdW  Elec       q    Type
REMARK                         _______ _______ _______ _____ _____    ______ ____
ROOT
ATOM      1  N   UNL     1       5.799   3.947  19.273  0.00  0.00    +0.000 NA
ATOM      2  C   UNL     1       4.616   3.881  18.729  0.00  0.00    +0.000 C 
ATOM      3  C   UNL     1       4.280   4.184  17.279  0.00  0.00    +0.000 C 
ATOM      4  C   UNL     1       2.996   4.994  17.224  0.00  0.00    +0.000 C 
ATOM      5  C   UNL     1       1.831   4.191  17.788  0.00  0.00    +0.000 C 
ATOM      6  C   UNL     1       2.133   3.572  19.129  0.00  0.00    +0.000 A 
ATOM      7  C   UNL     1       1.107   3.081  19.951  0.00  0.00    +0.000 A 
ATOM      8  C   UNL     1       1.382   2.503  21.190  0.00  0.00    +0.000 A 
ATOM      9  C   UNL     1       2.694   2.395  21.635  0.00  0.00    +0.000 A 
ATOM     10  C   UNL     1       3.734   2.857  20.831  0.00  0.00    +0.000 A 
ATOM     11  C   UNL     1       3.463   3.434  19.581  0.00  0.00    +0.000 A 
ENDROOT
BRANCH   1  12
ATOM     12  N   UNL     1       6.878   4.325  18.534  0.00  0.00    +0.000 N 
ATOM     13  H   UNL     1       7.241   3.752  17.784  0.00  0.00    +0.000 HD
BRANCH  12  14
ATOM     14  C   UNL     1       7.523   5.507  18.785  0.00  0.00    +0.000 C 
ATOM     15  S   UNL     1       7.446   6.797  17.744  0.00  0.00    +0.000 S 
BRANCH  14  16
ATOM     16  N   UNL     1       8.227   5.560  19.938  0.00  0.00    +0.000 N 
ATOM     17  H   UNL     1       7.798   5.834  20.810  0.00  0.00    +0.000 HD
ATOM     18  H   UNL     1       9.189   5.248  19.903  0.00  0.00    +0.000 HD
ENDBRANCH  14  16
ENDBRANCH  12  14
ENDBRANCH   1  12
BRANCH   7  19
ATOM     19  O   UNL     1      -0.216   3.124  19.609  0.00  0.00    +0.000 OA
ATOM     20  H   UNL     1      -0.730   2.516  20.161  0.00  0.00    +0.000 HD
ENDBRANCH   7  19
TORSDOF 4
ENDMDL
MODEL 2
REMARK VINA RESULT:      -6.4      1.968      2.321
REMARK  Name = 
REMARK  4 active torsions:
REMARK  status: ('A' for Active; 'I' for Inactive)
REMARK    1  A    between atoms: N_1  and  C_2
REMARK    2  A    between atoms: C_2  and  N_4
REMARK    3  A    between atoms: N_4  and  N_5
REMARK    4  A    between atoms: C_11  and  O_12
REMARK                            x       y       z     vdW  Elec       q    Type
REMARK                         _______ _______ _______ _____ _____    ______ ____
ROOT
ATOM      1  N   UNL     1       5.331   5.141  17.240  0.00  0.00    +0.000 NA
ATOM      2  C   UNL     1       4.166   5.340  17.790  0.00  0.00    +0.000 C 
ATOM      3  C   UNL     1       3.492   6.684  17.995  0.00  0.00    +0.000 C 
ATOM      4  C   UNL     1       2.869   6.724  19.380  0.00  0.00    +0.000 C 
ATOM      5  C   UNL     1       1.785   5.662  19.511  0.00  0.00    +0.000 C 
ATOM      6  C   UNL     1       2.236   4.298  19.057  0.00  0.00    +0.000 A 
ATOM      7  C   UNL     1       1.513   3.142  19.396  0.00  0.00    +0.000 A 
ATOM      8  C   UNL     1       1.923   1.879  18.974  0.00  0.00    +0.000 A 
ATOM      9  C   UNL     1       3.065   1.739  18.194  0.00  0.00    +0.000 A 
ATOM     10  C   UNL     1       3.791   2.869  17.827  0.00  0.00    +0.000 A 
ATOM     11  C   UNL     1       3.379   4.144  18.243  0.00  0.00    +0.000 A 
ENDROOT
BRANCH   1  12
ATOM     12  N   UNL     1       6.072   6.192  16.793  0.00  0.00    +0.000 N 
ATOM     13  H   UNL     1       5.884   6.642  15.907  0.00  0.00    +0.000 HD
BRANCH  12  14
ATOM     14  C   UNL     1       7.115   6.683  17.534  0.00  0.00    +0.000 C 
ATOM     15  S   UNL     1       7.703   5.892  18.868  0.00  0.00    +0.000 S 
BRANCH  14  16
ATOM     16  N   UNL     1       7.638   7.856  17.109  0.00  0.00    +0.000 N 
ATOM     17  H   UNL     1       7.256   8.351  16.316  0.00  0.00    +0.000 HD
ATOM     18  H   UNL     1       8.387   8.250  17.662  0.00  0.00    +0.000 HD
ENDBRANCH  14  16
ENDBRANCH  12  14
ENDBRANCH   1  12
BRANCH   7  19
ATOM     19  O   UNL     1       0.371   3.164  20.147  0.00  0.00    +0.000 OA
ATOM     20  H   UNL     1       0.522   3.630  20.983  0.00  0.00    +0.000 HD
ENDBRANCH   7  19
TORSDOF 4
ENDMDL
MODEL 3
REMARK VINA RESULT:      -6.4      2.193      2.670
REMARK  Name = 
REMARK  4 active torsions:
REMARK  status: ('A' for Active; 'I' for Inactive)
REMARK    1  A    between atoms: N_1  and  C_2
REMARK    2  A    between atoms: C_2  and  N_4
REMARK    3  A    between atoms: N_4  and  N_5
REMARK    4  A    between atoms: C_11  and  O_12
REMARK                            x       y       z     vdW  Elec       q    Type
REMARK                         _______ _______ _______ _____ _____    ______ ____
ROOT
ATOM      1  N   UNL     1       4.696   5.304  16.762  0.00  0.00    +0.000 NA
ATOM      2  C   UNL     1       3.700   5.502  17.580  0.00  0.00    +0.000 C 
ATOM      3  C   UNL     1       3.215   6.848  18.088  0.00  0.00    +0.000 C 
ATOM      4  C   UNL     1       2.911   6.739  19.573  0.00  0.00    +0.000 C 
ATOM      5  C   UNL     1       1.785   5.743  19.819  0.00  0.00    +0.000 C 
ATOM      6  C   UNL     1       1.998   4.427  19.116  0.00  0.00    +0.000 A 
ATOM      7  C   UNL     1       1.260   3.286  19.471  0.00  0.00    +0.000 A 
ATOM      8  C   UNL     1       1.449   2.067  18.822  0.00  0.00    +0.000 A 
ATOM      9  C   UNL     1       2.378   1.960  17.793  0.00  0.00    +0.000 A 
ATOM     10  C   UNL     1       3.111   3.079  17.408  0.00  0.00    +0.000 A 
ATOM     11  C   UNL     1       2.919   4.311  18.054  0.00  0.00    +0.000 A 
ENDROOT
BRANCH   1  12
ATOM     12  N   UNL     1       5.419   6.356  16.287  0.00  0.00    +0.000 N 
ATOM     13  H   UNL     1       4.985   7.124  15.792  0.00  0.00    +0.000 HD
BRANCH  12  14
ATOM     14  C   UNL     1       6.776   6.410  16.458  0.00  0.00    +0.000 C 
ATOM     15  S   UNL     1       7.486   7.380  17.602  0.00  0.00    +0.000 S 
BRANCH  14  16
ATOM     16  N   UNL     1       7.506   5.622  15.637  0.00  0.00    +0.000 N 
ATOM     17  H   UNL     1       8.355   5.952  15.201  0.00  0.00    +0.000 HD
ATOM     18  H   UNL     1       7.201   4.664  15.530  0.00  0.00    +0.000 HD
ENDBRANCH  14  16
ENDBRANCH  12  14
ENDBRANCH   1  12
BRANCH   7  19
ATOM     19  O   UNL     1       0.312   3.280  20.457  0.00  0.00    +0.000 OA
ATOM     20  H   UNL     1      -0.484   3.749  20.166  0.00  0.00    +0.000 HD
ENDBRANCH   7  19
TORSDOF 4
ENDMDL
MODEL 4
REMARK VINA RESULT:      -6.4      2.498      2.924
REMARK  Name = 
REMARK  4 active torsions:
REMARK  status: ('A' for Active; 'I' for Inactive)
REMARK    1  A    between atoms: N_1  and  C_2
REMARK    2  A    between atoms: C_2  and  N_4
REMARK    3  A    between atoms: N_4  and  N_5
REMARK    4  A    between atoms: C_11  and  O_12
REMARK                            x       y       z     vdW  Elec       q    Type
REMARK                         _______ _______ _______ _____ _____    ______ ____
ROOT
ATOM      1  N   UNL     1       5.365   4.443  16.690  0.00  0.00    +0.000 NA
ATOM      2  C   UNL     1       4.310   4.901  17.304  0.00  0.00    +0.000 C 
ATOM      3  C   UNL     1       3.857   6.349  17.344  0.00  0.00    +0.000 C 
ATOM      4  C   UNL     1       3.408   6.693  18.754  0.00  0.00    +0.000 C 
ATOM      5  C   UNL     1       2.209   5.844  19.157  0.00  0.00    +0.000 C 
ATOM      6  C   UNL     1       2.411   4.374  18.895  0.00  0.00    +0.000 A 
ATOM      7  C   UNL     1       1.579   3.409  19.486  0.00  0.00    +0.000 A 
ATOM      8  C   UNL     1       1.758   2.048  19.243  0.00  0.00    +0.000 A 
ATOM      9  C   UNL     1       2.772   1.617  18.396  0.00  0.00    +0.000 A 
ATOM     10  C   UNL     1       3.601   2.552  17.783  0.00  0.00    +0.000 A 
ATOM     11  C   UNL     1       3.421   3.924  18.018  0.00  0.00    +0.000 A 
ENDROOT
BRANCH   1  12
ATOM     12  N   UNL     1       6.189   5.288  16.010  0.00  0.00    +0.000 N 
ATOM     13  H   UNL     1       6.443   6.197  16.374  0.00  0.00    +0.000 HD
BRANCH  12  14
ATOM     14  C   UNL     1       6.707   4.935  14.792  0.00  0.00    +0.000 C 
ATOM     15  S   UNL     1       5.950   3.852  13.788  0.00  0.00    +0.000 S 
BRANCH  14  16
ATOM     16  N   UNL     1       7.875   5.527  14.455  0.00  0.00    +0.000 N 
ATOM     17  H   UNL     1       8.666   5.534  15.083  0.00  0.00    +0.000 HD
ATOM     18  H   UNL     1       7.946   5.903  13.520  0.00  0.00    +0.000 HD
ENDBRANCH  14  16
ENDBRANCH  12  14
ENDBRANCH   1  12
BRANCH   7  19
ATOM     19  O   UNL     1       0.544   3.720  20.323  0.00  0.00    +0.000 OA
ATOM     20  H   UNL     1       0.869   3.866  21.224  0.00  0.00    +0.000 HD
ENDBRANCH   7  19
TORSDOF 4
ENDMDL
MODEL 5
REMARK VINA RESULT:      -6.4      3.822      4.467
REMARK  Name = 
REMARK  4 active torsions:
REMARK  status: ('A' for Active; 'I' for Inactive)
REMARK    1  A    between atoms: N_1  and  C_2
REMARK    2  A    between atoms: C_2  and  N_4
REMARK    3  A    between atoms: N_4  and  N_5
REMARK    4  A    between atoms: C_11  and  O_12
REMARK                            x       y       z     vdW  Elec       q    Type
REMARK                         _______ _______ _______ _____ _____    ______ ____
ROOT
ATOM      1  N   UNL     1       2.239   7.070  18.154  0.00  0.00    +0.000 NA
ATOM      2  C   UNL     1       3.135   6.143  17.962  0.00  0.00    +0.000 C 
ATOM      3  C   UNL     1       4.540   6.354  17.427  0.00  0.00    +0.000 C 
ATOM      4  C   UNL     1       4.861   5.259  16.424  0.00  0.00    +0.000 C 
ATOM      5  C   UNL     1       4.847   3.893  17.099  0.00  0.00    +0.000 C 
ATOM      6  C   UNL     1       3.609   3.655  17.925  0.00  0.00    +0.000 A 
ATOM      7  C   UNL     1       3.255   2.364  18.349  0.00  0.00    +0.000 A 
ATOM      8  C   UNL     1       2.114   2.138  19.117  0.00  0.00    +0.000 A 
ATOM      9  C   UNL     1       1.299   3.202  19.487  0.00  0.00    +0.000 A 
ATOM     10  C   UNL     1       1.636   4.495  19.095  0.00  0.00    +0.000 A 
ATOM     11  C   UNL     1       2.787   4.729  18.328  0.00  0.00    +0.000 A 
ENDROOT
BRANCH   1  12
ATOM     12  N   UNL     1       2.517   8.370  17.859  0.00  0.00    +0.000 N 
ATOM     13  H   UNL     1       3.271   8.629  17.237  0.00  0.00    +0.000 HD
BRANCH  12  14
ATOM     14  C   UNL     1       1.779   9.388  18.404  0.00  0.00    +0.000 C 
ATOM     15  S   UNL     1       0.997   9.234  19.859  0.00  0.00    +0.000 S 
BRANCH  14  16
ATOM     16  N   UNL     1       1.728  10.530  17.681  0.00  0.00    +0.000 N 
ATOM     17  H   UNL     1       2.505  10.833  17.112  0.00  0.00    +0.000 HD
ATOM     18  H   UNL     1       0.851  11.034  17.682  0.00  0.00    +0.000 HD
ENDBRANCH  14  16
ENDBRANCH  12  14
ENDBRANCH   1  12
BRANCH   7  19
ATOM     19  O   UNL     1       3.990   1.248  18.055  0.00  0.00    +0.000 OA
ATOM     20  H   UNL     1       3.679   0.491  18.573  0.00  0.00    +0.000 HD
ENDBRANCH   7  19
TORSDOF 4
ENDMDL
MODEL 6
REMARK VINA RESULT:      -6.4      2.907      3.623
REMARK  Name = 
REMARK  4 active torsions:
REMARK  status: ('A' for Active; 'I' for Inactive)
REMARK    1  A    between atoms: N_1  and  C_2
REMARK    2  A    between atoms: C_2  and  N_4
REMARK    3  A    between atoms: N_4  and  N_5
REMARK    4  A    between atoms: C_11  and  O_12
REMARK                            x       y       z     vdW  Elec       q    Type
REMARK                         _______ _______ _______ _____ _____    ______ ____
ROOT
ATOM      1  N   UNL     1       6.207   7.399  17.210  0.00  0.00    +0.000 NA
ATOM      2  C   UNL     1       5.945   6.127  17.090  0.00  0.00    +0.000 C 
ATOM      3  C   UNL     1       6.944   5.038  16.744  0.00  0.00    +0.000 C 
ATOM      4  C   UNL     1       6.315   4.085  15.741  0.00  0.00    +0.000 C 
ATOM      5  C   UNL     1       5.100   3.394  16.346  0.00  0.00    +0.000 C 
ATOM      6  C   UNL     1       4.138   4.354  16.999  0.00  0.00    +0.000 A 
ATOM      7  C   UNL     1       2.827   3.966  17.317  0.00  0.00    +0.000 A 
ATOM      8  C   UNL     1       1.935   4.848  17.925  0.00  0.00    +0.000 A 
ATOM      9  C   UNL     1       2.336   6.141  18.239  0.00  0.00    +0.000 A 
ATOM     10  C   UNL     1       3.636   6.548  17.951  0.00  0.00    +0.000 A 
ATOM     11  C   UNL     1       4.540   5.662  17.344  0.00  0.00    +0.000 A 
ENDROOT
BRANCH   1  12
ATOM     12  N   UNL     1       7.471   7.865  17.012  0.00  0.00    +0.000 N 
ATOM     13  H   UNL     1       7.905   7.861  16.098  0.00  0.00    +0.000 HD
BRANCH  12  14
ATOM     14  C   UNL     1       8.210   8.358  18.054  0.00  0.00    +0.000 C 
ATOM     15  S   UNL     1       8.640   9.957  18.157  0.00  0.00    +0.000 S 
BRANCH  14  16
ATOM     16  N   UNL     1       8.569   7.458  18.998  0.00  0.00    +0.000 N 
ATOM     17  H   UNL     1       8.873   6.526  18.755  0.00  0.00    +0.000 HD
ATOM     18  H   UNL     1       8.585   7.781  19.956  0.00  0.00    +0.000 HD
ENDBRANCH  14  16
ENDBRANCH  12  14
ENDBRANCH   1  12
BRANCH   7  19
ATOM     19  O   UNL     1       2.331   2.716  17.066  0.00  0.00    +0.000 OA
ATOM     20  H   UNL     1       3.047   2.063  17.054  0.00  0.00    +0.000 HD
ENDBRANCH   7  19
TORSDOF 4
ENDMDL
MODEL 7
REMARK VINA RESULT:      -6.3      3.166      4.373
REMARK  Name = 
REMARK  4 active torsions:
REMARK  status: ('A' for Active; 'I' for Inactive)
REMARK    1  A    between atoms: N_1  and  C_2
REMARK    2  A    between atoms: C_2  and  N_4
REMARK    3  A    between atoms: N_4  and  N_5
REMARK    4  A    between atoms: C_11  and  O_12
REMARK                            x       y       z     vdW  Elec       q    Type
REMARK                         _______ _______ _______ _____ _____    ______ ____
ROOT
ATOM      1  N   UNL     1       6.023   6.179  16.171  0.00  0.00    +0.000 NA
ATOM      2  C   UNL     1       5.587   5.770  17.330  0.00  0.00    +0.000 C 
ATOM      3  C   UNL     1       6.229   4.706  18.202  0.00  0.00    +0.000 C 
ATOM      4  C   UNL     1       5.144   3.805  18.767  0.00  0.00    +0.000 C 
ATOM      5  C   UNL     1       4.200   4.597  19.661  0.00  0.00    +0.000 C 
ATOM      6  C   UNL     1       3.699   5.864  19.016  0.00  0.00    +0.000 A 
ATOM      7  C   UNL     1       2.588   6.552  19.531  0.00  0.00    +0.000 A 
ATOM      8  C   UNL     1       2.124   7.727  18.941  0.00  0.00    +0.000 A 
ATOM      9  C   UNL     1       2.766   8.249  17.824  0.00  0.00    +0.000 A 
ATOM     10  C   UNL     1       3.881   7.597  17.304  0.00  0.00    +0.000 A 
ATOM     11  C   UNL     1       4.357   6.418  17.897  0.00  0.00    +0.000 A 
ENDROOT
BRANCH   1  12
ATOM     12  N   UNL     1       7.147   5.638  15.626  0.00  0.00    +0.000 N 
ATOM     13  H   UNL     1       8.026   5.613  16.126  0.00  0.00    +0.000 HD
BRANCH  12  14
ATOM     14  C   UNL     1       7.131   5.104  14.365  0.00  0.00    +0.000 C 
ATOM     15  S   UNL     1       6.060   3.918  13.918  0.00  0.00    +0.000 S 
BRANCH  14  16
ATOM     16  N   UNL     1       8.043   5.606  13.502  0.00  0.00    +0.000 N 
ATOM     17  H   UNL     1       8.610   6.408  13.736  0.00  0.00    +0.000 HD
ATOM     18  H   UNL     1       8.181   5.101  12.636  0.00  0.00    +0.000 HD
ENDBRANCH  14  16
ENDBRANCH  12  14
ENDBRANCH   1  12
BRANCH   7  19
ATOM     19  O   UNL     1       1.891   6.137  20.631  0.00  0.00    +0.000 OA
ATOM     20  H   UNL     1       1.255   5.448  20.390  0.00  0.00    +0.000 HD
ENDBRANCH   7  19
TORSDOF 4
ENDMDL
MODEL 8
REMARK VINA RESULT:      -6.3      4.004      4.554
REMARK  Name = 
REMARK  4 active torsions:
REMARK  status: ('A' for Active; 'I' for Inactive)
REMARK    1  A    between atoms: N_1  and  C_2
REMARK    2  A    between atoms: C_2  and  N_4
REMARK    3  A    between atoms: N_4  and  N_5
REMARK    4  A    between atoms: C_11  and  O_12
REMARK                            x       y       z     vdW  Elec       q    Type
REMARK                         _______ _______ _______ _____ _____    ______ ____
ROOT
ATOM      1  N   UNL     1       2.178   7.346  18.453  0.00  0.00    +0.000 NA
ATOM      2  C   UNL     1       3.170   6.509  18.335  0.00  0.00    +0.000 C 
ATOM      3  C   UNL     1       4.402   6.700  17.468  0.00  0.00    +0.000 C 
ATOM      4  C   UNL     1       4.723   5.393  16.763  0.00  0.00    +0.000 C 
ATOM      5  C   UNL     1       5.061   4.306  17.776  0.00  0.00    +0.000 C 
ATOM      6  C   UNL     1       4.047   4.197  18.885  0.00  0.00    +0.000 A 
ATOM      7  C   UNL     1       3.999   3.067  19.718  0.00  0.00    +0.000 A 
ATOM      8  C   UNL     1       3.066   2.963  20.748  0.00  0.00    +0.000 A 
ATOM      9  C   UNL     1       2.160   3.992  20.978  0.00  0.00    +0.000 A 
ATOM     10  C   UNL     1       2.197   5.132  20.179  0.00  0.00    +0.000 A 
ATOM     11  C   UNL     1       3.138   5.245  19.145  0.00  0.00    +0.000 A 
ENDROOT
BRANCH   1  12
ATOM     12  N   UNL     1       2.174   8.515  17.756  0.00  0.00    +0.000 N 
ATOM     13  H   UNL     1       2.525   8.576  16.810  0.00  0.00    +0.000 HD
BRANCH  12  14
ATOM     14  C   UNL     1       1.692   9.668  18.319  0.00  0.00    +0.000 C 
ATOM     15  S   UNL     1       0.770   9.662  19.699  0.00  0.00    +0.000 S 
BRANCH  14  16
ATOM     16  N   UNL     1       2.015  10.815  17.680  0.00  0.00    +0.000 N 
ATOM     17  H   UNL     1       1.325  11.525  17.483  0.00  0.00    +0.000 HD
ATOM     18  H   UNL     1       2.993  10.961  17.467  0.00  0.00    +0.000 HD
ENDBRANCH  14  16
ENDBRANCH  12  14
ENDBRANCH   1  12
BRANCH   7  19
ATOM     19  O   UNL     1       4.848   2.003  19.591  0.00  0.00    +0.000 OA
ATOM     20  H   UNL     1       4.871   1.487  20.410  0.00  0.00    +0.000 HD
ENDBRANCH   7  19
TORSDOF 4
ENDMDL
MODEL 9
REMARK VINA RESULT:      -6.3      2.275      2.767
REMARK  Name = 
REMARK  4 active torsions:
REMARK  status: ('A' for Active; 'I' for Inactive)
REMARK    1  A    between atoms: N_1  and  C_2
REMARK    2  A    between atoms: C_2  and  N_4
REMARK    3  A    between atoms: N_4  and  N_5
REMARK    4  A    between atoms: C_11  and  O_12
REMARK                            x       y       z     vdW  Elec       q    Type
REMARK                         _______ _______ _______ _____ _____    ______ ____
ROOT
ATOM      1  N   UNL     1       4.543   5.282  16.811  0.00  0.00    +0.000 NA
ATOM      2  C   UNL     1       3.952   4.327  17.472  0.00  0.00    +0.000 C 
ATOM      3  C   UNL     1       4.132   2.837  17.242  0.00  0.00    +0.000 C 
ATOM      4  C   UNL     1       2.775   2.156  17.306  0.00  0.00    +0.000 C 
ATOM      5  C   UNL     1       2.159   2.317  18.690  0.00  0.00    +0.000 C 
ATOM      6  C   UNL     1       2.179   3.741  19.183  0.00  0.00    +0.000 A 
ATOM      7  C   UNL     1       1.382   4.147  20.266  0.00  0.00    +0.000 A 
ATOM      8  C   UNL     1       1.399   5.462  20.729  0.00  0.00    +0.000 A 
ATOM      9  C   UNL     1       2.222   6.405  20.124  0.00  0.00    +0.000 A 
ATOM     10  C   UNL     1       3.037   6.026  19.060  0.00  0.00    +0.000 A 
ATOM     11  C   UNL     1       3.028   4.702  18.594  0.00  0.00    +0.000 A 
ENDROOT
BRANCH   1  12
ATOM     12  N   UNL     1       5.408   4.991  15.800  0.00  0.00    +0.000 N 
ATOM     13  H   UNL     1       5.085   4.714  14.882  0.00  0.00    +0.000 HD
BRANCH  12  14
ATOM     14  C   UNL     1       6.762   5.057  15.992  0.00  0.00    +0.000 C 
ATOM     15  S   UNL     1       7.463   4.767  17.468  0.00  0.00    +0.000 S 
BRANCH  14  16
ATOM     16  N   UNL     1       7.497   5.372  14.901  0.00  0.00    +0.000 N 
ATOM     17  H   UNL     1       8.506   5.327  14.909  0.00  0.00    +0.000 HD
ATOM     18  H   UNL     1       6.989   5.591  14.054  0.00  0.00    +0.000 HD
ENDBRANCH  14  16
ENDBRANCH  12  14
ENDBRANCH   1  12
BRANCH   7  19
ATOM     19  O   UNL     1       0.547   3.302  20.942  0.00  0.00    +0.000 OA
ATOM     20  H   UNL     1       0.492   2.446  20.492  0.00  0.00    +0.000 HD
ENDBRANCH   7  19
TORSDOF 4
ENDMDL
