MODEL 1
REMARK VINA RESULT:      -8.4      0.000      0.000
REMARK  Name = 
REMARK  8 active torsions:
REMARK  status: ('A' for Active; 'I' for Inactive)
REMARK    1  A    between atoms: C_1  and  C_2
REMARK    2  A    between atoms: C_2  and  O_3
REMARK    3  A    between atoms: O_3  and  C_4
REMARK    4  A    between atoms: C_4  and  C_6
REMARK    5  A    between atoms: N_9  and  N_10
REMARK    6  A    between atoms: C_11  and  C_12
REMARK    7  A    between atoms: C_13  and  C_14
REMARK    8  A    between atoms: C_29  and  C_30
REMARK                            x       y       z     vdW  Elec       q    Type
REMARK                         _______ _______ _______ _____ _____    ______ ____
ROOT
ATOM      1  C   UNL     1       3.224   4.939  18.310  0.00  0.00    +0.000 A 
ATOM      2  C   UNL     1       4.398   4.307  17.899  0.00  0.00    +0.000 A 
ATOM      3  N   UNL     1       4.618   3.282  18.800  0.00  0.00    +0.000 N 
ATOM      4  C   UNL     1       3.634   3.226  19.755  0.00  0.00    +0.000 A 
ATOM      5  C   UNL     1       3.481   2.353  20.841  0.00  0.00    +0.000 A 
ATOM      6  C   UNL     1       2.356   2.522  21.655  0.00  0.00    +0.000 A 
ATOM      7  C   UNL     1       1.424   3.522  21.393  0.00  0.00    +0.000 A 
ATOM      8  C   UNL     1       1.604   4.386  20.307  0.00  0.00    +0.000 A 
ATOM      9  C   UNL     1       2.731   4.239  19.464  0.00  0.00    +0.000 A 
ATOM     10  H   UNL     1       5.386   2.629  18.750  0.00  0.00    +0.000 HD
ENDROOT
BRANCH   2  11
ATOM     11  C   UNL     1       5.287   4.526  16.746  0.00  0.00    +0.000 A 
ATOM     12  C   UNL     1       4.911   4.120  15.454  0.00  0.00    +0.000 A 
ATOM     13  C   UNL     1       5.750   4.346  14.355  0.00  0.00    +0.000 A 
ATOM     14  C   UNL     1       6.983   4.965  14.539  0.00  0.00    +0.000 A 
ATOM     15 CL   UNL     1       8.016   5.240  13.193  0.00  0.00    +0.000 Cl
ATOM     16  C   UNL     1       7.378   5.372  15.808  0.00  0.00    +0.000 A 
ATOM     17  C   UNL     1       6.525   5.169  16.898  0.00  0.00    +0.000 A 
ENDBRANCH   2  11
BRANCH   1  19
ATOM     18  N   UNL     1       2.653   7.234  18.300  0.00  0.00    +0.000 NA
ATOM     19  C   UNL     1       2.629   6.101  17.678  0.00  0.00    +0.000 C 
BRANCH  18  23
ATOM     20  C   UNL     1       0.289  10.709  19.931  0.00  0.00    +0.000 A 
ATOM     21  S   UNL     1       1.563   9.567  19.973  0.00  0.00    +0.000 S 
ATOM     22  C   UNL     1       1.289   9.182  18.318  0.00  0.00    +0.000 A 
ATOM     23  N   UNL     1       2.046   8.270  17.652  0.00  0.00    +0.000 N 
ATOM     24  N   UNL     1       0.317   9.860  17.751  0.00  0.00    +0.000 NA
ATOM     25  C   UNL     1      -0.280  10.719  18.667  0.00  0.00    +0.000 A 
ATOM     26  C   UNL     1      -1.437  11.531  18.196  0.00  0.00    +0.000 C 
ATOM     27  H   UNL     1       1.736   8.111  16.695  0.00  0.00    +0.000 HD
BRANCH  20  28
ATOM     28  C   UNL     1      -0.044  11.417  21.144  0.00  0.00    +0.000 C 
ATOM     29  O   UNL     1       0.561  12.370  21.622  0.00  0.00    +0.000 OA
BRANCH  28  30
ATOM     30  O   UNL     1      -1.097  10.805  21.756  0.00  0.00    +0.000 OA
BRANCH  30  32
ATOM     31  C   UNL     1      -0.144   9.420  23.448  0.00  0.00    +0.000 C 
ATOM     32  C   UNL     1      -0.982  10.657  23.176  0.00  0.00    +0.000 C 
ENDBRANCH  30  32
ENDBRANCH  28  30
ENDBRANCH  20  28
ENDBRANCH  18  23
ENDBRANCH   1  19
TORSDOF 6
ENDMDL
MODEL 2
REMARK VINA RESULT:      -8.3      0.894      1.088
REMARK  Name = 
REMARK  8 active torsions:
REMARK  status: ('A' for Active; 'I' for Inactive)
REMARK    1  A    between atoms: C_1  and  C_2
REMARK    2  A    between atoms: C_2  and  O_3
REMARK    3  A    between atoms: O_3  and  C_4
REMARK    4  A    between atoms: C_4  and  C_6
REMARK    5  A    between atoms: N_9  and  N_10
REMARK    6  A    between atoms: C_11  and  C_12
REMARK    7  A    between atoms: C_13  and  C_14
REMARK    8  A    between atoms: C_29  and  C_30
REMARK                            x       y       z     vdW  Elec       q    Type
REMARK                         _______ _______ _______ _____ _____    ______ ____
ROOT
ATOM      1  C   UNL     1       3.832   5.159  18.584  0.00  0.00    +0.000 A 
ATOM      2  C   UNL     1       4.701   4.326  17.878  0.00  0.00    +0.000 A 
ATOM      3  N   UNL     1       4.693   3.112  18.540  0.00  0.00    +0.000 N 
ATOM      4  C   UNL     1       3.853   3.132  19.625  0.00  0.00    +0.000 A 
ATOM      5  C   UNL     1       3.560   2.127  20.557  0.00  0.00    +0.000 A 
ATOM      6  C   UNL     1       2.640   2.427  21.567  0.00  0.00    +0.000 A 
ATOM      7  C   UNL     1       2.038   3.680  21.642  0.00  0.00    +0.000 A 
ATOM      8  C   UNL     1       2.353   4.669  20.703  0.00  0.00    +0.000 A 
ATOM      9  C   UNL     1       3.279   4.395  19.669  0.00  0.00    +0.000 A 
ATOM     10  H   UNL     1       5.212   2.297  18.251  0.00  0.00    +0.000 HD
ENDROOT
BRANCH   2  11
ATOM     11  C   UNL     1       5.480   4.527  16.644  0.00  0.00    +0.000 A 
ATOM     12  C   UNL     1       4.954   4.172  15.390  0.00  0.00    +0.000 A 
ATOM     13  C   UNL     1       5.690   4.383  14.216  0.00  0.00    +0.000 A 
ATOM     14  C   UNL     1       6.965   4.933  14.285  0.00  0.00    +0.000 A 
ATOM     15 CL   UNL     1       7.871   5.189  12.846  0.00  0.00    +0.000 Cl
ATOM     16  C   UNL     1       7.507   5.289  15.515  0.00  0.00    +0.000 A 
ATOM     17  C   UNL     1       6.759   5.102  16.683  0.00  0.00    +0.000 A 
ENDBRANCH   2  11
BRANCH   1  19
ATOM     18  N   UNL     1       2.339   6.974  18.326  0.00  0.00    +0.000 NA
ATOM     19  C   UNL     1       3.558   6.547  18.269  0.00  0.00    +0.000 C 
BRANCH  18  23
ATOM     20  C   UNL     1       0.358  10.333  20.588  0.00  0.00    +0.000 A 
ATOM     21  S   UNL     1       1.312   8.917  20.470  0.00  0.00    +0.000 S 
ATOM     22  C   UNL     1       1.445   9.133  18.769  0.00  0.00    +0.000 A 
ATOM     23  N   UNL     1       2.160   8.283  17.985  0.00  0.00    +0.000 N 
ATOM     24  N   UNL     1       0.830  10.195  18.301  0.00  0.00    +0.000 NA
ATOM     25  C   UNL     1       0.184  10.878  19.325  0.00  0.00    +0.000 A 
ATOM     26  C   UNL     1      -0.606  12.086  18.956  0.00  0.00    +0.000 C 
ATOM     27  H   UNL     1       2.107   8.509  16.993  0.00  0.00    +0.000 HD
BRANCH  20  28
ATOM     28  C   UNL     1      -0.156  10.715  21.882  0.00  0.00    +0.000 C 
ATOM     29  O   UNL     1       0.324  10.422  22.972  0.00  0.00    +0.000 OA
BRANCH  28  30
ATOM     30  O   UNL     1      -1.333  11.383  21.728  0.00  0.00    +0.000 OA
BRANCH  30  32
ATOM     31  C   UNL     1      -2.926  12.173  23.318  0.00  0.00    +0.000 C 
ATOM     32  C   UNL     1      -1.575  12.430  22.674  0.00  0.00    +0.000 C 
ENDBRANCH  30  32
ENDBRANCH  28  30
ENDBRANCH  20  28
ENDBRANCH  18  23
ENDBRANCH   1  19
TORSDOF 6
ENDMDL
MODEL 3
REMARK VINA RESULT:      -8.2      0.985      1.605
REMARK  Name = 
REMARK  8 active torsions:
REMARK  status: ('A' for Active; 'I' for Inactive)
REMARK    1  A    between atoms: C_1  and  C_2
REMARK    2  A    between atoms: C_2  and  O_3
REMARK    3  A    between atoms: O_3  and  C_4
REMARK    4  A    between atoms: C_4  and  C_6
REMARK    5  A    between atoms: N_9  and  N_10
REMARK    6  A    between atoms: C_11  and  C_12
REMARK    7  A    between atoms: C_13  and  C_14
REMARK    8  A    between atoms: C_29  and  C_30
REMARK                            x       y       z     vdW  Elec       q    Type
REMARK                         _______ _______ _______ _____ _____    ______ ____
ROOT
ATOM      1  C   UNL     1       3.601   5.089  18.470  0.00  0.00    +0.000 A 
ATOM      2  C   UNL     1       4.598   4.328  17.859  0.00  0.00    +0.000 A 
ATOM      3  N   UNL     1       4.719   3.175  18.613  0.00  0.00    +0.000 N 
ATOM      4  C   UNL     1       3.837   3.163  19.665  0.00  0.00    +0.000 A 
ATOM      5  C   UNL     1       3.637   2.199  20.662  0.00  0.00    +0.000 A 
ATOM      6  C   UNL     1       2.644   2.449  21.616  0.00  0.00    +0.000 A 
ATOM      7  C   UNL     1       1.885   3.614  21.573  0.00  0.00    +0.000 A 
ATOM      8  C   UNL     1       2.109   4.566  20.571  0.00  0.00    +0.000 A 
ATOM      9  C   UNL     1       3.106   4.340  19.592  0.00  0.00    +0.000 A 
ATOM     10  H   UNL     1       5.349   2.416  18.404  0.00  0.00    +0.000 HD
ENDROOT
BRANCH   2  11
ATOM     11  C   UNL     1       5.396   4.539  16.639  0.00  0.00    +0.000 A 
ATOM     12  C   UNL     1       6.701   5.056  16.707  0.00  0.00    +0.000 A 
ATOM     13  C   UNL     1       7.465   5.237  15.547  0.00  0.00    +0.000 A 
ATOM     14  C   UNL     1       6.927   4.920  14.304  0.00  0.00    +0.000 A 
ATOM     15 CL   UNL     1       7.860   5.145  12.878  0.00  0.00    +0.000 Cl
ATOM     16  C   UNL     1       5.636   4.410  14.211  0.00  0.00    +0.000 A 
ATOM     17  C   UNL     1       4.886   4.205  15.375  0.00  0.00    +0.000 A 
ENDBRANCH   2  11
BRANCH   1  19
ATOM     18  N   UNL     1       2.470   7.130  18.852  0.00  0.00    +0.000 NA
ATOM     19  C   UNL     1       3.165   6.403  18.039  0.00  0.00    +0.000 C 
BRANCH  18  23
ATOM     20  C   UNL     1       0.139  10.452  20.816  0.00  0.00    +0.000 A 
ATOM     21  S   UNL     1       1.290   9.186  20.804  0.00  0.00    +0.000 S 
ATOM     22  C   UNL     1       1.283   9.178  19.084  0.00  0.00    +0.000 A 
ATOM     23  N   UNL     1       2.071   8.339  18.360  0.00  0.00    +0.000 N 
ATOM     24  N   UNL     1       0.484  10.065  18.535  0.00  0.00    +0.000 NA
ATOM     25  C   UNL     1      -0.195  10.784  19.511  0.00  0.00    +0.000 A 
ATOM     26  C   UNL     1      -1.182  11.802  19.056  0.00  0.00    +0.000 C 
ATOM     27  H   UNL     1       1.923   8.414  17.355  0.00  0.00    +0.000 HD
BRANCH  20  28
ATOM     28  C   UNL     1      -0.347  10.933  22.087  0.00  0.00    +0.000 C 
ATOM     29  O   UNL     1      -1.052  10.316  22.878  0.00  0.00    +0.000 OA
BRANCH  28  30
ATOM     30  O   UNL     1       0.014  12.236  22.252  0.00  0.00    +0.000 OA
BRANCH  30  32
ATOM     31  C   UNL     1      -0.477  14.535  22.654  0.00  0.00    +0.000 C 
ATOM     32  C   UNL     1      -1.052  13.132  22.589  0.00  0.00    +0.000 C 
ENDBRANCH  30  32
ENDBRANCH  28  30
ENDBRANCH  20  28
ENDBRANCH  18  23
ENDBRANCH   1  19
TORSDOF 6
ENDMDL
MODEL 4
REMARK VINA RESULT:      -8.1      1.039      1.126
REMARK  Name = 
REMARK  8 active torsions:
REMARK  status: ('A' for Active; 'I' for Inactive)
REMARK    1  A    between atoms: C_1  and  C_2
REMARK    2  A    between atoms: C_2  and  O_3
REMARK    3  A    between atoms: O_3  and  C_4
REMARK    4  A    between atoms: C_4  and  C_6
REMARK    5  A    between atoms: N_9  and  N_10
REMARK    6  A    between atoms: C_11  and  C_12
REMARK    7  A    between atoms: C_13  and  C_14
REMARK    8  A    between atoms: C_29  and  C_30
REMARK                            x       y       z     vdW  Elec       q    Type
REMARK                         _______ _______ _______ _____ _____    ______ ____
ROOT
ATOM      1  C   UNL     1       3.544   5.277  18.238  0.00  0.00    +0.000 A 
ATOM      2  C   UNL     1       4.216   4.357  17.431  0.00  0.00    +0.000 A 
ATOM      3  N   UNL     1       3.798   3.106  17.845  0.00  0.00    +0.000 N 
ATOM      4  C   UNL     1       2.885   3.188  18.866  0.00  0.00    +0.000 A 
ATOM      5  C   UNL     1       2.225   2.171  19.568  0.00  0.00    +0.000 A 
ATOM      6  C   UNL     1       1.323   2.552  20.567  0.00  0.00    +0.000 A 
ATOM      7  C   UNL     1       1.092   3.895  20.851  0.00  0.00    +0.000 A 
ATOM      8  C   UNL     1       1.770   4.892  20.140  0.00  0.00    +0.000 A 
ATOM      9  C   UNL     1       2.687   4.537  19.123  0.00  0.00    +0.000 A 
ATOM     10  H   UNL     1       4.096   2.236  17.430  0.00  0.00    +0.000 HD
ENDROOT
BRANCH   2  11
ATOM     11  C   UNL     1       5.148   4.526  16.303  0.00  0.00    +0.000 A 
ATOM     12  C   UNL     1       4.762   4.205  14.990  0.00  0.00    +0.000 A 
ATOM     13  C   UNL     1       5.644   4.385  13.917  0.00  0.00    +0.000 A 
ATOM     14  C   UNL     1       6.927   4.872  14.146  0.00  0.00    +0.000 A 
ATOM     15 CL   UNL     1       8.012   5.090  12.830  0.00  0.00    +0.000 Cl
ATOM     16  C   UNL     1       7.332   5.194  15.436  0.00  0.00    +0.000 A 
ATOM     17  C   UNL     1       6.439   5.038  16.503  0.00  0.00    +0.000 A 
ENDBRANCH   2  11
BRANCH   1  19
ATOM     18  N   UNL     1       2.677   7.452  17.911  0.00  0.00    +0.000 NA
ATOM     19  C   UNL     1       3.705   6.716  18.184  0.00  0.00    +0.000 C 
BRANCH  18  23
ATOM     20  C   UNL     1       0.463  10.904  19.784  0.00  0.00    +0.000 A 
ATOM     21  S   UNL     1       1.091   9.312  19.769  0.00  0.00    +0.000 S 
ATOM     22  C   UNL     1       2.071   9.698  18.409  0.00  0.00    +0.000 A 
ATOM     23  N   UNL     1       2.918   8.793  17.848  0.00  0.00    +0.000 N 
ATOM     24  N   UNL     1       1.957  10.935  17.984  0.00  0.00    +0.000 NA
ATOM     25  C   UNL     1       1.024  11.630  18.745  0.00  0.00    +0.000 A 
ATOM     26  C   UNL     1       0.737  13.041  18.362  0.00  0.00    +0.000 C 
ATOM     27  H   UNL     1       3.395   9.149  17.021  0.00  0.00    +0.000 HD
BRANCH  20  28
ATOM     28  C   UNL     1      -0.541  11.242  20.765  0.00  0.00    +0.000 C 
ATOM     29  O   UNL     1      -1.696  11.583  20.537  0.00  0.00    +0.000 OA
BRANCH  28  30
ATOM     30  O   UNL     1       0.011  11.223  22.010  0.00  0.00    +0.000 OA
BRANCH  30  32
ATOM     31  C   UNL     1      -0.043   9.329  23.458  0.00  0.00    +0.000 C 
ATOM     32  C   UNL     1      -0.776  10.585  23.023  0.00  0.00    +0.000 C 
ENDBRANCH  30  32
ENDBRANCH  28  30
ENDBRANCH  20  28
ENDBRANCH  18  23
ENDBRANCH   1  19
TORSDOF 6
ENDMDL
MODEL 5
REMARK VINA RESULT:      -8.1      0.739      1.365
REMARK  Name = 
REMARK  8 active torsions:
REMARK  status: ('A' for Active; 'I' for Inactive)
REMARK    1  A    between atoms: C_1  and  C_2
REMARK    2  A    between atoms: C_2  and  O_3
REMARK    3  A    between atoms: O_3  and  C_4
REMARK    4  A    between atoms: C_4  and  C_6
REMARK    5  A    between atoms: N_9  and  N_10
REMARK    6  A    between atoms: C_11  and  C_12
REMARK    7  A    between atoms: C_13  and  C_14
REMARK    8  A    between atoms: C_29  and  C_30
REMARK                            x       y       z     vdW  Elec       q    Type
REMARK                         _______ _______ _______ _____ _____    ______ ____
ROOT
ATOM      1  C   UNL     1       3.378   5.022  18.353  0.00  0.00    +0.000 A 
ATOM      2  C   UNL     1       4.466   4.314  17.843  0.00  0.00    +0.000 A 
ATOM      3  N   UNL     1       4.638   3.222  18.675  0.00  0.00    +0.000 N 
ATOM      4  C   UNL     1       3.704   3.199  19.680  0.00  0.00    +0.000 A 
ATOM      5  C   UNL     1       3.527   2.282  20.725  0.00  0.00    +0.000 A 
ATOM      6  C   UNL     1       2.466   2.503  21.610  0.00  0.00    +0.000 A 
ATOM      7  C   UNL     1       1.618   3.596  21.455  0.00  0.00    +0.000 A 
ATOM      8  C   UNL     1       1.820   4.501  20.407  0.00  0.00    +0.000 A 
ATOM      9  C   UNL     1       2.884   4.303  19.495  0.00  0.00    +0.000 A 
ATOM     10  H   UNL     1       5.339   2.508  18.547  0.00  0.00    +0.000 HD
ENDROOT
BRANCH   2  11
ATOM     11  C   UNL     1       5.311   4.518  16.654  0.00  0.00    +0.000 A 
ATOM     12  C   UNL     1       4.908   4.054  15.390  0.00  0.00    +0.000 A 
ATOM     13  C   UNL     1       5.704   4.267  14.258  0.00  0.00    +0.000 A 
ATOM     14  C   UNL     1       6.920   4.931  14.379  0.00  0.00    +0.000 A 
ATOM     15 CL   UNL     1       7.901   5.190  12.991  0.00  0.00    +0.000 Cl
ATOM     16  C   UNL     1       7.342   5.396  15.619  0.00  0.00    +0.000 A 
ATOM     17  C   UNL     1       6.531   5.205  16.744  0.00  0.00    +0.000 A 
ENDBRANCH   2  11
BRANCH   1  19
ATOM     18  N   UNL     1       2.579   7.231  18.632  0.00  0.00    +0.000 NA
ATOM     19  C   UNL     1       2.861   6.267  17.818  0.00  0.00    +0.000 C 
BRANCH  18  23
ATOM     20  C   UNL     1       0.136  10.575  20.414  0.00  0.00    +0.000 A 
ATOM     21  S   UNL     1       1.371   9.391  20.450  0.00  0.00    +0.000 S 
ATOM     22  C   UNL     1       1.265   9.210  18.742  0.00  0.00    +0.000 A 
ATOM     23  N   UNL     1       2.068   8.355  18.054  0.00  0.00    +0.000 N 
ATOM     24  N   UNL     1       0.375   9.984  18.163  0.00  0.00    +0.000 NA
ATOM     25  C   UNL     1      -0.295  10.751  19.108  0.00  0.00    +0.000 A 
ATOM     26  C   UNL     1      -1.378  11.652  18.621  0.00  0.00    +0.000 C 
ATOM     27  H   UNL     1       1.857   8.319  17.058  0.00  0.00    +0.000 HD
BRANCH  20  28
ATOM     28  C   UNL     1      -0.309  11.148  21.662  0.00  0.00    +0.000 C 
ATOM     29  O   UNL     1      -1.252  10.764  22.345  0.00  0.00    +0.000 OA
BRANCH  28  30
ATOM     30  O   UNL     1       0.421  12.265  21.938  0.00  0.00    +0.000 OA
BRANCH  30  32
ATOM     31  C   UNL     1       0.461  14.246  20.610  0.00  0.00    +0.000 C 
ATOM     32  C   UNL     1      -0.256  13.510  21.727  0.00  0.00    +0.000 C 
ENDBRANCH  30  32
ENDBRANCH  28  30
ENDBRANCH  20  28
ENDBRANCH  18  23
ENDBRANCH   1  19
TORSDOF 6
ENDMDL
MODEL 6
REMARK VINA RESULT:      -7.9      1.185      1.487
REMARK  Name = 
REMARK  8 active torsions:
REMARK  status: ('A' for Active; 'I' for Inactive)
REMARK    1  A    between atoms: C_1  and  C_2
REMARK    2  A    between atoms: C_2  and  O_3
REMARK    3  A    between atoms: O_3  and  C_4
REMARK    4  A    between atoms: C_4  and  C_6
REMARK    5  A    between atoms: N_9  and  N_10
REMARK    6  A    between atoms: C_11  and  C_12
REMARK    7  A    between atoms: C_13  and  C_14
REMARK    8  A    between atoms: C_29  and  C_30
REMARK                            x       y       z     vdW  Elec       q    Type
REMARK                         _______ _______ _______ _____ _____    ______ ____
ROOT
ATOM      1  C   UNL     1       3.450   5.218  18.116  0.00  0.00    +0.000 A 
ATOM      2  C   UNL     1       4.181   4.307  17.353  0.00  0.00    +0.000 A 
ATOM      3  N   UNL     1       3.835   3.051  17.817  0.00  0.00    +0.000 N 
ATOM      4  C   UNL     1       2.909   3.121  18.828  0.00  0.00    +0.000 A 
ATOM      5  C   UNL     1       2.304   2.097  19.569  0.00  0.00    +0.000 A 
ATOM      6  C   UNL     1       1.372   2.467  20.545  0.00  0.00    +0.000 A 
ATOM      7  C   UNL     1       1.060   3.804  20.770  0.00  0.00    +0.000 A 
ATOM      8  C   UNL     1       1.684   4.809  20.022  0.00  0.00    +0.000 A 
ATOM      9  C   UNL     1       2.630   4.466  19.027  0.00  0.00    +0.000 A 
ATOM     10  H   UNL     1       4.186   2.183  17.442  0.00  0.00    +0.000 HD
ENDROOT
BRANCH   2  11
ATOM     11  C   UNL     1       5.111   4.483  16.225  0.00  0.00    +0.000 A 
ATOM     12  C   UNL     1       4.765   4.065  14.928  0.00  0.00    +0.000 A 
ATOM     13  C   UNL     1       5.643   4.253  13.853  0.00  0.00    +0.000 A 
ATOM     14  C   UNL     1       6.885   4.843  14.065  0.00  0.00    +0.000 A 
ATOM     15 CL   UNL     1       7.966   5.070  12.748  0.00  0.00    +0.000 Cl
ATOM     16  C   UNL     1       7.251   5.261  15.340  0.00  0.00    +0.000 A 
ATOM     17  C   UNL     1       6.360   5.097  16.406  0.00  0.00    +0.000 A 
ENDBRANCH   2  11
BRANCH   1  19
ATOM     18  N   UNL     1       2.435   7.335  17.837  0.00  0.00    +0.000 NA
ATOM     19  C   UNL     1       3.526   6.661  18.002  0.00  0.00    +0.000 C 
BRANCH  18  23
ATOM     20  C   UNL     1       0.551  10.729  20.131  0.00  0.00    +0.000 A 
ATOM     21  S   UNL     1       1.230   9.165  19.989  0.00  0.00    +0.000 S 
ATOM     22  C   UNL     1       1.857   9.563  18.438  0.00  0.00    +0.000 A 
ATOM     23  N   UNL     1       2.594   8.684  17.707  0.00  0.00    +0.000 N 
ATOM     24  N   UNL     1       1.594  10.786  18.037  0.00  0.00    +0.000 NA
ATOM     25  C   UNL     1       0.827  11.457  18.983  0.00  0.00    +0.000 A 
ATOM     26  C   UNL     1       0.398  12.846  18.662  0.00  0.00    +0.000 C 
ATOM     27  H   UNL     1       2.854   9.042  16.789  0.00  0.00    +0.000 HD
BRANCH  20  28
ATOM     28  C   UNL     1      -0.218  11.045  21.311  0.00  0.00    +0.000 C 
ATOM     29  O   UNL     1       0.189  11.044  22.467  0.00  0.00    +0.000 OA
BRANCH  28  30
ATOM     30  O   UNL     1      -1.520  11.256  20.966  0.00  0.00    +0.000 OA
BRANCH  30  32
ATOM     31  C   UNL     1      -3.184  12.873  20.418  0.00  0.00    +0.000 C 
ATOM     32  C   UNL     1      -2.071  12.510  21.384  0.00  0.00    +0.000 C 
ENDBRANCH  30  32
ENDBRANCH  28  30
ENDBRANCH  20  28
ENDBRANCH  18  23
ENDBRANCH   1  19
TORSDOF 6
ENDMDL
MODEL 7
REMARK VINA RESULT:      -7.8      4.940      8.557
REMARK  Name = 
REMARK  8 active torsions:
REMARK  status: ('A' for Active; 'I' for Inactive)
REMARK    1  A    between atoms: C_1  and  C_2
REMARK    2  A    between atoms: C_2  and  O_3
REMARK    3  A    between atoms: O_3  and  C_4
REMARK    4  A    between atoms: C_4  and  C_6
REMARK    5  A    between atoms: N_9  and  N_10
REMARK    6  A    between atoms: C_11  and  C_12
REMARK    7  A    between atoms: C_13  and  C_14
REMARK    8  A    between atoms: C_29  and  C_30
REMARK                            x       y       z     vdW  Elec       q    Type
REMARK                         _______ _______ _______ _____ _____    ______ ____
ROOT
ATOM      1  C   UNL     1       3.436   5.811  19.155  0.00  0.00    +0.000 A 
ATOM      2  C   UNL     1       2.372   6.513  19.724  0.00  0.00    +0.000 A 
ATOM      3  N   UNL     1       1.791   5.655  20.639  0.00  0.00    +0.000 N 
ATOM      4  C   UNL     1       2.442   4.447  20.686  0.00  0.00    +0.000 A 
ATOM      5  C   UNL     1       2.179   3.311  21.463  0.00  0.00    +0.000 A 
ATOM      6  C   UNL     1       3.029   2.210  21.311  0.00  0.00    +0.000 A 
ATOM      7  C   UNL     1       4.097   2.246  20.420  0.00  0.00    +0.000 A 
ATOM      8  C   UNL     1       4.335   3.390  19.650  0.00  0.00    +0.000 A 
ATOM      9  C   UNL     1       3.493   4.520  19.783  0.00  0.00    +0.000 A 
ATOM     10  H   UNL     1       1.007   5.889  21.228  0.00  0.00    +0.000 HD
ENDROOT
BRANCH   2  11
ATOM     11  C   UNL     1       1.887   7.891  19.542  0.00  0.00    +0.000 A 
ATOM     12  C   UNL     1       1.315   8.605  20.610  0.00  0.00    +0.000 A 
ATOM     13  C   UNL     1       0.872   9.923  20.439  0.00  0.00    +0.000 A 
ATOM     14  C   UNL     1       0.979  10.536  19.195  0.00  0.00    +0.000 A 
ATOM     15 CL   UNL     1       0.432  12.152  18.982  0.00  0.00    +0.000 Cl
ATOM     16  C   UNL     1       1.538   9.849  18.123  0.00  0.00    +0.000 A 
ATOM     17  C   UNL     1       2.004   8.542  18.304  0.00  0.00    +0.000 A 
ENDBRANCH   2  11
BRANCH   1  19
ATOM     18  N   UNL     1       5.379   5.647  17.817  0.00  0.00    +0.000 NA
ATOM     19  C   UNL     1       4.309   6.311  18.111  0.00  0.00    +0.000 C 
BRANCH  18  23
ATOM     20  C   UNL     1       6.183   4.287  13.594  0.00  0.00    +0.000 A 
ATOM     21  S   UNL     1       5.188   4.520  14.966  0.00  0.00    +0.000 S 
ATOM     22  C   UNL     1       6.356   5.583  15.649  0.00  0.00    +0.000 A 
ATOM     23  N   UNL     1       6.162   6.199  16.846  0.00  0.00    +0.000 N 
ATOM     24  N   UNL     1       7.425   5.771  14.910  0.00  0.00    +0.000 NA
ATOM     25  C   UNL     1       7.352   5.018  13.743  0.00  0.00    +0.000 A 
ATOM     26  C   UNL     1       8.513   5.078  12.811  0.00  0.00    +0.000 C 
ATOM     27  H   UNL     1       6.960   6.758  17.145  0.00  0.00    +0.000 HD
BRANCH  20  28
ATOM     28  C   UNL     1       5.739   3.379  12.564  0.00  0.00    +0.000 C 
ATOM     29  O   UNL     1       6.422   2.537  11.991  0.00  0.00    +0.000 OA
BRANCH  28  30
ATOM     30  O   UNL     1       4.445   3.655  12.237  0.00  0.00    +0.000 OA
BRANCH  30  32
ATOM     31  C   UNL     1       3.293   3.973  10.174  0.00  0.00    +0.000 C 
ATOM     32  C   UNL     1       3.936   2.954  11.097  0.00  0.00    +0.000 C 
ENDBRANCH  30  32
ENDBRANCH  28  30
ENDBRANCH  20  28
ENDBRANCH  18  23
ENDBRANCH   1  19
TORSDOF 6
ENDMDL
MODEL 8
REMARK VINA RESULT:      -7.4      1.280      2.084
REMARK  Name = 
REMARK  8 active torsions:
REMARK  status: ('A' for Active; 'I' for Inactive)
REMARK    1  A    between atoms: C_1  and  C_2
REMARK    2  A    between atoms: C_2  and  O_3
REMARK    3  A    between atoms: O_3  and  C_4
REMARK    4  A    between atoms: C_4  and  C_6
REMARK    5  A    between atoms: N_9  and  N_10
REMARK    6  A    between atoms: C_11  and  C_12
REMARK    7  A    between atoms: C_13  and  C_14
REMARK    8  A    between atoms: C_29  and  C_30
REMARK                            x       y       z     vdW  Elec       q    Type
REMARK                         _______ _______ _______ _____ _____    ______ ____
ROOT
ATOM      1  C   UNL     1       3.505   5.187  18.254  0.00  0.00    +0.000 A 
ATOM      2  C   UNL     1       4.177   4.301  17.410  0.00  0.00    +0.000 A 
ATOM      3  N   UNL     1       3.731   3.037  17.746  0.00  0.00    +0.000 N 
ATOM      4  C   UNL     1       2.800   3.078  18.754  0.00  0.00    +0.000 A 
ATOM      5  C   UNL     1       2.110   2.036  19.387  0.00  0.00    +0.000 A 
ATOM      6  C   UNL     1       1.195   2.378  20.388  0.00  0.00    +0.000 A 
ATOM      7  C   UNL     1       0.981   3.707  20.742  0.00  0.00    +0.000 A 
ATOM      8  C   UNL     1       1.689   4.730  20.099  0.00  0.00    +0.000 A 
ATOM      9  C   UNL     1       2.619   4.415  19.081  0.00  0.00    +0.000 A 
ATOM     10  H   UNL     1       4.022   2.185  17.290  0.00  0.00    +0.000 HD
ENDROOT
BRANCH   2  11
ATOM     11  C   UNL     1       5.133   4.516  16.310  0.00  0.00    +0.000 A 
ATOM     12  C   UNL     1       6.438   4.972  16.562  0.00  0.00    +0.000 A 
ATOM     13  C   UNL     1       7.351   5.155  15.516  0.00  0.00    +0.000 A 
ATOM     14  C   UNL     1       6.964   4.903  14.203  0.00  0.00    +0.000 A 
ATOM     15 CL   UNL     1       8.081   5.132  12.917  0.00  0.00    +0.000 Cl
ATOM     16  C   UNL     1       5.677   4.455  13.929  0.00  0.00    +0.000 A 
ATOM     17  C   UNL     1       4.776   4.246  14.979  0.00  0.00    +0.000 A 
ENDBRANCH   2  11
BRANCH   1  19
ATOM     18  N   UNL     1       2.783   7.384  17.760  0.00  0.00    +0.000 NA
ATOM     19  C   UNL     1       3.691   6.624  18.282  0.00  0.00    +0.000 C 
BRANCH  18  23
ATOM     20  C   UNL     1       0.455  10.762  19.630  0.00  0.00    +0.000 A 
ATOM     21  S   UNL     1       1.060   9.162  19.577  0.00  0.00    +0.000 S 
ATOM     22  C   UNL     1       2.165   9.607  18.335  0.00  0.00    +0.000 A 
ATOM     23  N   UNL     1       3.046   8.722  17.799  0.00  0.00    +0.000 N 
ATOM     24  N   UNL     1       2.106  10.869  17.976  0.00  0.00    +0.000 NA
ATOM     25  C   UNL     1       1.117  11.536  18.690  0.00  0.00    +0.000 A 
ATOM     26  C   UNL     1       0.885  12.972  18.368  0.00  0.00    +0.000 C 
ATOM     27  H   UNL     1       3.601   9.115  17.040  0.00  0.00    +0.000 HD
BRANCH  20  28
ATOM     28  C   UNL     1      -0.628  11.061  20.535  0.00  0.00    +0.000 C 
ATOM     29  O   UNL     1      -0.651  10.844  21.742  0.00  0.00    +0.000 OA
BRANCH  28  30
ATOM     30  O   UNL     1      -1.692  11.544  19.833  0.00  0.00    +0.000 OA
BRANCH  30  32
ATOM     31  C   UNL     1      -2.778  11.595  17.710  0.00  0.00    +0.000 C 
ATOM     32  C   UNL     1      -2.161  10.703  18.773  0.00  0.00    +0.000 C 
ENDBRANCH  30  32
ENDBRANCH  28  30
ENDBRANCH  20  28
ENDBRANCH  18  23
ENDBRANCH   1  19
TORSDOF 6
ENDMDL
MODEL 9
REMARK VINA RESULT:      -7.2      4.966      8.733
REMARK  Name = 
REMARK  8 active torsions:
REMARK  status: ('A' for Active; 'I' for Inactive)
REMARK    1  A    between atoms: C_1  and  C_2
REMARK    2  A    between atoms: C_2  and  O_3
REMARK    3  A    between atoms: O_3  and  C_4
REMARK    4  A    between atoms: C_4  and  C_6
REMARK    5  A    between atoms: N_9  and  N_10
REMARK    6  A    between atoms: C_11  and  C_12
REMARK    7  A    between atoms: C_13  and  C_14
REMARK    8  A    between atoms: C_29  and  C_30
REMARK                            x       y       z     vdW  Elec       q    Type
REMARK                         _______ _______ _______ _____ _____    ______ ____
ROOT
ATOM      1  C   UNL     1       3.480   5.713  19.116  0.00  0.00    +0.000 A 
ATOM      2  C   UNL     1       2.429   6.435  19.682  0.00  0.00    +0.000 A 
ATOM      3  N   UNL     1       1.850   5.600  20.619  0.00  0.00    +0.000 N 
ATOM      4  C   UNL     1       2.490   4.387  20.683  0.00  0.00    +0.000 A 
ATOM      5  C   UNL     1       2.224   3.269  21.484  0.00  0.00    +0.000 A 
ATOM      6  C   UNL     1       3.062   2.157  21.345  0.00  0.00    +0.000 A 
ATOM      7  C   UNL     1       4.121   2.165  20.442  0.00  0.00    +0.000 A 
ATOM      8  C   UNL     1       4.362   3.293  19.648  0.00  0.00    +0.000 A 
ATOM      9  C   UNL     1       3.532   4.433  19.768  0.00  0.00    +0.000 A 
ATOM     10  H   UNL     1       1.073   5.853  21.212  0.00  0.00    +0.000 HD
ENDROOT
BRANCH   2  11
ATOM     11  C   UNL     1       1.955   7.814  19.479  0.00  0.00    +0.000 A 
ATOM     12  C   UNL     1       2.057   8.439  18.224  0.00  0.00    +0.000 A 
ATOM     13  C   UNL     1       1.587   9.744  18.030  0.00  0.00    +0.000 A 
ATOM     14  C   UNL     1       1.025  10.446  19.091  0.00  0.00    +0.000 A 
ATOM     15 CL   UNL     1       0.451  12.049  18.855  0.00  0.00    +0.000 Cl
ATOM     16  C   UNL     1       0.916   9.850  20.343  0.00  0.00    +0.000 A 
ATOM     17  C   UNL     1       1.362   8.537  20.527  0.00  0.00    +0.000 A 
ENDBRANCH   2  11
BRANCH   1  19
ATOM     18  N   UNL     1       5.406   5.503  17.760  0.00  0.00    +0.000 NA
ATOM     19  C   UNL     1       4.347   6.184  18.054  0.00  0.00    +0.000 C 
BRANCH  18  23
ATOM     20  C   UNL     1       5.953   4.206  13.477  0.00  0.00    +0.000 A 
ATOM     21  S   UNL     1       5.030   4.467  14.894  0.00  0.00    +0.000 S 
ATOM     22  C   UNL     1       6.291   5.433  15.553  0.00  0.00    +0.000 A 
ATOM     23  N   UNL     1       6.185   6.029  16.771  0.00  0.00    +0.000 N 
ATOM     24  N   UNL     1       7.340   5.572  14.775  0.00  0.00    +0.000 NA
ATOM     25  C   UNL     1       7.172   4.856  13.595  0.00  0.00    +0.000 A 
ATOM     26  C   UNL     1       8.296   4.867  12.617  0.00  0.00    +0.000 C 
ATOM     27  H   UNL     1       7.029   6.528  17.050  0.00  0.00    +0.000 HD
BRANCH  20  28
ATOM     28  C   UNL     1       5.410   3.355  12.445  0.00  0.00    +0.000 C 
ATOM     29  O   UNL     1       4.307   3.460  11.920  0.00  0.00    +0.000 OA
BRANCH  28  30
ATOM     30  O   UNL     1       6.274   2.332  12.193  0.00  0.00    +0.000 OA
BRANCH  30  32
ATOM     31  C   UNL     1       6.240   0.071  11.437  0.00  0.00    +0.000 C 
ATOM     32  C   UNL     1       5.946   1.513  11.065  0.00  0.00    +0.000 C 
ENDBRANCH  30  32
ENDBRANCH  28  30
ENDBRANCH  20  28
ENDBRANCH  18  23
ENDBRANCH   1  19
TORSDOF 6
ENDMDL
