MODEL 1
REMARK VINA RESULT:      -8.0      0.000      0.000
REMARK  Name = 
REMARK  7 active torsions:
REMARK  status: ('A' for Active; 'I' for Inactive)
REMARK    1  A    between atoms: C_1  and  C_2
REMARK    2  A    between atoms: C_8  and  N_9
REMARK    3  A    between atoms: N_9  and  S_10
REMARK    4  A    between atoms: S_10  and  C_13
REMARK    5  A    between atoms: C_18  and  N_19
REMARK    6  A    between atoms: N_19  and  C_20
REMARK    7  A    between atoms: N_19  and  C_21
REMARK                            x       y       z     vdW  Elec       q    Type
REMARK                         _______ _______ _______ _____ _____    ______ ____
ROOT
ATOM      1  S   UNL     1       0.794   9.145  21.082  0.00  0.00    +0.000 S 
ATOM      2  O   UNL     1       1.644   9.276  22.249  0.00  0.00    +0.000 OA
ATOM      3  O   UNL     1      -0.509   8.519  21.192  0.00  0.00    +0.000 OA
ENDROOT
BRANCH   1   4
ATOM      4  C   UNL     1       1.741   8.278  19.828  0.00  0.00    +0.000 A 
ATOM      5  C   UNL     1       2.106   9.028  18.705  0.00  0.00    +0.000 A 
ATOM      6  C   UNL     1       2.708   8.395  17.635  0.00  0.00    +0.000 A 
ATOM      7  C   UNL     1       2.993   7.031  17.711  0.00  0.00    +0.000 A 
ATOM      8  C   UNL     1       2.760   6.241  18.865  0.00  0.00    +0.000 A 
ATOM      9  C   UNL     1       3.156   4.852  18.972  0.00  0.00    +0.000 A 
ATOM     10  C   UNL     1       2.776   4.163  20.141  0.00  0.00    +0.000 A 
ATOM     11  C   UNL     1       2.036   4.761  21.150  0.00  0.00    +0.000 A 
ATOM     12  C   UNL     1       1.683   6.095  21.043  0.00  0.00    +0.000 A 
ATOM     13  C   UNL     1       2.053   6.885  19.934  0.00  0.00    +0.000 A 
BRANCH   9  14
ATOM     14  N   UNL     1       3.883   4.158  17.997  0.00  0.00    +0.000 N 
ATOM     15  C   UNL     1       3.296   3.060  17.227  0.00  0.00    +0.000 C 
ATOM     16  C   UNL     1       5.333   4.276  17.874  0.00  0.00    +0.000 C 
ENDBRANCH   9  14
ENDBRANCH   1   4
BRANCH   1  17
ATOM     17  N   UNL     1       0.583  10.682  20.465  0.00  0.00    +0.000 N 
ATOM     18  H   UNL     1       1.382  11.308  20.446  0.00  0.00    +0.000 HD
BRANCH  17  26
ATOM     19  C   UNL     1      -2.675  10.092  15.850  0.00  0.00    +0.000 C 
ATOM     20  C   UNL     1      -3.059  10.914  17.021  0.00  0.00    +0.000 A 
ATOM     21  N   UNL     1      -4.228  11.566  17.054  0.00  0.00    +0.000 NA
ATOM     22  N   UNL     1      -4.222  12.177  18.252  0.00  0.00    +0.000 N 
ATOM     23  C   UNL     1      -3.094  11.949  18.995  0.00  0.00    +0.000 A 
ATOM     24  C   UNL     1      -2.709  12.391  20.261  0.00  0.00    +0.000 A 
ATOM     25  C   UNL     1      -1.469  11.951  20.731  0.00  0.00    +0.000 A 
ATOM     26  C   UNL     1      -0.670  11.097  19.963  0.00  0.00    +0.000 A 
ATOM     27  C   UNL     1      -1.060  10.691  18.686  0.00  0.00    +0.000 A 
ATOM     28  C   UNL     1      -2.308  11.117  18.206  0.00  0.00    +0.000 A 
ATOM     29  H   UNL     1      -5.028  12.734  18.508  0.00  0.00    +0.000 HD
ENDBRANCH  17  26
ENDBRANCH   1  17
TORSDOF 4
ENDMDL
MODEL 2
REMARK VINA RESULT:      -7.6      3.967      8.843
REMARK  Name = 
REMARK  7 active torsions:
REMARK  status: ('A' for Active; 'I' for Inactive)
REMARK    1  A    between atoms: C_1  and  C_2
REMARK    2  A    between atoms: C_8  and  N_9
REMARK    3  A    between atoms: N_9  and  S_10
REMARK    4  A    between atoms: S_10  and  C_13
REMARK    5  A    between atoms: C_18  and  N_19
REMARK    6  A    between atoms: N_19  and  C_20
REMARK    7  A    between atoms: N_19  and  C_21
REMARK                            x       y       z     vdW  Elec       q    Type
REMARK                         _______ _______ _______ _____ _____    ______ ____
ROOT
ATOM      1  S   UNL     1       3.601   3.112  17.733  0.00  0.00    +0.000 S 
ATOM      2  O   UNL     1       3.130   3.577  16.444  0.00  0.00    +0.000 OA
ATOM      3  O   UNL     1       3.457   1.718  18.107  0.00  0.00    +0.000 OA
ENDROOT
BRANCH   1   4
ATOM      4  C   UNL     1       2.811   4.124  18.987  0.00  0.00    +0.000 A 
ATOM      5  C   UNL     1       2.298   3.442  20.095  0.00  0.00    +0.000 A 
ATOM      6  C   UNL     1       1.551   4.133  21.029  0.00  0.00    +0.000 A 
ATOM      7  C   UNL     1       1.364   5.509  20.883  0.00  0.00    +0.000 A 
ATOM      8  C   UNL     1       1.959   6.279  19.851  0.00  0.00    +0.000 A 
ATOM      9  C   UNL     1       1.846   7.720  19.769  0.00  0.00    +0.000 A 
ATOM     10  C   UNL     1       2.406   8.345  18.637  0.00  0.00    +0.000 A 
ATOM     11  C   UNL     1       3.024   7.631  17.622  0.00  0.00    +0.000 A 
ATOM     12  C   UNL     1       3.142   6.255  17.724  0.00  0.00    +0.000 A 
ATOM     13  C   UNL     1       2.654   5.539  18.839  0.00  0.00    +0.000 A 
BRANCH   9  14
ATOM     14  N   UNL     1       1.222   8.522  20.732  0.00  0.00    +0.000 N 
ATOM     15  C   UNL     1       0.096   9.398  20.401  0.00  0.00    +0.000 C 
ATOM     16  C   UNL     1       1.810   8.765  22.046  0.00  0.00    +0.000 C 
ENDBRANCH   9  14
ENDBRANCH   1   4
BRANCH   1  17
ATOM     17  N   UNL     1       5.220   3.510  17.827  0.00  0.00    +0.000 N 
ATOM     18  H   UNL     1       5.715   3.317  18.692  0.00  0.00    +0.000 HD
BRANCH  17  26
ATOM     19  C   UNL     1       5.778   2.816  12.217  0.00  0.00    +0.000 C 
ATOM     20  C   UNL     1       6.485   3.869  12.984  0.00  0.00    +0.000 A 
ATOM     21  N   UNL     1       7.302   4.736  12.375  0.00  0.00    +0.000 NA
ATOM     22  N   UNL     1       7.737   5.524  13.374  0.00  0.00    +0.000 N 
ATOM     23  C   UNL     1       7.237   5.199  14.607  0.00  0.00    +0.000 A 
ATOM     24  C   UNL     1       7.438   5.758  15.869  0.00  0.00    +0.000 A 
ATOM     25  C   UNL     1       6.748   5.171  16.934  0.00  0.00    +0.000 A 
ATOM     26  C   UNL     1       5.891   4.085  16.726  0.00  0.00    +0.000 A 
ATOM     27  C   UNL     1       5.727   3.523  15.459  0.00  0.00    +0.000 A 
ATOM     28  C   UNL     1       6.405   4.108  14.379  0.00  0.00    +0.000 A 
ATOM     29  H   UNL     1       8.375   6.277  13.145  0.00  0.00    +0.000 HD
ENDBRANCH  17  26
ENDBRANCH   1  17
TORSDOF 4
ENDMDL
MODEL 3
REMARK VINA RESULT:      -7.4      2.735      8.136
REMARK  Name = 
REMARK  7 active torsions:
REMARK  status: ('A' for Active; 'I' for Inactive)
REMARK    1  A    between atoms: C_1  and  C_2
REMARK    2  A    between atoms: C_8  and  N_9
REMARK    3  A    between atoms: N_9  and  S_10
REMARK    4  A    between atoms: S_10  and  C_13
REMARK    5  A    between atoms: C_18  and  N_19
REMARK    6  A    between atoms: N_19  and  C_20
REMARK    7  A    between atoms: N_19  and  C_21
REMARK                            x       y       z     vdW  Elec       q    Type
REMARK                         _______ _______ _______ _____ _____    ______ ____
ROOT
ATOM      1  S   UNL     1       2.014   5.139  20.033  0.00  0.00    +0.000 S 
ATOM      2  O   UNL     1       0.657   4.667  20.222  0.00  0.00    +0.000 OA
ATOM      3  O   UNL     1       2.945   5.157  21.145  0.00  0.00    +0.000 OA
ENDROOT
BRANCH   1   4
ATOM      4  C   UNL     1       1.913   6.793  19.346  0.00  0.00    +0.000 A 
ATOM      5  C   UNL     1       2.416   6.953  18.051  0.00  0.00    +0.000 A 
ATOM      6  C   UNL     1       2.506   8.221  17.511  0.00  0.00    +0.000 A 
ATOM      7  C   UNL     1       2.044   9.317  18.242  0.00  0.00    +0.000 A 
ATOM      8  C   UNL     1       1.412   9.210  19.507  0.00  0.00    +0.000 A 
ATOM      9  C   UNL     1       0.841  10.340  20.210  0.00  0.00    +0.000 A 
ATOM     10  C   UNL     1       0.331  10.103  21.501  0.00  0.00    +0.000 A 
ATOM     11  C   UNL     1       0.381   8.855  22.104  0.00  0.00    +0.000 A 
ATOM     12  C   UNL     1       0.911   7.780  21.412  0.00  0.00    +0.000 A 
ATOM     13  C   UNL     1       1.408   7.902  20.096  0.00  0.00    +0.000 A 
BRANCH   9  14
ATOM     14  N   UNL     1       0.767  11.639  19.692  0.00  0.00    +0.000 N 
ATOM     15  C   UNL     1       1.709  12.687  20.089  0.00  0.00    +0.000 C 
ATOM     16  C   UNL     1      -0.400  12.121  18.958  0.00  0.00    +0.000 C 
ENDBRANCH   9  14
ENDBRANCH   1   4
BRANCH   1  17
ATOM     17  N   UNL     1       2.680   4.214  18.813  0.00  0.00    +0.000 N 
ATOM     18  H   UNL     1       2.100   3.509  18.371  0.00  0.00    +0.000 HD
BRANCH  17  26
ATOM     19  C   UNL     1       5.834   4.025  14.092  0.00  0.00    +0.000 C 
ATOM     20  C   UNL     1       6.382   4.362  15.428  0.00  0.00    +0.000 A 
ATOM     21  N   UNL     1       7.678   4.655  15.589  0.00  0.00    +0.000 NA
ATOM     22  N   UNL     1       7.789   4.909  16.905  0.00  0.00    +0.000 N 
ATOM     23  C   UNL     1       6.617   4.788  17.603  0.00  0.00    +0.000 A 
ATOM     24  C   UNL     1       6.317   4.963  18.954  0.00  0.00    +0.000 A 
ATOM     25  C   UNL     1       4.987   4.764  19.334  0.00  0.00    +0.000 A 
ATOM     26  C   UNL     1       4.012   4.420  18.391  0.00  0.00    +0.000 A 
ATOM     27  C   UNL     1       4.339   4.220  17.049  0.00  0.00    +0.000 A 
ATOM     28  C   UNL     1       5.669   4.427  16.651  0.00  0.00    +0.000 A 
ATOM     29  H   UNL     1       8.699   5.169  17.266  0.00  0.00    +0.000 HD
ENDBRANCH  17  26
ENDBRANCH   1  17
TORSDOF 4
ENDMDL
MODEL 4
REMARK VINA RESULT:      -7.3      2.170      8.262
REMARK  Name = 
REMARK  7 active torsions:
REMARK  status: ('A' for Active; 'I' for Inactive)
REMARK    1  A    between atoms: C_1  and  C_2
REMARK    2  A    between atoms: C_8  and  N_9
REMARK    3  A    between atoms: N_9  and  S_10
REMARK    4  A    between atoms: S_10  and  C_13
REMARK    5  A    between atoms: C_18  and  N_19
REMARK    6  A    between atoms: N_19  and  C_20
REMARK    7  A    between atoms: N_19  and  C_21
REMARK                            x       y       z     vdW  Elec       q    Type
REMARK                         _______ _______ _______ _____ _____    ______ ____
ROOT
ATOM      1  S   UNL     1       0.257  11.412  18.849  0.00  0.00    +0.000 S 
ATOM      2  O   UNL     1       0.427  11.038  20.239  0.00  0.00    +0.000 OA
ATOM      3  O   UNL     1       0.576  12.756  18.408  0.00  0.00    +0.000 OA
ENDROOT
BRANCH   1   4
ATOM      4  C   UNL     1      -1.444  11.053  18.404  0.00  0.00    +0.000 A 
ATOM      5  C   UNL     1      -1.629  10.101  17.396  0.00  0.00    +0.000 A 
ATOM      6  C   UNL     1      -2.898   9.878  16.900  0.00  0.00    +0.000 A 
ATOM      7  C   UNL     1      -3.984  10.565  17.447  0.00  0.00    +0.000 A 
ATOM      8  C   UNL     1      -3.881  11.450  18.550  0.00  0.00    +0.000 A 
ATOM      9  C   UNL     1      -5.026  12.076  19.178  0.00  0.00    +0.000 A 
ATOM     10  C   UNL     1      -4.769  13.007  20.203  0.00  0.00    +0.000 A 
ATOM     11  C   UNL     1      -3.482  13.344  20.596  0.00  0.00    +0.000 A 
ATOM     12  C   UNL     1      -2.398  12.723  20.001  0.00  0.00    +0.000 A 
ATOM     13  C   UNL     1      -2.550  11.743  18.996  0.00  0.00    +0.000 A 
BRANCH   9  14
ATOM     14  N   UNL     1      -6.359  11.816  18.833  0.00  0.00    +0.000 N 
ATOM     15  C   UNL     1      -7.016  12.494  17.714  0.00  0.00    +0.000 C 
ATOM     16  C   UNL     1      -7.264  11.086  19.714  0.00  0.00    +0.000 C 
ENDBRANCH   9  14
ENDBRANCH   1   4
BRANCH   1  17
ATOM     17  N   UNL     1       1.165  10.339  17.947  0.00  0.00    +0.000 N 
ATOM     18  H   UNL     1       1.359  10.568  16.977  0.00  0.00    +0.000 HD
BRANCH  17  26
ATOM     19  C   UNL     1       4.705   6.068  16.729  0.00  0.00    +0.000 C 
ATOM     20  C   UNL     1       3.944   6.162  17.997  0.00  0.00    +0.000 A 
ATOM     21  N   UNL     1       4.065   5.225  18.946  0.00  0.00    +0.000 NA
ATOM     22  N   UNL     1       3.248   5.651  19.925  0.00  0.00    +0.000 N 
ATOM     23  C   UNL     1       2.599   6.825  19.646  0.00  0.00    +0.000 A 
ATOM     24  C   UNL     1       1.688   7.583  20.383  0.00  0.00    +0.000 A 
ATOM     25  C   UNL     1       1.221   8.758  19.789  0.00  0.00    +0.000 A 
ATOM     26  C   UNL     1       1.667   9.151  18.522  0.00  0.00    +0.000 A 
ATOM     27  C   UNL     1       2.556   8.364  17.789  0.00  0.00    +0.000 A 
ATOM     28  C   UNL     1       3.041   7.186  18.377  0.00  0.00    +0.000 A 
ATOM     29  H   UNL     1       3.181   5.095  20.768  0.00  0.00    +0.000 HD
ENDBRANCH  17  26
ENDBRANCH   1  17
TORSDOF 4
ENDMDL
MODEL 5
REMARK VINA RESULT:      -7.3      2.416      3.524
REMARK  Name = 
REMARK  7 active torsions:
REMARK  status: ('A' for Active; 'I' for Inactive)
REMARK    1  A    between atoms: C_1  and  C_2
REMARK    2  A    between atoms: C_8  and  N_9
REMARK    3  A    between atoms: N_9  and  S_10
REMARK    4  A    between atoms: S_10  and  C_13
REMARK    5  A    between atoms: C_18  and  N_19
REMARK    6  A    between atoms: N_19  and  C_20
REMARK    7  A    between atoms: N_19  and  C_21
REMARK                            x       y       z     vdW  Elec       q    Type
REMARK                         _______ _______ _______ _____ _____    ______ ____
ROOT
ATOM      1  S   UNL     1       0.311   9.008  21.337  0.00  0.00    +0.000 S 
ATOM      2  O   UNL     1       1.165   9.482  22.407  0.00  0.00    +0.000 OA
ATOM      3  O   UNL     1      -0.706   8.008  21.599  0.00  0.00    +0.000 OA
ENDROOT
BRANCH   1   4
ATOM      4  C   UNL     1       1.380   8.407  20.027  0.00  0.00    +0.000 A 
ATOM      5  C   UNL     1       1.620   9.295  18.973  0.00  0.00    +0.000 A 
ATOM      6  C   UNL     1       2.312   8.855  17.861  0.00  0.00    +0.000 A 
ATOM      7  C   UNL     1       2.808   7.550  17.829  0.00  0.00    +0.000 A 
ATOM      8  C   UNL     1       2.705   6.641  18.913  0.00  0.00    +0.000 A 
ATOM      9  C   UNL     1       3.314   5.327  18.910  0.00  0.00    +0.000 A 
ATOM     10  C   UNL     1       3.049   4.493  20.014  0.00  0.00    +0.000 A 
ATOM     11  C   UNL     1       2.226   4.883  21.060  0.00  0.00    +0.000 A 
ATOM     12  C   UNL     1       1.667   6.150  21.059  0.00  0.00    +0.000 A 
ATOM     13  C   UNL     1       1.907   7.076  20.022  0.00  0.00    +0.000 A 
BRANCH   9  14
ATOM     14  N   UNL     1       4.139   4.839  17.890  0.00  0.00    +0.000 N 
ATOM     15  C   UNL     1       3.664   3.862  16.908  0.00  0.00    +0.000 C 
ATOM     16  C   UNL     1       5.586   5.036  17.895  0.00  0.00    +0.000 C 
ENDBRANCH   9  14
ENDBRANCH   1   4
BRANCH   1  17
ATOM     17  N   UNL     1      -0.438  10.353  20.687  0.00  0.00    +0.000 N 
ATOM     18  H   UNL     1      -0.754  10.310  19.724  0.00  0.00    +0.000 HD
BRANCH  17  26
ATOM     19  C   UNL     1      -4.097  12.468  24.482  0.00  0.00    +0.000 C 
ATOM     20  C   UNL     1      -2.910  13.208  23.991  0.00  0.00    +0.000 A 
ATOM     21  N   UNL     1      -2.630  14.439  24.438  0.00  0.00    +0.000 NA
ATOM     22  N   UNL     1      -1.500  14.768  23.786  0.00  0.00    +0.000 N 
ATOM     23  C   UNL     1      -1.041  13.801  22.931  0.00  0.00    +0.000 A 
ATOM     24  C   UNL     1       0.072  13.755  22.090  0.00  0.00    +0.000 A 
ATOM     25  C   UNL     1       0.251  12.585  21.347  0.00  0.00    +0.000 A 
ATOM     26  C   UNL     1      -0.643  11.515  21.463  0.00  0.00    +0.000 A 
ATOM     27  C   UNL     1      -1.766  11.593  22.287  0.00  0.00    +0.000 A 
ATOM     28  C   UNL     1      -1.953  12.758  23.047  0.00  0.00    +0.000 A 
ATOM     29  H   UNL     1      -1.087  15.672  23.974  0.00  0.00    +0.000 HD
ENDBRANCH  17  26
ENDBRANCH   1  17
TORSDOF 4
ENDMDL
MODEL 6
REMARK VINA RESULT:      -7.3      0.907      1.804
REMARK  Name = 
REMARK  7 active torsions:
REMARK  status: ('A' for Active; 'I' for Inactive)
REMARK    1  A    between atoms: C_1  and  C_2
REMARK    2  A    between atoms: C_8  and  N_9
REMARK    3  A    between atoms: N_9  and  S_10
REMARK    4  A    between atoms: S_10  and  C_13
REMARK    5  A    between atoms: C_18  and  N_19
REMARK    6  A    between atoms: N_19  and  C_20
REMARK    7  A    between atoms: N_19  and  C_21
REMARK                            x       y       z     vdW  Elec       q    Type
REMARK                         _______ _______ _______ _____ _____    ______ ____
ROOT
ATOM      1  S   UNL     1       0.505   9.564  20.528  0.00  0.00    +0.000 S 
ATOM      2  O   UNL     1       1.264  10.076  21.651  0.00  0.00    +0.000 OA
ATOM      3  O   UNL     1      -0.669   8.742  20.750  0.00  0.00    +0.000 OA
ENDROOT
BRANCH   1   4
ATOM      4  C   UNL     1       1.648   8.656  19.483  0.00  0.00    +0.000 A 
ATOM      5  C   UNL     1       2.143   9.345  18.370  0.00  0.00    +0.000 A 
ATOM      6  C   UNL     1       2.911   8.669  17.442  0.00  0.00    +0.000 A 
ATOM      7  C   UNL     1       3.227   7.326  17.654  0.00  0.00    +0.000 A 
ATOM      8  C   UNL     1       2.859   6.605  18.819  0.00  0.00    +0.000 A 
ATOM      9  C   UNL     1       3.281   5.244  19.079  0.00  0.00    +0.000 A 
ATOM     10  C   UNL     1       2.762   4.618  20.230  0.00  0.00    +0.000 A 
ATOM     11  C   UNL     1       1.868   5.250  21.081  0.00  0.00    +0.000 A 
ATOM     12  C   UNL     1       1.490   6.558  20.831  0.00  0.00    +0.000 A 
ATOM     13  C   UNL     1       1.987   7.288  19.730  0.00  0.00    +0.000 A 
BRANCH   9  14
ATOM     14  N   UNL     1       4.161   4.519  18.266  0.00  0.00    +0.000 N 
ATOM     15  C   UNL     1       3.685   3.532  17.295  0.00  0.00    +0.000 C 
ATOM     16  C   UNL     1       5.598   4.475  18.517  0.00  0.00    +0.000 C 
ENDBRANCH   9  14
ENDBRANCH   1   4
BRANCH   1  17
ATOM     17  N   UNL     1       0.051  10.883  19.611  0.00  0.00    +0.000 N 
ATOM     18  H   UNL     1       0.655  11.699  19.608  0.00  0.00    +0.000 HD
BRANCH  17  26
ATOM     19  C   UNL     1      -5.238  12.953  19.695  0.00  0.00    +0.000 C 
ATOM     20  C   UNL     1      -4.724  12.068  18.623  0.00  0.00    +0.000 A 
ATOM     21  N   UNL     1      -5.498  11.713  17.590  0.00  0.00    +0.000 NA
ATOM     22  N   UNL     1      -4.697  10.934  16.840  0.00  0.00    +0.000 N 
ATOM     23  C   UNL     1      -3.436  10.769  17.349  0.00  0.00    +0.000 A 
ATOM     24  C   UNL     1      -2.332  10.052  16.885  0.00  0.00    +0.000 A 
ATOM     25  C   UNL     1      -1.174  10.107  17.664  0.00  0.00    +0.000 A 
ATOM     26  C   UNL     1      -1.133  10.860  18.843  0.00  0.00    +0.000 A 
ATOM     27  C   UNL     1      -2.258  11.545  19.305  0.00  0.00    +0.000 A 
ATOM     28  C   UNL     1      -3.426  11.507  18.527  0.00  0.00    +0.000 A 
ATOM     29  H   UNL     1      -5.072  10.549  15.983  0.00  0.00    +0.000 HD
ENDBRANCH  17  26
ENDBRANCH   1  17
TORSDOF 4
ENDMDL
MODEL 7
REMARK VINA RESULT:      -7.2      1.681      2.805
REMARK  Name = 
REMARK  7 active torsions:
REMARK  status: ('A' for Active; 'I' for Inactive)
REMARK    1  A    between atoms: C_1  and  C_2
REMARK    2  A    between atoms: C_8  and  N_9
REMARK    3  A    between atoms: N_9  and  S_10
REMARK    4  A    between atoms: S_10  and  C_13
REMARK    5  A    between atoms: C_18  and  N_19
REMARK    6  A    between atoms: N_19  and  C_20
REMARK    7  A    between atoms: N_19  and  C_21
REMARK                            x       y       z     vdW  Elec       q    Type
REMARK                         _______ _______ _______ _____ _____    ______ ____
ROOT
ATOM      1  S   UNL     1       0.616   9.386  21.517  0.00  0.00    +0.000 S 
ATOM      2  O   UNL     1       1.546   9.274  22.623  0.00  0.00    +0.000 OA
ATOM      3  O   UNL     1      -0.695   8.772  21.598  0.00  0.00    +0.000 OA
ENDROOT
BRANCH   1   4
ATOM      4  C   UNL     1       1.450   8.764  20.055  0.00  0.00    +0.000 A 
ATOM      5  C   UNL     1       1.590   9.667  18.996  0.00  0.00    +0.000 A 
ATOM      6  C   UNL     1       2.089   9.222  17.788  0.00  0.00    +0.000 A 
ATOM      7  C   UNL     1       2.496   7.893  17.656  0.00  0.00    +0.000 A 
ATOM      8  C   UNL     1       2.494   6.959  18.724  0.00  0.00    +0.000 A 
ATOM      9  C   UNL     1       3.015   5.614  18.606  0.00  0.00    +0.000 A 
ATOM     10  C   UNL     1       2.861   4.764  19.719  0.00  0.00    +0.000 A 
ATOM     11  C   UNL     1       2.220   5.168  20.880  0.00  0.00    +0.000 A 
ATOM     12  C   UNL     1       1.745   6.464  20.986  0.00  0.00    +0.000 A 
ATOM     13  C   UNL     1       1.889   7.406  19.946  0.00  0.00    +0.000 A 
BRANCH   9  14
ATOM     14  N   UNL     1       3.656   5.110  17.467  0.00  0.00    +0.000 N 
ATOM     15  C   UNL     1       3.358   3.779  16.935  0.00  0.00    +0.000 C 
ATOM     16  C   UNL     1       4.849   5.734  16.903  0.00  0.00    +0.000 C 
ENDBRANCH   9  14
ENDBRANCH   1   4
BRANCH   1  17
ATOM     17  N   UNL     1       0.410  11.017  21.225  0.00  0.00    +0.000 N 
ATOM     18  H   UNL     1       1.237  11.598  21.128  0.00  0.00    +0.000 HD
BRANCH  17  26
ATOM     19  C   UNL     1      -3.926  12.767  24.450  0.00  0.00    +0.000 C 
ATOM     20  C   UNL     1      -3.944  12.801  22.968  0.00  0.00    +0.000 A 
ATOM     21  N   UNL     1      -5.007  13.266  22.301  0.00  0.00    +0.000 NA
ATOM     22  N   UNL     1      -4.653  13.148  21.008  0.00  0.00    +0.000 N 
ATOM     23  C   UNL     1      -3.404  12.621  20.813  0.00  0.00    +0.000 A 
ATOM     24  C   UNL     1      -2.683  12.343  19.651  0.00  0.00    +0.000 A 
ATOM     25  C   UNL     1      -1.405  11.804  19.818  0.00  0.00    +0.000 A 
ATOM     26  C   UNL     1      -0.881  11.574  21.094  0.00  0.00    +0.000 A 
ATOM     27  C   UNL     1      -1.630  11.831  22.243  0.00  0.00    +0.000 A 
ATOM     28  C   UNL     1      -2.912  12.382  22.092  0.00  0.00    +0.000 A 
ATOM     29  H   UNL     1      -5.311  13.454  20.303  0.00  0.00    +0.000 HD
ENDBRANCH  17  26
ENDBRANCH   1  17
TORSDOF 4
ENDMDL
MODEL 8
REMARK VINA RESULT:      -7.2      0.706      2.113
REMARK  Name = 
REMARK  7 active torsions:
REMARK  status: ('A' for Active; 'I' for Inactive)
REMARK    1  A    between atoms: C_1  and  C_2
REMARK    2  A    between atoms: C_8  and  N_9
REMARK    3  A    between atoms: N_9  and  S_10
REMARK    4  A    between atoms: S_10  and  C_13
REMARK    5  A    between atoms: C_18  and  N_19
REMARK    6  A    between atoms: N_19  and  C_20
REMARK    7  A    between atoms: N_19  and  C_21
REMARK                            x       y       z     vdW  Elec       q    Type
REMARK                         _______ _______ _______ _____ _____    ______ ____
ROOT
ATOM      1  S   UNL     1       0.832   9.108  21.120  0.00  0.00    +0.000 S 
ATOM      2  O   UNL     1       1.691   9.238  22.280  0.00  0.00    +0.000 OA
ATOM      3  O   UNL     1      -0.476   8.493  21.242  0.00  0.00    +0.000 OA
ENDROOT
BRANCH   1   4
ATOM      4  C   UNL     1       1.763   8.228  19.864  0.00  0.00    +0.000 A 
ATOM      5  C   UNL     1       2.142   8.974  18.743  0.00  0.00    +0.000 A 
ATOM      6  C   UNL     1       2.733   8.334  17.671  0.00  0.00    +0.000 A 
ATOM      7  C   UNL     1       2.992   6.964  17.743  0.00  0.00    +0.000 A 
ATOM      8  C   UNL     1       2.744   6.175  18.895  0.00  0.00    +0.000 A 
ATOM      9  C   UNL     1       3.114   4.778  18.997  0.00  0.00    +0.000 A 
ATOM     10  C   UNL     1       2.721   4.093  20.164  0.00  0.00    +0.000 A 
ATOM     11  C   UNL     1       1.991   4.701  21.174  0.00  0.00    +0.000 A 
ATOM     12  C   UNL     1       1.663   6.042  21.072  0.00  0.00    +0.000 A 
ATOM     13  C   UNL     1       2.048   6.829  19.965  0.00  0.00    +0.000 A 
BRANCH   9  14
ATOM     14  N   UNL     1       3.828   4.074  18.020  0.00  0.00    +0.000 N 
ATOM     15  C   UNL     1       5.250   4.321  17.772  0.00  0.00    +0.000 C 
ATOM     16  C   UNL     1       3.167   3.268  16.999  0.00  0.00    +0.000 C 
ENDBRANCH   9  14
ENDBRANCH   1   4
BRANCH   1  17
ATOM     17  N   UNL     1       0.628  10.644  20.497  0.00  0.00    +0.000 N 
ATOM     18  H   UNL     1       1.433  11.262  20.465  0.00  0.00    +0.000 HD
BRANCH  17  26
ATOM     19  C   UNL     1      -3.849  13.751  22.095  0.00  0.00    +0.000 C 
ATOM     20  C   UNL     1      -3.761  13.057  20.789  0.00  0.00    +0.000 A 
ATOM     21  N   UNL     1      -4.754  13.140  19.894  0.00  0.00    +0.000 NA
ATOM     22  N   UNL     1      -4.314  12.406  18.856  0.00  0.00    +0.000 N 
ATOM     23  C   UNL     1      -3.077  11.848  19.045  0.00  0.00    +0.000 A 
ATOM     24  C   UNL     1      -2.288  11.038  18.229  0.00  0.00    +0.000 A 
ATOM     25  C   UNL     1      -1.048  10.647  18.741  0.00  0.00    +0.000 A 
ATOM     26  C   UNL     1      -0.626  11.068  20.007  0.00  0.00    +0.000 A 
ATOM     27  C   UNL     1      -1.444  11.854  20.820  0.00  0.00    +0.000 A 
ATOM     28  C   UNL     1      -2.688  12.263  20.314  0.00  0.00    +0.000 A 
ATOM     29  H   UNL     1      -4.907  12.330  18.040  0.00  0.00    +0.000 HD
ENDBRANCH  17  26
ENDBRANCH   1  17
TORSDOF 4
ENDMDL
MODEL 9
REMARK VINA RESULT:      -7.2      2.521      8.212
REMARK  Name = 
REMARK  7 active torsions:
REMARK  status: ('A' for Active; 'I' for Inactive)
REMARK    1  A    between atoms: C_1  and  C_2
REMARK    2  A    between atoms: C_8  and  N_9
REMARK    3  A    between atoms: N_9  and  S_10
REMARK    4  A    between atoms: S_10  and  C_13
REMARK    5  A    between atoms: C_18  and  N_19
REMARK    6  A    between atoms: N_19  and  C_20
REMARK    7  A    between atoms: N_19  and  C_21
REMARK                            x       y       z     vdW  Elec       q    Type
REMARK                         _______ _______ _______ _____ _____    ______ ____
ROOT
ATOM      1  S   UNL     1       1.768   8.807  18.272  0.00  0.00    +0.000 S 
ATOM      2  O   UNL     1       2.379   9.946  17.617  0.00  0.00    +0.000 OA
ATOM      3  O   UNL     1       0.825   7.969  17.557  0.00  0.00    +0.000 OA
ENDROOT
BRANCH   1   4
ATOM      4  C   UNL     1       0.976   9.413  19.765  0.00  0.00    +0.000 A 
ATOM      5  C   UNL     1       1.282   8.727  20.945  0.00  0.00    +0.000 A 
ATOM      6  C   UNL     1       0.603   9.041  22.106  0.00  0.00    +0.000 A 
ATOM      7  C   UNL     1      -0.339  10.072  22.098  0.00  0.00    +0.000 A 
ATOM      8  C   UNL     1      -0.607  10.885  20.967  0.00  0.00    +0.000 A 
ATOM      9  C   UNL     1      -1.508  12.018  20.997  0.00  0.00    +0.000 A 
ATOM     10  C   UNL     1      -1.753  12.677  19.776  0.00  0.00    +0.000 A 
ATOM     11  C   UNL     1      -1.186  12.263  18.580  0.00  0.00    +0.000 A 
ATOM     12  C   UNL     1      -0.311  11.191  18.570  0.00  0.00    +0.000 A 
ATOM     13  C   UNL     1       0.035  10.491  19.746  0.00  0.00    +0.000 A 
BRANCH   9  14
ATOM     14  N   UNL     1      -2.143  12.495  22.150  0.00  0.00    +0.000 N 
ATOM     15  C   UNL     1      -3.601  12.560  22.261  0.00  0.00    +0.000 C 
ATOM     16  C   UNL     1      -1.424  13.217  23.195  0.00  0.00    +0.000 C 
ENDBRANCH   9  14
ENDBRANCH   1   4
BRANCH   1  17
ATOM     17  N   UNL     1       3.014   7.839  18.819  0.00  0.00    +0.000 N 
ATOM     18  H   UNL     1       3.744   8.265  19.381  0.00  0.00    +0.000 HD
BRANCH  17  26
ATOM     19  C   UNL     1       1.054   2.908  20.844  0.00  0.00    +0.000 C 
ATOM     20  C   UNL     1       1.904   3.014  19.634  0.00  0.00    +0.000 A 
ATOM     21  N   UNL     1       2.252   1.925  18.937  0.00  0.00    +0.000 NA
ATOM     22  N   UNL     1       2.997   2.414  17.929  0.00  0.00    +0.000 N 
ATOM     23  C   UNL     1       3.149   3.775  17.949  0.00  0.00    +0.000 A 
ATOM     24  C   UNL     1       3.832   4.648  17.102  0.00  0.00    +0.000 A 
ATOM     25  C   UNL     1       3.771   6.008  17.417  0.00  0.00    +0.000 A 
ATOM     26  C   UNL     1       3.044   6.459  18.524  0.00  0.00    +0.000 A 
ATOM     27  C   UNL     1       2.392   5.566  19.376  0.00  0.00    +0.000 A 
ATOM     28  C   UNL     1       2.436   4.198  19.066  0.00  0.00    +0.000 A 
ATOM     29  H   UNL     1       3.370   1.761  17.252  0.00  0.00    +0.000 HD
ENDBRANCH  17  26
ENDBRANCH   1  17
TORSDOF 4
ENDMDL
