MODEL 1
REMARK VINA RESULT:      -6.4      0.000      0.000
REMARK  Name = 
REMARK  7 active torsions:
REMARK  status: ('A' for Active; 'I' for Inactive)
REMARK    1  A    between atoms: C_1  and  O_2
REMARK    2  A    between atoms: O_2  and  C_3
REMARK    3  A    between atoms: C_3  and  C_4
REMARK    4  A    between atoms: C_4  and  N_5
REMARK    5  A    between atoms: N_5  and  C_6
REMARK    6  A    between atoms: C_7  and  C_8
REMARK    7  A    between atoms: N_18  and  C_19
REMARK                            x       y       z     vdW  Elec       q    Type
REMARK                         _______ _______ _______ _____ _____    ______ ____
ROOT
ATOM      1  C   UNL     1       4.238   4.102  19.041  0.00  0.00    +0.000 A 
ATOM      2  C   UNL     1       3.318   4.759  19.792  0.00  0.00    +0.000 A 
ATOM      3  C   UNL     1       2.865   6.108  19.401  0.00  0.00    +0.000 A 
ATOM      4  C   UNL     1       3.354   6.745  18.304  0.00  0.00    +0.000 A 
ATOM      5  C   UNL     1       4.345   6.061  17.530  0.00  0.00    +0.000 A 
ATOM      6  N   UNL     1       5.003   6.420  16.447  0.00  0.00    +0.000 NA
ATOM      7  N   UNL     1       5.828   5.381  16.089  0.00  0.00    +0.000 NA
ATOM      8  C   UNL     1       5.657   4.418  16.966  0.00  0.00    +0.000 A 
ATOM      9  N   UNL     1       4.735   4.789  17.915  0.00  0.00    +0.000 N 
ATOM     10  C   UNL     1       2.847   8.130  17.917  0.00  0.00    +0.000 C 
ATOM     11  N   UNL     1       1.593   8.524  18.590  0.00  0.00    +0.000 NA
ATOM     12  C   UNL     1       1.279   9.926  18.331  0.00  0.00    +0.000 C 
ATOM     13  C   UNL     1       1.696   8.277  20.028  0.00  0.00    +0.000 C 
ATOM     14  C   UNL     1       1.818   6.774  20.274  0.00  0.00    +0.000 C 
ENDROOT
BRANCH   1  15
ATOM     15  N   UNL     1       4.705   2.824  19.349  0.00  0.00    +0.000 N 
ATOM     16  H   UNL     1       5.723   2.724  19.399  0.00  0.00    +0.000 HD
BRANCH  15  17
ATOM     17  C   UNL     1       4.062   1.593  18.860  0.00  0.00    +0.000 C 
BRANCH  17  18
ATOM     18  C   UNL     1       2.768   1.899  18.094  0.00  0.00    +0.000 C 
BRANCH  18  20
ATOM     19  C   UNL     1       0.583   2.529  18.734  0.00  0.00    +0.000 C 
ATOM     20  O   UNL     1       1.654   1.621  18.948  0.00  0.00    +0.000 OA
ENDBRANCH  18  20
ENDBRANCH  17  18
ENDBRANCH  15  17
ENDBRANCH   1  15
BRANCH   2  21
ATOM     21  C   UNL     1       2.804   4.181  20.992  0.00  0.00    +0.000 C 
ATOM     22  N   UNL     1       2.308   3.693  21.925  0.00  0.00    +0.000 NA
ENDBRANCH   2  21
TORSDOF 5
ENDMDL
MODEL 2
REMARK VINA RESULT:      -6.3      2.163      4.370
REMARK  Name = 
REMARK  7 active torsions:
REMARK  status: ('A' for Active; 'I' for Inactive)
REMARK    1  A    between atoms: C_1  and  O_2
REMARK    2  A    between atoms: O_2  and  C_3
REMARK    3  A    between atoms: C_3  and  C_4
REMARK    4  A    between atoms: C_4  and  N_5
REMARK    5  A    between atoms: N_5  and  C_6
REMARK    6  A    between atoms: C_7  and  C_8
REMARK    7  A    between atoms: N_18  and  C_19
REMARK                            x       y       z     vdW  Elec       q    Type
REMARK                         _______ _______ _______ _____ _____    ______ ____
ROOT
ATOM      1  C   UNL     1       4.653   4.496  17.609  0.00  0.00    +0.000 A 
ATOM      2  C   UNL     1       4.309   5.781  17.339  0.00  0.00    +0.000 A 
ATOM      3  C   UNL     1       3.383   6.505  18.231  0.00  0.00    +0.000 A 
ATOM      4  C   UNL     1       2.830   5.922  19.328  0.00  0.00    +0.000 A 
ATOM      5  C   UNL     1       3.173   4.558  19.594  0.00  0.00    +0.000 A 
ATOM      6  N   UNL     1       2.794   3.736  20.550  0.00  0.00    +0.000 NA
ATOM      7  N   UNL     1       3.438   2.539  20.360  0.00  0.00    +0.000 NA
ATOM      8  C   UNL     1       4.189   2.657  19.289  0.00  0.00    +0.000 A 
ATOM      9  N   UNL     1       4.059   3.913  18.747  0.00  0.00    +0.000 N 
ATOM     10  C   UNL     1       1.894   6.708  20.240  0.00  0.00    +0.000 C 
ATOM     11  N   UNL     1       1.939   8.169  20.035  0.00  0.00    +0.000 NA
ATOM     12  C   UNL     1       0.881   8.835  20.790  0.00  0.00    +0.000 C 
ATOM     13  C   UNL     1       1.829   8.481  18.611  0.00  0.00    +0.000 C 
ATOM     14  C   UNL     1       3.060   7.946  17.881  0.00  0.00    +0.000 C 
ENDROOT
BRANCH   1  15
ATOM     15  N   UNL     1       5.528   3.755  16.814  0.00  0.00    +0.000 N 
ATOM     16  H   UNL     1       5.549   2.748  16.998  0.00  0.00    +0.000 HD
BRANCH  15  17
ATOM     17  C   UNL     1       6.843   4.256  16.380  0.00  0.00    +0.000 C 
BRANCH  17  18
ATOM     18  C   UNL     1       7.804   4.412  17.566  0.00  0.00    +0.000 C 
BRANCH  18  20
ATOM     19  C   UNL     1       7.664   5.980  19.326  0.00  0.00    +0.000 C 
ATOM     20  O   UNL     1       7.860   5.793  17.932  0.00  0.00    +0.000 OA
ENDBRANCH  18  20
ENDBRANCH  17  18
ENDBRANCH  15  17
ENDBRANCH   1  15
BRANCH   2  21
ATOM     21  C   UNL     1       4.800   6.441  16.172  0.00  0.00    +0.000 C 
ATOM     22  N   UNL     1       5.114   6.990  15.195  0.00  0.00    +0.000 NA
ENDBRANCH   2  21
TORSDOF 5
ENDMDL
MODEL 3
REMARK VINA RESULT:      -6.3      1.974      4.235
REMARK  Name = 
REMARK  7 active torsions:
REMARK  status: ('A' for Active; 'I' for Inactive)
REMARK    1  A    between atoms: C_1  and  O_2
REMARK    2  A    between atoms: O_2  and  C_3
REMARK    3  A    between atoms: C_3  and  C_4
REMARK    4  A    between atoms: C_4  and  N_5
REMARK    5  A    between atoms: N_5  and  C_6
REMARK    6  A    between atoms: C_7  and  C_8
REMARK    7  A    between atoms: N_18  and  C_19
REMARK                            x       y       z     vdW  Elec       q    Type
REMARK                         _______ _______ _______ _____ _____    ______ ____
ROOT
ATOM      1  C   UNL     1       4.386   4.804  18.089  0.00  0.00    +0.000 A 
ATOM      2  C   UNL     1       4.073   6.062  17.686  0.00  0.00    +0.000 A 
ATOM      3  C   UNL     1       3.104   6.870  18.451  0.00  0.00    +0.000 A 
ATOM      4  C   UNL     1       2.481   6.391  19.561  0.00  0.00    +0.000 A 
ATOM      5  C   UNL     1       2.791   5.054  19.968  0.00  0.00    +0.000 A 
ATOM      6  N   UNL     1       2.346   4.325  20.970  0.00  0.00    +0.000 NA
ATOM      7  N   UNL     1       2.986   3.110  20.926  0.00  0.00    +0.000 NA
ATOM      8  C   UNL     1       3.801   3.127  19.896  0.00  0.00    +0.000 A 
ATOM      9  N   UNL     1       3.718   4.330  19.237  0.00  0.00    +0.000 N 
ATOM     10  C   UNL     1       1.501   7.262  20.340  0.00  0.00    +0.000 C 
ATOM     11  N   UNL     1       1.575   8.698  20.009  0.00  0.00    +0.000 NA
ATOM     12  C   UNL     1       0.481   9.436  20.635  0.00  0.00    +0.000 C 
ATOM     13  C   UNL     1       1.554   8.881  18.558  0.00  0.00    +0.000 C 
ATOM     14  C   UNL     1       2.819   8.274  17.955  0.00  0.00    +0.000 C 
ENDROOT
BRANCH   1  15
ATOM     15  N   UNL     1       5.297   3.990  17.418  0.00  0.00    +0.000 N 
ATOM     16  H   UNL     1       5.148   2.981  17.519  0.00  0.00    +0.000 HD
BRANCH  15  17
ATOM     17  C   UNL     1       6.727   4.317  17.289  0.00  0.00    +0.000 C 
BRANCH  17  18
ATOM     18  C   UNL     1       7.187   4.264  15.826  0.00  0.00    +0.000 C 
BRANCH  18  20
ATOM     19  C   UNL     1       6.288   3.948  13.665  0.00  0.00    +0.000 C 
ATOM     20  O   UNL     1       6.162   3.642  15.046  0.00  0.00    +0.000 OA
ENDBRANCH  18  20
ENDBRANCH  17  18
ENDBRANCH  15  17
ENDBRANCH   1  15
BRANCH   2  21
ATOM     21  C   UNL     1       4.640   6.611  16.496  0.00  0.00    +0.000 C 
ATOM     22  N   UNL     1       5.043   7.010  15.480  0.00  0.00    +0.000 NA
ENDBRANCH   2  21
TORSDOF 5
ENDMDL
MODEL 4
REMARK VINA RESULT:      -6.2      1.576      4.229
REMARK  Name = 
REMARK  7 active torsions:
REMARK  status: ('A' for Active; 'I' for Inactive)
REMARK    1  A    between atoms: C_1  and  O_2
REMARK    2  A    between atoms: O_2  and  C_3
REMARK    3  A    between atoms: C_3  and  C_4
REMARK    4  A    between atoms: C_4  and  N_5
REMARK    5  A    between atoms: N_5  and  C_6
REMARK    6  A    between atoms: C_7  and  C_8
REMARK    7  A    between atoms: N_18  and  C_19
REMARK                            x       y       z     vdW  Elec       q    Type
REMARK                         _______ _______ _______ _____ _____    ______ ____
ROOT
ATOM      1  C   UNL     1       3.405   5.372  19.440  0.00  0.00    +0.000 A 
ATOM      2  C   UNL     1       4.281   4.478  18.915  0.00  0.00    +0.000 A 
ATOM      3  C   UNL     1       4.950   4.759  17.630  0.00  0.00    +0.000 A 
ATOM      4  C   UNL     1       4.707   5.894  16.921  0.00  0.00    +0.000 A 
ATOM      5  C   UNL     1       3.762   6.821  17.464  0.00  0.00    +0.000 A 
ATOM      6  N   UNL     1       3.317   7.975  17.011  0.00  0.00    +0.000 NA
ATOM      7  N   UNL     1       2.431   8.478  17.932  0.00  0.00    +0.000 NA
ATOM      8  C   UNL     1       2.353   7.617  18.920  0.00  0.00    +0.000 A 
ATOM      9  N   UNL     1       3.165   6.535  18.681  0.00  0.00    +0.000 N 
ATOM     10  C   UNL     1       5.433   6.162  15.607  0.00  0.00    +0.000 C 
ATOM     11  N   UNL     1       6.614   5.305  15.385  0.00  0.00    +0.000 NA
ATOM     12  C   UNL     1       7.134   5.473  14.031  0.00  0.00    +0.000 C 
ATOM     13  C   UNL     1       6.275   3.905  15.635  0.00  0.00    +0.000 C 
ATOM     14  C   UNL     1       5.933   3.725  17.113  0.00  0.00    +0.000 C 
ENDROOT
BRANCH   1  15
ATOM     15  N   UNL     1       2.745   5.173  20.653  0.00  0.00    +0.000 N 
ATOM     16  H   UNL     1       3.336   4.882  21.437  0.00  0.00    +0.000 HD
BRANCH  15  17
ATOM     17  C   UNL     1       1.392   4.599  20.749  0.00  0.00    +0.000 C 
BRANCH  17  18
ATOM     18  C   UNL     1       1.420   3.195  21.367  0.00  0.00    +0.000 C 
BRANCH  18  20
ATOM     19  C   UNL     1       0.768   2.694  19.153  0.00  0.00    +0.000 C 
ATOM     20  O   UNL     1       1.447   2.230  20.311  0.00  0.00    +0.000 OA
ENDBRANCH  18  20
ENDBRANCH  17  18
ENDBRANCH  15  17
ENDBRANCH   1  15
BRANCH   2  21
ATOM     21  C   UNL     1       4.541   3.236  19.570  0.00  0.00    +0.000 C 
ATOM     22  N   UNL     1       4.828   2.218  20.056  0.00  0.00    +0.000 NA
ENDBRANCH   2  21
TORSDOF 5
ENDMDL
MODEL 5
REMARK VINA RESULT:      -6.1      2.604      5.874
REMARK  Name = 
REMARK  7 active torsions:
REMARK  status: ('A' for Active; 'I' for Inactive)
REMARK    1  A    between atoms: C_1  and  O_2
REMARK    2  A    between atoms: O_2  and  C_3
REMARK    3  A    between atoms: C_3  and  C_4
REMARK    4  A    between atoms: C_4  and  N_5
REMARK    5  A    between atoms: N_5  and  C_6
REMARK    6  A    between atoms: C_7  and  C_8
REMARK    7  A    between atoms: N_18  and  C_19
REMARK                            x       y       z     vdW  Elec       q    Type
REMARK                         _______ _______ _______ _____ _____    ______ ____
ROOT
ATOM      1  C   UNL     1       2.132   6.571  19.693  0.00  0.00    +0.000 A 
ATOM      2  C   UNL     1       2.732   7.057  18.576  0.00  0.00    +0.000 A 
ATOM      3  C   UNL     1       3.692   6.225  17.825  0.00  0.00    +0.000 A 
ATOM      4  C   UNL     1       4.024   4.968  18.221  0.00  0.00    +0.000 A 
ATOM      5  C   UNL     1       3.411   4.468  19.414  0.00  0.00    +0.000 A 
ATOM      6  N   UNL     1       3.543   3.319  20.044  0.00  0.00    +0.000 NA
ATOM      7  N   UNL     1       2.708   3.336  21.134  0.00  0.00    +0.000 NA
ATOM      8  C   UNL     1       2.092   4.496  21.146  0.00  0.00    +0.000 A 
ATOM      9  N   UNL     1       2.502   5.269  20.086  0.00  0.00    +0.000 N 
ATOM     10  C   UNL     1       5.004   4.128  17.408  0.00  0.00    +0.000 C 
ATOM     11  N   UNL     1       5.250   4.639  16.046  0.00  0.00    +0.000 NA
ATOM     12  C   UNL     1       6.341   3.911  15.404  0.00  0.00    +0.000 C 
ATOM     13  C   UNL     1       5.545   6.071  16.091  0.00  0.00    +0.000 C 
ATOM     14  C   UNL     1       4.308   6.825  16.575  0.00  0.00    +0.000 C 
ENDROOT
BRANCH   1  15
ATOM     15  N   UNL     1       1.211   7.299  20.445  0.00  0.00    +0.000 N 
ATOM     16  H   UNL     1       0.371   7.602  19.944  0.00  0.00    +0.000 HD
BRANCH  15  17
ATOM     17  C   UNL     1       1.604   8.267  21.482  0.00  0.00    +0.000 C 
BRANCH  17  18
ATOM     18  C   UNL     1       0.779   9.557  21.390  0.00  0.00    +0.000 C 
BRANCH  18  20
ATOM     19  C   UNL     1      -0.737  10.155  23.100  0.00  0.00    +0.000 C 
ATOM     20  O   UNL     1       0.626  10.098  22.706  0.00  0.00    +0.000 OA
ENDBRANCH  18  20
ENDBRANCH  17  18
ENDBRANCH  15  17
ENDBRANCH   1  15
BRANCH   2  21
ATOM     21  C   UNL     1       2.481   8.391  18.132  0.00  0.00    +0.000 C 
ATOM     22  N   UNL     1       2.277   9.446  17.686  0.00  0.00    +0.000 NA
ENDBRANCH   2  21
TORSDOF 5
ENDMDL
MODEL 6
REMARK VINA RESULT:      -6.1      2.252      4.388
REMARK  Name = 
REMARK  7 active torsions:
REMARK  status: ('A' for Active; 'I' for Inactive)
REMARK    1  A    between atoms: C_1  and  O_2
REMARK    2  A    between atoms: O_2  and  C_3
REMARK    3  A    between atoms: C_3  and  C_4
REMARK    4  A    between atoms: C_4  and  N_5
REMARK    5  A    between atoms: N_5  and  C_6
REMARK    6  A    between atoms: C_7  and  C_8
REMARK    7  A    between atoms: N_18  and  C_19
REMARK                            x       y       z     vdW  Elec       q    Type
REMARK                         _______ _______ _______ _____ _____    ______ ____
ROOT
ATOM      1  C   UNL     1       4.077   5.119  18.249  0.00  0.00    +0.000 A 
ATOM      2  C   UNL     1       3.832   6.348  17.728  0.00  0.00    +0.000 A 
ATOM      3  C   UNL     1       2.871   7.255  18.383  0.00  0.00    +0.000 A 
ATOM      4  C   UNL     1       2.188   6.899  19.504  0.00  0.00    +0.000 A 
ATOM      5  C   UNL     1       2.428   5.592  20.035  0.00  0.00    +0.000 A 
ATOM      6  N   UNL     1       1.917   4.969  21.077  0.00  0.00    +0.000 NA
ATOM      7  N   UNL     1       2.507   3.732  21.163  0.00  0.00    +0.000 NA
ATOM      8  C   UNL     1       3.359   3.628  20.168  0.00  0.00    +0.000 A 
ATOM      9  N   UNL     1       3.350   4.771  19.406  0.00  0.00    +0.000 N 
ATOM     10  C   UNL     1       1.218   7.871  20.167  0.00  0.00    +0.000 C 
ATOM     11  N   UNL     1       1.363   9.269  19.718  0.00  0.00    +0.000 NA
ATOM     12  C   UNL     1       0.279  10.100  20.236  0.00  0.00    +0.000 C 
ATOM     13  C   UNL     1       1.402   9.327  18.257  0.00  0.00    +0.000 C 
ATOM     14  C   UNL     1       2.662   8.622  17.758  0.00  0.00    +0.000 C 
ENDROOT
BRANCH   1  15
ATOM     15  N   UNL     1       4.978   4.215  17.687  0.00  0.00    +0.000 N 
ATOM     16  H   UNL     1       4.599   3.288  17.472  0.00  0.00    +0.000 HD
BRANCH  15  17
ATOM     17  C   UNL     1       6.397   4.146  18.073  0.00  0.00    +0.000 C 
BRANCH  17  18
ATOM     18  C   UNL     1       7.316   4.570  16.920  0.00  0.00    +0.000 C 
BRANCH  18  20
ATOM     19  C   UNL     1       7.652   6.250  18.546  0.00  0.00    +0.000 C 
ATOM     20  O   UNL     1       7.793   5.894  17.179  0.00  0.00    +0.000 OA
ENDBRANCH  18  20
ENDBRANCH  17  18
ENDBRANCH  15  17
ENDBRANCH   1  15
BRANCH   2  21
ATOM     21  C   UNL     1       4.464   6.770  16.519  0.00  0.00    +0.000 C 
ATOM     22  N   UNL     1       5.041   7.051  15.549  0.00  0.00    +0.000 NA
ENDBRANCH   2  21
TORSDOF 5
ENDMDL
MODEL 7
REMARK VINA RESULT:      -5.8      2.715      5.501
REMARK  Name = 
REMARK  7 active torsions:
REMARK  status: ('A' for Active; 'I' for Inactive)
REMARK    1  A    between atoms: C_1  and  O_2
REMARK    2  A    between atoms: O_2  and  C_3
REMARK    3  A    between atoms: C_3  and  C_4
REMARK    4  A    between atoms: C_4  and  N_5
REMARK    5  A    between atoms: N_5  and  C_6
REMARK    6  A    between atoms: C_7  and  C_8
REMARK    7  A    between atoms: N_18  and  C_19
REMARK                            x       y       z     vdW  Elec       q    Type
REMARK                         _______ _______ _______ _____ _____    ______ ____
ROOT
ATOM      1  C   UNL     1       2.037   6.784  20.129  0.00  0.00    +0.000 A 
ATOM      2  C   UNL     1       2.634   5.568  20.049  0.00  0.00    +0.000 A 
ATOM      3  C   UNL     1       3.476   5.228  18.885  0.00  0.00    +0.000 A 
ATOM      4  C   UNL     1       3.670   6.094  17.855  0.00  0.00    +0.000 A 
ATOM      5  C   UNL     1       3.016   7.365  17.929  0.00  0.00    +0.000 A 
ATOM      6  N   UNL     1       2.999   8.385  17.096  0.00  0.00    +0.000 NA
ATOM      7  N   UNL     1       2.233   9.377  17.656  0.00  0.00    +0.000 NA
ATOM      8  C   UNL     1       1.795   8.936  18.813  0.00  0.00    +0.000 A 
ATOM      9  N   UNL     1       2.247   7.659  19.044  0.00  0.00    +0.000 N 
ATOM     10  C   UNL     1       4.563   5.717  16.678  0.00  0.00    +0.000 C 
ATOM     11  N   UNL     1       5.433   4.551  16.930  0.00  0.00    +0.000 NA
ATOM     12  C   UNL     1       6.104   4.126  15.705  0.00  0.00    +0.000 C 
ATOM     13  C   UNL     1       4.649   3.453  17.494  0.00  0.00    +0.000 C 
ATOM     14  C   UNL     1       4.130   3.859  18.872  0.00  0.00    +0.000 C 
ENDROOT
BRANCH   1  15
ATOM     15  N   UNL     1       1.236   7.174  21.202  0.00  0.00    +0.000 N 
ATOM     16  H   UNL     1       0.285   6.793  21.207  0.00  0.00    +0.000 HD
BRANCH  15  17
ATOM     17  C   UNL     1       1.284   8.520  21.796  0.00  0.00    +0.000 C 
BRANCH  17  18
ATOM     18  C   UNL     1      -0.116   9.018  22.177  0.00  0.00    +0.000 C 
BRANCH  18  20
ATOM     19  C   UNL     1      -0.968  11.046  23.037  0.00  0.00    +0.000 C 
ATOM     20  O   UNL     1       0.015  10.031  23.179  0.00  0.00    +0.000 OA
ENDBRANCH  18  20
ENDBRANCH  17  18
ENDBRANCH  15  17
ENDBRANCH   1  15
BRANCH   2  21
ATOM     21  C   UNL     1       2.428   4.583  21.061  0.00  0.00    +0.000 C 
ATOM     22  N   UNL     1       2.178   3.813  21.897  0.00  0.00    +0.000 NA
ENDBRANCH   2  21
TORSDOF 5
ENDMDL
MODEL 8
REMARK VINA RESULT:      -5.8      1.775      2.270
REMARK  Name = 
REMARK  7 active torsions:
REMARK  status: ('A' for Active; 'I' for Inactive)
REMARK    1  A    between atoms: C_1  and  O_2
REMARK    2  A    between atoms: O_2  and  C_3
REMARK    3  A    between atoms: C_3  and  C_4
REMARK    4  A    between atoms: C_4  and  N_5
REMARK    5  A    between atoms: N_5  and  C_6
REMARK    6  A    between atoms: C_7  and  C_8
REMARK    7  A    between atoms: N_18  and  C_19
REMARK                            x       y       z     vdW  Elec       q    Type
REMARK                         _______ _______ _______ _____ _____    ______ ____
ROOT
ATOM      1  C   UNL     1       3.657   3.558  19.019  0.00  0.00    +0.000 A 
ATOM      2  C   UNL     1       2.854   4.267  19.852  0.00  0.00    +0.000 A 
ATOM      3  C   UNL     1       2.563   5.687  19.575  0.00  0.00    +0.000 A 
ATOM      4  C   UNL     1       3.092   6.338  18.504  0.00  0.00    +0.000 A 
ATOM      5  C   UNL     1       3.960   5.595  17.643  0.00  0.00    +0.000 A 
ATOM      6  N   UNL     1       4.622   5.948  16.560  0.00  0.00    +0.000 NA
ATOM      7  N   UNL     1       5.294   4.844  16.096  0.00  0.00    +0.000 NA
ATOM      8  C   UNL     1       5.032   3.847  16.910  0.00  0.00    +0.000 A 
ATOM      9  N   UNL     1       4.199   4.259  17.922  0.00  0.00    +0.000 N 
ATOM     10  C   UNL     1       2.752   7.800  18.236  0.00  0.00    +0.000 C 
ATOM     11  N   UNL     1       1.583   8.296  18.989  0.00  0.00    +0.000 NA
ATOM     12  C   UNL     1       1.441   9.741  18.841  0.00  0.00    +0.000 C 
ATOM     13  C   UNL     1       1.702   7.932  20.400  0.00  0.00    +0.000 C 
ATOM     14  C   UNL     1       1.641   6.412  20.536  0.00  0.00    +0.000 C 
ENDROOT
BRANCH   1  15
ATOM     15  N   UNL     1       3.967   2.212  19.216  0.00  0.00    +0.000 N 
ATOM     16  H   UNL     1       3.168   1.594  19.384  0.00  0.00    +0.000 HD
BRANCH  15  17
ATOM     17  C   UNL     1       5.166   1.760  19.941  0.00  0.00    +0.000 C 
BRANCH  17  18
ATOM     18  C   UNL     1       4.808   1.174  21.313  0.00  0.00    +0.000 C 
BRANCH  18  20
ATOM     19  C   UNL     1       6.423  -0.278  22.241  0.00  0.00    +0.000 C 
ATOM     20  O   UNL     1       6.002   1.070  22.093  0.00  0.00    +0.000 OA
ENDBRANCH  18  20
ENDBRANCH  17  18
ENDBRANCH  15  17
ENDBRANCH   1  15
BRANCH   2  21
ATOM     21  C   UNL     1       2.312   3.670  21.030  0.00  0.00    +0.000 C 
ATOM     22  N   UNL     1       1.869   3.265  22.027  0.00  0.00    +0.000 NA
ENDBRANCH   2  21
TORSDOF 5
ENDMDL
MODEL 9
REMARK VINA RESULT:      -5.6      3.328      6.105
REMARK  Name = 
REMARK  7 active torsions:
REMARK  status: ('A' for Active; 'I' for Inactive)
REMARK    1  A    between atoms: C_1  and  O_2
REMARK    2  A    between atoms: O_2  and  C_3
REMARK    3  A    between atoms: C_3  and  C_4
REMARK    4  A    between atoms: C_4  and  N_5
REMARK    5  A    between atoms: N_5  and  C_6
REMARK    6  A    between atoms: C_7  and  C_8
REMARK    7  A    between atoms: N_18  and  C_19
REMARK                            x       y       z     vdW  Elec       q    Type
REMARK                         _______ _______ _______ _____ _____    ______ ____
ROOT
ATOM      1  C   UNL     1       5.328   6.633  17.158  0.00  0.00    +0.000 A 
ATOM      2  C   UNL     1       5.426   5.282  17.251  0.00  0.00    +0.000 A 
ATOM      3  C   UNL     1       4.264   4.480  17.678  0.00  0.00    +0.000 A 
ATOM      4  C   UNL     1       3.073   5.049  18.008  0.00  0.00    +0.000 A 
ATOM      5  C   UNL     1       2.982   6.475  17.935  0.00  0.00    +0.000 A 
ATOM      6  N   UNL     1       1.988   7.298  18.203  0.00  0.00    +0.000 NA
ATOM      7  N   UNL     1       2.416   8.577  17.945  0.00  0.00    +0.000 NA
ATOM      8  C   UNL     1       3.661   8.504  17.533  0.00  0.00    +0.000 A 
ATOM      9  N   UNL     1       4.086   7.198  17.514  0.00  0.00    +0.000 N 
ATOM     10  C   UNL     1       1.887   4.187  18.424  0.00  0.00    +0.000 C 
ATOM     11  N   UNL     1       2.036   2.755  18.096  0.00  0.00    +0.000 NA
ATOM     12  C   UNL     1       0.966   1.966  18.700  0.00  0.00    +0.000 C 
ATOM     13  C   UNL     1       3.344   2.272  18.540  0.00  0.00    +0.000 C 
ATOM     14  C   UNL     1       4.439   2.974  17.739  0.00  0.00    +0.000 C 
ENDROOT
BRANCH   1  15
ATOM     15  N   UNL     1       6.383   7.451  16.754  0.00  0.00    +0.000 N 
ATOM     16  H   UNL     1       6.580   7.456  15.749  0.00  0.00    +0.000 HD
BRANCH  15  17
ATOM     17  C   UNL     1       7.609   7.635  17.549  0.00  0.00    +0.000 C 
BRANCH  17  18
ATOM     18  C   UNL     1       7.890   9.120  17.813  0.00  0.00    +0.000 C 
BRANCH  18  20
ATOM     19  C   UNL     1       9.440  10.506  18.934  0.00  0.00    +0.000 C 
ATOM     20  O   UNL     1       8.831   9.224  18.886  0.00  0.00    +0.000 OA
ENDBRANCH  18  20
ENDBRANCH  17  18
ENDBRANCH  15  17
ENDBRANCH   1  15
BRANCH   2  21
ATOM     21  C   UNL     1       6.660   4.618  16.981  0.00  0.00    +0.000 C 
ATOM     22  N   UNL     1       7.672   4.124  16.685  0.00  0.00    +0.000 NA
ENDBRANCH   2  21
TORSDOF 5
ENDMDL
