MODEL 1
REMARK VINA RESULT:      -7.4      0.000      0.000
REMARK  Name = 
REMARK  3 active torsions:
REMARK  status: ('A' for Active; 'I' for Inactive)
REMARK    1  A    between atoms: C_3  and  O_4
REMARK    2  A    between atoms: C_5  and  C_6
REMARK    3  A    between atoms: C_11  and  N_12
REMARK                            x       y       z     vdW  Elec       q    Type
REMARK                         _______ _______ _______ _____ _____    ______ ____
ROOT
ATOM      1  O   UNL     1       5.366   4.563  15.023  0.00  0.00    +0.000 OA
ATOM      2  C   UNL     1       5.152   4.779  16.199  0.00  0.00    +0.000 C 
ATOM      3  C   UNL     1       4.094   4.104  16.993  0.00  0.00    +0.000 C 
ATOM      4  C   UNL     1       4.232   4.493  18.274  0.00  0.00    +0.000 C 
ATOM      5  C   UNL     1       5.245   5.586  18.401  0.00  0.00    +0.000 C 
ATOM      6  C   UNL     1       6.464   5.516  19.313  0.00  0.00    +0.000 C 
ATOM      7  C   UNL     1       7.680   5.852  18.426  0.00  0.00    +0.000 C 
ATOM      8  C   UNL     1       7.142   6.103  17.019  0.00  0.00    +0.000 C 
ATOM      9  N   UNL     1       5.797   5.606  17.078  0.00  0.00    +0.000 N 
ENDROOT
BRANCH   4  10
ATOM     10  C   UNL     1       3.302   4.133  19.345  0.00  0.00    +0.000 A 
ATOM     11  C   UNL     1       2.352   5.092  19.721  0.00  0.00    +0.000 A 
ATOM     12  C   UNL     1       1.376   4.806  20.682  0.00  0.00    +0.000 A 
ATOM     13  C   UNL     1       1.322   3.549  21.283  0.00  0.00    +0.000 A 
ATOM     14  C   UNL     1       2.249   2.573  20.926  0.00  0.00    +0.000 A 
ATOM     15  C   UNL     1       3.225   2.870  19.960  0.00  0.00    +0.000 A 
BRANCH  15  16
ATOM     16  N   UNL     1       4.191   1.827  19.655  0.00  0.00    +0.000 N 
ATOM     17  O   UNL     1       5.146   1.700  20.435  0.00  0.00    +0.000 OA
ATOM     18  O   UNL     1       3.947   1.095  18.692  0.00  0.00    +0.000 OA
ENDBRANCH  15  16
ENDBRANCH   4  10
BRANCH   3  19
ATOM     19  O   UNL     1       3.130   3.307  16.451  0.00  0.00    +0.000 OA
ATOM     20  H   UNL     1       3.553   2.894  15.668  0.00  0.00    +0.000 HD
ENDBRANCH   3  19
TORSDOF 3
ENDMDL
MODEL 2
REMARK VINA RESULT:      -7.4      1.604      5.221
REMARK  Name = 
REMARK  3 active torsions:
REMARK  status: ('A' for Active; 'I' for Inactive)
REMARK    1  A    between atoms: C_3  and  O_4
REMARK    2  A    between atoms: C_5  and  C_6
REMARK    3  A    between atoms: C_11  and  N_12
REMARK                            x       y       z     vdW  Elec       q    Type
REMARK                         _______ _______ _______ _____ _____    ______ ____
ROOT
ATOM      1  O   UNL     1       2.718   1.875  17.511  0.00  0.00    +0.000 OA
ATOM      2  C   UNL     1       3.219   2.802  18.117  0.00  0.00    +0.000 C 
ATOM      3  C   UNL     1       4.396   3.572  17.644  0.00  0.00    +0.000 C 
ATOM      4  C   UNL     1       4.589   4.593  18.499  0.00  0.00    +0.000 C 
ATOM      5  C   UNL     1       3.697   4.474  19.694  0.00  0.00    +0.000 C 
ATOM      6  C   UNL     1       2.729   5.560  20.145  0.00  0.00    +0.000 C 
ATOM      7  C   UNL     1       1.357   4.872  20.297  0.00  0.00    +0.000 C 
ATOM      8  C   UNL     1       1.557   3.405  19.924  0.00  0.00    +0.000 C 
ATOM      9  N   UNL     1       2.848   3.389  19.297  0.00  0.00    +0.000 N 
ENDROOT
BRANCH   4  10
ATOM     10  C   UNL     1       5.726   5.512  18.435  0.00  0.00    +0.000 A 
ATOM     11  C   UNL     1       6.786   5.286  19.324  0.00  0.00    +0.000 A 
ATOM     12  C   UNL     1       7.946   6.068  19.281  0.00  0.00    +0.000 A 
ATOM     13  C   UNL     1       8.075   7.089  18.341  0.00  0.00    +0.000 A 
ATOM     14  C   UNL     1       7.042   7.335  17.441  0.00  0.00    +0.000 A 
ATOM     15  C   UNL     1       5.882   6.544  17.491  0.00  0.00    +0.000 A 
BRANCH  15  16
ATOM     16  N   UNL     1       4.819   6.870  16.555  0.00  0.00    +0.000 N 
ATOM     17  O   UNL     1       3.781   7.354  17.028  0.00  0.00    +0.000 OA
ATOM     18  O   UNL     1       5.058   6.718  15.354  0.00  0.00    +0.000 OA
ENDBRANCH  15  16
ENDBRANCH   4  10
BRANCH   3  19
ATOM     19  O   UNL     1       5.158   3.212  16.572  0.00  0.00    +0.000 OA
ATOM     20  H   UNL     1       4.549   2.716  15.984  0.00  0.00    +0.000 HD
ENDBRANCH   3  19
TORSDOF 3
ENDMDL
MODEL 3
REMARK VINA RESULT:      -7.2      1.677      2.679
REMARK  Name = 
REMARK  3 active torsions:
REMARK  status: ('A' for Active; 'I' for Inactive)
REMARK    1  A    between atoms: C_3  and  O_4
REMARK    2  A    between atoms: C_5  and  C_6
REMARK    3  A    between atoms: C_11  and  N_12
REMARK                            x       y       z     vdW  Elec       q    Type
REMARK                         _______ _______ _______ _____ _____    ______ ____
ROOT
ATOM      1  O   UNL     1       8.524   4.589  17.591  0.00  0.00    +0.000 OA
ATOM      2  C   UNL     1       7.318   4.446  17.554  0.00  0.00    +0.000 C 
ATOM      3  C   UNL     1       6.407   4.722  18.694  0.00  0.00    +0.000 C 
ATOM      4  C   UNL     1       5.144   4.578  18.255  0.00  0.00    +0.000 C 
ATOM      5  C   UNL     1       5.114   4.015  16.870  0.00  0.00    +0.000 C 
ATOM      6  C   UNL     1       4.412   4.682  15.694  0.00  0.00    +0.000 C 
ATOM      7  C   UNL     1       5.458   4.765  14.564  0.00  0.00    +0.000 C 
ATOM      8  C   UNL     1       6.745   4.152  15.110  0.00  0.00    +0.000 C 
ATOM      9  N   UNL     1       6.504   4.063  16.523  0.00  0.00    +0.000 N 
ENDROOT
BRANCH   4  10
ATOM     10  C   UNL     1       3.963   4.655  19.115  0.00  0.00    +0.000 A 
ATOM     11  C   UNL     1       3.342   5.905  19.245  0.00  0.00    +0.000 A 
ATOM     12  C   UNL     1       2.164   6.054  19.985  0.00  0.00    +0.000 A 
ATOM     13  C   UNL     1       1.576   4.954  20.609  0.00  0.00    +0.000 A 
ATOM     14  C   UNL     1       2.167   3.698  20.495  0.00  0.00    +0.000 A 
ATOM     15  C   UNL     1       3.349   3.558  19.748  0.00  0.00    +0.000 A 
BRANCH  15  16
ATOM     16  N   UNL     1       3.944   2.233  19.695  0.00  0.00    +0.000 N 
ATOM     17  O   UNL     1       3.536   1.468  18.809  0.00  0.00    +0.000 OA
ATOM     18  O   UNL     1       4.865   1.996  20.481  0.00  0.00    +0.000 OA
ENDBRANCH  15  16
ENDBRANCH   4  10
BRANCH   3  19
ATOM     19  O   UNL     1       6.837   4.989  19.960  0.00  0.00    +0.000 OA
ATOM     20  H   UNL     1       6.554   5.911  20.135  0.00  0.00    +0.000 HD
ENDBRANCH   3  19
TORSDOF 3
ENDMDL
MODEL 4
REMARK VINA RESULT:      -7.1      2.265      5.223
REMARK  Name = 
REMARK  3 active torsions:
REMARK  status: ('A' for Active; 'I' for Inactive)
REMARK    1  A    between atoms: C_3  and  O_4
REMARK    2  A    between atoms: C_5  and  C_6
REMARK    3  A    between atoms: C_11  and  N_12
REMARK                            x       y       z     vdW  Elec       q    Type
REMARK                         _______ _______ _______ _____ _____    ______ ____
ROOT
ATOM      1  O   UNL     1       2.819   3.416  20.384  0.00  0.00    +0.000 OA
ATOM      2  C   UNL     1       3.378   4.136  19.581  0.00  0.00    +0.000 C 
ATOM      3  C   UNL     1       4.163   3.645  18.421  0.00  0.00    +0.000 C 
ATOM      4  C   UNL     1       4.523   4.713  17.686  0.00  0.00    +0.000 C 
ATOM      5  C   UNL     1       4.183   5.990  18.387  0.00  0.00    +0.000 C 
ATOM      6  C   UNL     1       3.318   7.089  17.781  0.00  0.00    +0.000 C 
ATOM      7  C   UNL     1       2.221   7.391  18.822  0.00  0.00    +0.000 C 
ATOM      8  C   UNL     1       2.467   6.456  20.004  0.00  0.00    +0.000 C 
ATOM      9  N   UNL     1       3.409   5.501  19.490  0.00  0.00    +0.000 N 
ENDROOT
BRANCH   4  10
ATOM     10  C   UNL     1       5.407   4.647  16.522  0.00  0.00    +0.000 A 
ATOM     11  C   UNL     1       4.830   4.289  15.296  0.00  0.00    +0.000 A 
ATOM     12  C   UNL     1       5.585   4.275  14.118  0.00  0.00    +0.000 A 
ATOM     13  C   UNL     1       6.934   4.627  14.138  0.00  0.00    +0.000 A 
ATOM     14  C   UNL     1       7.535   4.992  15.340  0.00  0.00    +0.000 A 
ATOM     15  C   UNL     1       6.768   5.004  16.517  0.00  0.00    +0.000 A 
BRANCH  15  16
ATOM     16  N   UNL     1       7.456   5.355  17.749  0.00  0.00    +0.000 N 
ATOM     17  O   UNL     1       7.888   4.420  18.438  0.00  0.00    +0.000 OA
ATOM     18  O   UNL     1       7.630   6.556  17.977  0.00  0.00    +0.000 OA
ENDBRANCH  15  16
ENDBRANCH   4  10
BRANCH   3  19
ATOM     19  O   UNL     1       4.499   2.337  18.231  0.00  0.00    +0.000 OA
ATOM     20  H   UNL     1       5.180   2.149  18.911  0.00  0.00    +0.000 HD
ENDBRANCH   3  19
TORSDOF 3
ENDMDL
MODEL 5
REMARK VINA RESULT:      -7.0      2.500      5.324
REMARK  Name = 
REMARK  3 active torsions:
REMARK  status: ('A' for Active; 'I' for Inactive)
REMARK    1  A    between atoms: C_3  and  O_4
REMARK    2  A    between atoms: C_5  and  C_6
REMARK    3  A    between atoms: C_11  and  N_12
REMARK                            x       y       z     vdW  Elec       q    Type
REMARK                         _______ _______ _______ _____ _____    ______ ____
ROOT
ATOM      1  O   UNL     1       2.257   6.819  19.772  0.00  0.00    +0.000 OA
ATOM      2  C   UNL     1       2.807   5.933  19.148  0.00  0.00    +0.000 C 
ATOM      3  C   UNL     1       3.829   6.162  18.095  0.00  0.00    +0.000 C 
ATOM      4  C   UNL     1       4.306   4.962  17.718  0.00  0.00    +0.000 C 
ATOM      5  C   UNL     1       3.518   3.850  18.333  0.00  0.00    +0.000 C 
ATOM      6  C   UNL     1       4.130   2.738  19.176  0.00  0.00    +0.000 C 
ATOM      7  C   UNL     1       3.319   2.700  20.487  0.00  0.00    +0.000 C 
ATOM      8  C   UNL     1       2.260   3.795  20.380  0.00  0.00    +0.000 C 
ATOM      9  N   UNL     1       2.691   4.574  19.253  0.00  0.00    +0.000 N 
ENDROOT
BRANCH   4  10
ATOM     10  C   UNL     1       5.249   4.764  16.616  0.00  0.00    +0.000 A 
ATOM     11  C   UNL     1       4.724   4.329  15.392  0.00  0.00    +0.000 A 
ATOM     12  C   UNL     1       5.540   4.187  14.264  0.00  0.00    +0.000 A 
ATOM     13  C   UNL     1       6.900   4.485  14.334  0.00  0.00    +0.000 A 
ATOM     14  C   UNL     1       7.451   4.925  15.535  0.00  0.00    +0.000 A 
ATOM     15  C   UNL     1       6.623   5.065  16.661  0.00  0.00    +0.000 A 
BRANCH  15  16
ATOM     16  N   UNL     1       7.257   5.490  17.899  0.00  0.00    +0.000 N 
ATOM     17  O   UNL     1       7.785   4.608  18.591  0.00  0.00    +0.000 OA
ATOM     18  O   UNL     1       7.294   6.702  18.128  0.00  0.00    +0.000 OA
ENDBRANCH  15  16
ENDBRANCH   4  10
BRANCH   3  19
ATOM     19  O   UNL     1       4.129   7.390  17.584  0.00  0.00    +0.000 OA
ATOM     20  H   UNL     1       5.099   7.482  17.697  0.00  0.00    +0.000 HD
ENDBRANCH   3  19
TORSDOF 3
ENDMDL
MODEL 6
REMARK VINA RESULT:      -6.9      1.924      2.657
REMARK  Name = 
REMARK  3 active torsions:
REMARK  status: ('A' for Active; 'I' for Inactive)
REMARK    1  A    between atoms: C_3  and  O_4
REMARK    2  A    between atoms: C_5  and  C_6
REMARK    3  A    between atoms: C_11  and  N_12
REMARK                            x       y       z     vdW  Elec       q    Type
REMARK                         _______ _______ _______ _____ _____    ______ ____
ROOT
ATOM      1  O   UNL     1       8.031   5.390  18.173  0.00  0.00    +0.000 OA
ATOM      2  C   UNL     1       7.027   4.857  17.745  0.00  0.00    +0.000 C 
ATOM      3  C   UNL     1       5.782   4.664  18.532  0.00  0.00    +0.000 C 
ATOM      4  C   UNL     1       4.847   4.162  17.705  0.00  0.00    +0.000 C 
ATOM      5  C   UNL     1       5.437   3.803  16.378  0.00  0.00    +0.000 C 
ATOM      6  C   UNL     1       4.927   4.340  15.046  0.00  0.00    +0.000 C 
ATOM      7  C   UNL     1       6.160   4.912  14.318  0.00  0.00    +0.000 C 
ATOM      8  C   UNL     1       7.355   4.703  15.244  0.00  0.00    +0.000 C 
ATOM      9  N   UNL     1       6.752   4.359  16.501  0.00  0.00    +0.000 N 
ENDROOT
BRANCH   4  10
ATOM     10  C   UNL     1       3.519   3.728  18.137  0.00  0.00    +0.000 A 
ATOM     11  C   UNL     1       2.427   4.514  17.747  0.00  0.00    +0.000 A 
ATOM     12  C   UNL     1       1.115   4.133  18.051  0.00  0.00    +0.000 A 
ATOM     13  C   UNL     1       0.865   2.951  18.746  0.00  0.00    +0.000 A 
ATOM     14  C   UNL     1       1.929   2.145  19.143  0.00  0.00    +0.000 A 
ATOM     15  C   UNL     1       3.242   2.536  18.832  0.00  0.00    +0.000 A 
BRANCH  15  16
ATOM     16  N   UNL     1       4.316   1.677  19.305  0.00  0.00    +0.000 N 
ATOM     17  O   UNL     1       4.872   2.003  20.364  0.00  0.00    +0.000 OA
ATOM     18  O   UNL     1       4.540   0.647  18.663  0.00  0.00    +0.000 OA
ENDBRANCH  15  16
ENDBRANCH   4  10
BRANCH   3  19
ATOM     19  O   UNL     1       5.689   4.896  19.872  0.00  0.00    +0.000 OA
ATOM     20  H   UNL     1       5.295   4.078  20.244  0.00  0.00    +0.000 HD
ENDBRANCH   3  19
TORSDOF 3
ENDMDL
MODEL 7
REMARK VINA RESULT:      -6.8      2.442      3.552
REMARK  Name = 
REMARK  3 active torsions:
REMARK  status: ('A' for Active; 'I' for Inactive)
REMARK    1  A    between atoms: C_3  and  O_4
REMARK    2  A    between atoms: C_5  and  C_6
REMARK    3  A    between atoms: C_11  and  N_12
REMARK                            x       y       z     vdW  Elec       q    Type
REMARK                         _______ _______ _______ _____ _____    ______ ____
ROOT
ATOM      1  O   UNL     1       8.000   5.250  18.306  0.00  0.00    +0.000 OA
ATOM      2  C   UNL     1       6.996   4.758  17.829  0.00  0.00    +0.000 C 
ATOM      3  C   UNL     1       5.740   4.522  18.585  0.00  0.00    +0.000 C 
ATOM      4  C   UNL     1       4.811   4.088  17.713  0.00  0.00    +0.000 C 
ATOM      5  C   UNL     1       5.415   3.818  16.372  0.00  0.00    +0.000 C 
ATOM      6  C   UNL     1       4.927   4.452  15.075  0.00  0.00    +0.000 C 
ATOM      7  C   UNL     1       6.173   5.063  14.404  0.00  0.00    +0.000 C 
ATOM      8  C   UNL     1       7.355   4.777  15.327  0.00  0.00    +0.000 C 
ATOM      9  N   UNL     1       6.733   4.351  16.550  0.00  0.00    +0.000 N 
ENDROOT
BRANCH   4  10
ATOM     10  C   UNL     1       3.474   3.637  18.098  0.00  0.00    +0.000 A 
ATOM     11  C   UNL     1       3.200   2.267  17.986  0.00  0.00    +0.000 A 
ATOM     12  C   UNL     1       1.974   1.738  18.403  0.00  0.00    +0.000 A 
ATOM     13  C   UNL     1       0.995   2.566  18.950  0.00  0.00    +0.000 A 
ATOM     14  C   UNL     1       1.239   3.931  19.079  0.00  0.00    +0.000 A 
ATOM     15  C   UNL     1       2.473   4.453  18.658  0.00  0.00    +0.000 A 
BRANCH  15  16
ATOM     16  N   UNL     1       2.659   5.890  18.780  0.00  0.00    +0.000 N 
ATOM     17  O   UNL     1       2.338   6.583  17.803  0.00  0.00    +0.000 OA
ATOM     18  O   UNL     1       3.043   6.320  19.871  0.00  0.00    +0.000 OA
ENDBRANCH  15  16
ENDBRANCH   4  10
BRANCH   3  19
ATOM     19  O   UNL     1       5.631   4.660  19.937  0.00  0.00    +0.000 OA
ATOM     20  H   UNL     1       5.572   5.626  20.090  0.00  0.00    +0.000 HD
ENDBRANCH   3  19
TORSDOF 3
ENDMDL
MODEL 8
REMARK VINA RESULT:      -6.6      1.637      2.335
REMARK  Name = 
REMARK  3 active torsions:
REMARK  status: ('A' for Active; 'I' for Inactive)
REMARK    1  A    between atoms: C_3  and  O_4
REMARK    2  A    between atoms: C_5  and  C_6
REMARK    3  A    between atoms: C_11  and  N_12
REMARK                            x       y       z     vdW  Elec       q    Type
REMARK                         _______ _______ _______ _____ _____    ______ ____
ROOT
ATOM      1  O   UNL     1       6.060   3.604  15.336  0.00  0.00    +0.000 OA
ATOM      2  C   UNL     1       5.630   3.989  16.406  0.00  0.00    +0.000 C 
ATOM      3  C   UNL     1       4.530   3.326  17.152  0.00  0.00    +0.000 C 
ATOM      4  C   UNL     1       4.411   3.944  18.341  0.00  0.00    +0.000 C 
ATOM      5  C   UNL     1       5.269   5.167  18.403  0.00  0.00    +0.000 C 
ATOM      6  C   UNL     1       6.319   5.417  19.479  0.00  0.00    +0.000 C 
ATOM      7  C   UNL     1       7.624   5.755  18.731  0.00  0.00    +0.000 C 
ATOM      8  C   UNL     1       7.307   5.687  17.239  0.00  0.00    +0.000 C 
ATOM      9  N   UNL     1       6.029   5.033  17.195  0.00  0.00    +0.000 N 
ENDROOT
BRANCH   4  10
ATOM     10  C   UNL     1       3.357   3.653  19.314  0.00  0.00    +0.000 A 
ATOM     11  C   UNL     1       3.711   2.892  20.436  0.00  0.00    +0.000 A 
ATOM     12  C   UNL     1       2.787   2.630  21.454  0.00  0.00    +0.000 A 
ATOM     13  C   UNL     1       1.488   3.131  21.375  0.00  0.00    +0.000 A 
ATOM     14  C   UNL     1       1.108   3.895  20.275  0.00  0.00    +0.000 A 
ATOM     15  C   UNL     1       2.043   4.153  19.259  0.00  0.00    +0.000 A 
BRANCH  15  16
ATOM     16  N   UNL     1       1.581   4.922  18.115  0.00  0.00    +0.000 N 
ATOM     17  O   UNL     1       1.883   6.124  18.086  0.00  0.00    +0.000 OA
ATOM     18  O   UNL     1       0.993   4.307  17.221  0.00  0.00    +0.000 OA
ENDBRANCH  15  16
ENDBRANCH   4  10
BRANCH   3  19
ATOM     19  O   UNL     1       3.759   2.326  16.637  0.00  0.00    +0.000 OA
ATOM     20  H   UNL     1       3.858   1.581  17.266  0.00  0.00    +0.000 HD
ENDBRANCH   3  19
TORSDOF 3
ENDMDL
MODEL 9
REMARK VINA RESULT:      -6.5      2.485      3.061
REMARK  Name = 
REMARK  3 active torsions:
REMARK  status: ('A' for Active; 'I' for Inactive)
REMARK    1  A    between atoms: C_3  and  O_4
REMARK    2  A    between atoms: C_5  and  C_6
REMARK    3  A    between atoms: C_11  and  N_12
REMARK                            x       y       z     vdW  Elec       q    Type
REMARK                         _______ _______ _______ _____ _____    ______ ____
ROOT
ATOM      1  O   UNL     1       7.438   5.786  15.174  0.00  0.00    +0.000 OA
ATOM      2  C   UNL     1       6.688   5.635  16.118  0.00  0.00    +0.000 C 
ATOM      3  C   UNL     1       5.468   4.789  16.089  0.00  0.00    +0.000 C 
ATOM      4  C   UNL     1       4.962   4.756  17.336  0.00  0.00    +0.000 C 
ATOM      5  C   UNL     1       5.676   5.715  18.234  0.00  0.00    +0.000 C 
ATOM      6  C   UNL     1       6.344   5.317  19.544  0.00  0.00    +0.000 C 
ATOM      7  C   UNL     1       7.784   5.865  19.472  0.00  0.00    +0.000 C 
ATOM      8  C   UNL     1       7.923   6.560  18.120  0.00  0.00    +0.000 C 
ATOM      9  N   UNL     1       6.764   6.123  17.394  0.00  0.00    +0.000 N 
ENDROOT
BRANCH   4  10
ATOM     10  C   UNL     1       3.693   4.118  17.688  0.00  0.00    +0.000 A 
ATOM     11  C   UNL     1       3.584   2.739  17.465  0.00  0.00    +0.000 A 
ATOM     12  C   UNL     1       2.436   2.034  17.843  0.00  0.00    +0.000 A 
ATOM     13  C   UNL     1       1.373   2.692  18.461  0.00  0.00    +0.000 A 
ATOM     14  C   UNL     1       1.454   4.061  18.701  0.00  0.00    +0.000 A 
ATOM     15  C   UNL     1       2.611   4.760  18.318  0.00  0.00    +0.000 A 
BRANCH  15  16
ATOM     16  N   UNL     1       2.625   6.194  18.556  0.00  0.00    +0.000 N 
ATOM     17  O   UNL     1       2.401   6.928  17.583  0.00  0.00    +0.000 OA
ATOM     18  O   UNL     1       2.777   6.572  19.721  0.00  0.00    +0.000 OA
ENDBRANCH  15  16
ENDBRANCH   4  10
BRANCH   3  19
ATOM     19  O   UNL     1       4.954   4.238  14.953  0.00  0.00    +0.000 OA
ATOM     20  H   UNL     1       4.023   4.545  14.920  0.00  0.00    +0.000 HD
ENDBRANCH   3  19
TORSDOF 3
ENDMDL
