MODEL 1
REMARK VINA RESULT:      -6.4      0.000      0.000
REMARK  Name = 
REMARK  3 active torsions:
REMARK  status: ('A' for Active; 'I' for Inactive)
REMARK    1  A    between atoms: C_2  and  C_3
REMARK    2  A    between atoms: C_3  and  N_4
REMARK    3  A    between atoms: C_5  and  C_6
REMARK                            x       y       z     vdW  Elec       q    Type
REMARK                         _______ _______ _______ _____ _____    ______ ____
ROOT
ATOM      1  N   UNL     1       4.273   3.857  17.425  0.00  0.00    +0.000 N 
ATOM      2  C   UNL     1       4.578   4.056  18.789  0.00  0.00    +0.000 A 
ATOM      3  N   UNL     1       5.682   4.605  19.196  0.00  0.00    +0.000 NA
ATOM      4  C   UNL     1       6.625   5.091  18.331  0.00  0.00    +0.000 A 
ATOM      5  S   UNL     1       7.924   5.983  18.965  0.00  0.00    +0.000 S 
ATOM      6  C   UNL     1       6.417   4.833  16.864  0.00  0.00    +0.000 A 
ATOM      7  C   UNL     1       5.251   4.258  16.478  0.00  0.00    +0.000 A 
ATOM      8  C   UNL     1       4.987   4.040  14.987  0.00  0.00    +0.000 C 
ATOM      9  C   UNL     1       5.916   4.806  14.042  0.00  0.00    +0.000 C 
ATOM     10  C   UNL     1       7.355   4.698  14.501  0.00  0.00    +0.000 C 
ATOM     11  C   UNL     1       7.495   5.274  15.905  0.00  0.00    +0.000 C 
ENDROOT
BRANCH   2  12
ATOM     12  C   UNL     1       3.642   3.719  19.932  0.00  0.00    +0.000 A 
ATOM     13  C   UNL     1       3.723   2.538  20.672  0.00  0.00    +0.000 A 
ATOM     14  C   UNL     1       2.774   2.247  21.656  0.00  0.00    +0.000 A 
ATOM     15  C   UNL     1       1.779   3.171  21.965  0.00  0.00    +0.000 A 
ATOM     16  C   UNL     1       1.740   4.393  21.300  0.00  0.00    +0.000 A 
ATOM     17  C   UNL     1       2.661   4.662  20.283  0.00  0.00    +0.000 A 
ENDBRANCH   2  12
BRANCH   1  18
ATOM     18  C   UNL     1       2.892   3.536  17.004  0.00  0.00    +0.000 C 
BRANCH  18  20
ATOM     19  C   UNL     1       1.248   1.993  18.267  0.00  0.00    +0.000 C 
ATOM     20  C   UNL     1       2.352   2.230  17.543  0.00  0.00    +0.000 C 
ENDBRANCH  18  20
ENDBRANCH   1  18
TORSDOF 3
ENDMDL
MODEL 2
REMARK VINA RESULT:      -6.4      4.015      6.704
REMARK  Name = 
REMARK  3 active torsions:
REMARK  status: ('A' for Active; 'I' for Inactive)
REMARK    1  A    between atoms: C_2  and  C_3
REMARK    2  A    between atoms: C_3  and  N_4
REMARK    3  A    between atoms: C_5  and  C_6
REMARK                            x       y       z     vdW  Elec       q    Type
REMARK                         _______ _______ _______ _____ _____    ______ ____
ROOT
ATOM      1  N   UNL     1       1.895   7.036  19.967  0.00  0.00    +0.000 N 
ATOM      2  C   UNL     1       2.492   7.214  18.700  0.00  0.00    +0.000 A 
ATOM      3  N   UNL     1       2.487   8.348  18.067  0.00  0.00    +0.000 NA
ATOM      4  C   UNL     1       1.948   9.487  18.600  0.00  0.00    +0.000 A 
ATOM      5  S   UNL     1       2.188  10.957  17.786  0.00  0.00    +0.000 S 
ATOM      6  C   UNL     1       1.210   9.358  19.905  0.00  0.00    +0.000 A 
ATOM      7  C   UNL     1       1.239   8.159  20.537  0.00  0.00    +0.000 A 
ATOM      8  C   UNL     1       0.549   8.017  21.894  0.00  0.00    +0.000 C 
ATOM      9  C   UNL     1       0.182   9.335  22.580  0.00  0.00    +0.000 C 
ATOM     10  C   UNL     1      -0.449  10.294  21.594  0.00  0.00    +0.000 C 
ATOM     11  C   UNL     1       0.524  10.584  20.458  0.00  0.00    +0.000 C 
ENDROOT
BRANCH   2  12
ATOM     12  C   UNL     1       3.261   6.139  17.958  0.00  0.00    +0.000 A 
ATOM     13  C   UNL     1       2.726   4.890  17.642  0.00  0.00    +0.000 A 
ATOM     14  C   UNL     1       3.516   3.909  17.035  0.00  0.00    +0.000 A 
ATOM     15  C   UNL     1       4.828   4.196  16.667  0.00  0.00    +0.000 A 
ATOM     16  C   UNL     1       5.347   5.467  16.892  0.00  0.00    +0.000 A 
ATOM     17  C   UNL     1       4.571   6.431  17.543  0.00  0.00    +0.000 A 
ENDBRANCH   2  12
BRANCH   1  18
ATOM     18  C   UNL     1       2.204   5.841  20.781  0.00  0.00    +0.000 C 
BRANCH  18  20
ATOM     19  C   UNL     1       1.384   3.391  20.833  0.00  0.00    +0.000 C 
ATOM     20  C   UNL     1       1.211   4.708  20.647  0.00  0.00    +0.000 C 
ENDBRANCH  18  20
ENDBRANCH   1  18
TORSDOF 3
ENDMDL
MODEL 3
REMARK VINA RESULT:      -6.3      3.985      6.693
REMARK  Name = 
REMARK  3 active torsions:
REMARK  status: ('A' for Active; 'I' for Inactive)
REMARK    1  A    between atoms: C_2  and  C_3
REMARK    2  A    between atoms: C_3  and  N_4
REMARK    3  A    between atoms: C_5  and  C_6
REMARK                            x       y       z     vdW  Elec       q    Type
REMARK                         _______ _______ _______ _____ _____    ______ ____
ROOT
ATOM      1  N   UNL     1       1.883   6.995  19.986  0.00  0.00    +0.000 N 
ATOM      2  C   UNL     1       2.499   7.164  18.726  0.00  0.00    +0.000 A 
ATOM      3  N   UNL     1       2.493   8.291  18.080  0.00  0.00    +0.000 NA
ATOM      4  C   UNL     1       1.933   9.430  18.590  0.00  0.00    +0.000 A 
ATOM      5  S   UNL     1       2.171  10.893  17.762  0.00  0.00    +0.000 S 
ATOM      6  C   UNL     1       1.175   9.309  19.884  0.00  0.00    +0.000 A 
ATOM      7  C   UNL     1       1.206   8.118  20.531  0.00  0.00    +0.000 A 
ATOM      8  C   UNL     1       0.495   7.984  21.878  0.00  0.00    +0.000 C 
ATOM      9  C   UNL     1       0.103   9.307  22.542  0.00  0.00    +0.000 C 
ATOM     10  C   UNL     1      -0.522  10.247  21.534  0.00  0.00    +0.000 C 
ATOM     11  C   UNL     1       0.467  10.533  20.410  0.00  0.00    +0.000 C 
ENDROOT
BRANCH   2  12
ATOM     12  C   UNL     1       3.291   6.089  18.011  0.00  0.00    +0.000 A 
ATOM     13  C   UNL     1       4.642   6.215  17.686  0.00  0.00    +0.000 A 
ATOM     14  C   UNL     1       5.293   5.222  16.946  0.00  0.00    +0.000 A 
ATOM     15  C   UNL     1       4.617   4.057  16.592  0.00  0.00    +0.000 A 
ATOM     16  C   UNL     1       3.296   3.876  16.988  0.00  0.00    +0.000 A 
ATOM     17  C   UNL     1       2.633   4.890  17.686  0.00  0.00    +0.000 A 
ENDBRANCH   2  12
BRANCH   1  18
ATOM     18  C   UNL     1       2.191   5.813  20.819  0.00  0.00    +0.000 C 
BRANCH  18  20
ATOM     19  C   UNL     1       1.407   3.353  20.914  0.00  0.00    +0.000 C 
ATOM     20  C   UNL     1       1.227   4.658  20.663  0.00  0.00    +0.000 C 
ENDBRANCH  18  20
ENDBRANCH   1  18
TORSDOF 3
ENDMDL
MODEL 4
REMARK VINA RESULT:      -6.2      2.304      6.450
REMARK  Name = 
REMARK  3 active torsions:
REMARK  status: ('A' for Active; 'I' for Inactive)
REMARK    1  A    between atoms: C_2  and  C_3
REMARK    2  A    between atoms: C_3  and  N_4
REMARK    3  A    between atoms: C_5  and  C_6
REMARK                            x       y       z     vdW  Elec       q    Type
REMARK                         _______ _______ _______ _____ _____    ______ ____
ROOT
ATOM      1  N   UNL     1       4.516   5.705  17.071  0.00  0.00    +0.000 N 
ATOM      2  C   UNL     1       4.753   4.504  16.367  0.00  0.00    +0.000 A 
ATOM      3  N   UNL     1       4.198   3.374  16.687  0.00  0.00    +0.000 NA
ATOM      4  C   UNL     1       3.289   3.261  17.704  0.00  0.00    +0.000 A 
ATOM      5  S   UNL     1       2.464   1.789  17.894  0.00  0.00    +0.000 S 
ATOM      6  C   UNL     1       3.055   4.475  18.560  0.00  0.00    +0.000 A 
ATOM      7  C   UNL     1       3.650   5.637  18.194  0.00  0.00    +0.000 A 
ATOM      8  C   UNL     1       3.380   6.901  19.012  0.00  0.00    +0.000 C 
ATOM      9  C   UNL     1       2.188   6.816  19.968  0.00  0.00    +0.000 C 
ATOM     10  C   UNL     1       2.201   5.506  20.726  0.00  0.00    +0.000 C 
ATOM     11  C   UNL     1       2.132   4.341  19.746  0.00  0.00    +0.000 C 
ENDROOT
BRANCH   2  12
ATOM     12  C   UNL     1       5.620   4.395  15.129  0.00  0.00    +0.000 A 
ATOM     13  C   UNL     1       6.943   4.837  15.074  0.00  0.00    +0.000 A 
ATOM     14  C   UNL     1       7.661   4.789  13.875  0.00  0.00    +0.000 A 
ATOM     15  C   UNL     1       7.087   4.227  12.738  0.00  0.00    +0.000 A 
ATOM     16  C   UNL     1       5.801   3.699  12.801  0.00  0.00    +0.000 A 
ATOM     17  C   UNL     1       5.068   3.791  13.987  0.00  0.00    +0.000 A 
ENDBRANCH   2  12
BRANCH   1  18
ATOM     18  C   UNL     1       4.903   7.006  16.486  0.00  0.00    +0.000 C 
BRANCH  18  20
ATOM     19  C   UNL     1       7.218   7.048  17.632  0.00  0.00    +0.000 C 
ATOM     20  C   UNL     1       6.140   7.633  17.090  0.00  0.00    +0.000 C 
ENDBRANCH  18  20
ENDBRANCH   1  18
TORSDOF 3
ENDMDL
MODEL 5
REMARK VINA RESULT:      -6.2      2.232      5.603
REMARK  Name = 
REMARK  3 active torsions:
REMARK  status: ('A' for Active; 'I' for Inactive)
REMARK    1  A    between atoms: C_2  and  C_3
REMARK    2  A    between atoms: C_3  and  N_4
REMARK    3  A    between atoms: C_5  and  C_6
REMARK                            x       y       z     vdW  Elec       q    Type
REMARK                         _______ _______ _______ _____ _____    ______ ____
ROOT
ATOM      1  N   UNL     1       4.276   4.195  18.008  0.00  0.00    +0.000 N 
ATOM      2  C   UNL     1       4.554   5.477  18.531  0.00  0.00    +0.000 A 
ATOM      3  N   UNL     1       3.753   6.101  19.340  0.00  0.00    +0.000 NA
ATOM      4  C   UNL     1       2.590   5.546  19.801  0.00  0.00    +0.000 A 
ATOM      5  S   UNL     1       1.731   6.356  21.020  0.00  0.00    +0.000 S 
ATOM      6  C   UNL     1       2.178   4.222  19.217  0.00  0.00    +0.000 A 
ATOM      7  C   UNL     1       3.041   3.599  18.377  0.00  0.00    +0.000 A 
ATOM      8  C   UNL     1       2.674   2.224  17.818  0.00  0.00    +0.000 C 
ATOM      9  C   UNL     1       1.517   1.519  18.529  0.00  0.00    +0.000 C 
ATOM     10  C   UNL     1       0.374   2.480  18.776  0.00  0.00    +0.000 C 
ATOM     11  C   UNL     1       0.851   3.641  19.640  0.00  0.00    +0.000 C 
ENDROOT
BRANCH   2  12
ATOM     12  C   UNL     1       5.833   6.248  18.271  0.00  0.00    +0.000 A 
ATOM     13  C   UNL     1       7.041   5.972  18.912  0.00  0.00    +0.000 A 
ATOM     14  C   UNL     1       8.164   6.777  18.693  0.00  0.00    +0.000 A 
ATOM     15  C   UNL     1       8.109   7.819  17.771  0.00  0.00    +0.000 A 
ATOM     16  C   UNL     1       6.937   8.049  17.056  0.00  0.00    +0.000 A 
ATOM     17  C   UNL     1       5.803   7.273  17.311  0.00  0.00    +0.000 A 
ENDBRANCH   2  12
BRANCH   1  18
ATOM     18  C   UNL     1       5.344   3.399  17.366  0.00  0.00    +0.000 C 
BRANCH  18  20
ATOM     19  C   UNL     1       6.601   4.277  15.287  0.00  0.00    +0.000 C 
ATOM     20  C   UNL     1       5.561   3.693  15.899  0.00  0.00    +0.000 C 
ENDBRANCH  18  20
ENDBRANCH   1  18
TORSDOF 3
ENDMDL
MODEL 6
REMARK VINA RESULT:      -6.1      2.232      5.687
REMARK  Name = 
REMARK  3 active torsions:
REMARK  status: ('A' for Active; 'I' for Inactive)
REMARK    1  A    between atoms: C_2  and  C_3
REMARK    2  A    between atoms: C_3  and  N_4
REMARK    3  A    between atoms: C_5  and  C_6
REMARK                            x       y       z     vdW  Elec       q    Type
REMARK                         _______ _______ _______ _____ _____    ______ ____
ROOT
ATOM      1  N   UNL     1       4.232   4.202  18.007  0.00  0.00    +0.000 N 
ATOM      2  C   UNL     1       4.485   5.494  18.519  0.00  0.00    +0.000 A 
ATOM      3  N   UNL     1       3.673   6.110  19.324  0.00  0.00    +0.000 NA
ATOM      4  C   UNL     1       2.523   5.535  19.792  0.00  0.00    +0.000 A 
ATOM      5  S   UNL     1       1.649   6.339  21.006  0.00  0.00    +0.000 S 
ATOM      6  C   UNL     1       2.136   4.198  19.221  0.00  0.00    +0.000 A 
ATOM      7  C   UNL     1       3.009   3.585  18.385  0.00  0.00    +0.000 A 
ATOM      8  C   UNL     1       2.668   2.199  17.838  0.00  0.00    +0.000 C 
ATOM      9  C   UNL     1       1.526   1.477  18.558  0.00  0.00    +0.000 C 
ATOM     10  C   UNL     1       0.365   2.418  18.797  0.00  0.00    +0.000 C 
ATOM     11  C   UNL     1       0.820   3.596  19.651  0.00  0.00    +0.000 C 
ENDROOT
BRANCH   2  12
ATOM     12  C   UNL     1       5.748   6.287  18.250  0.00  0.00    +0.000 A 
ATOM     13  C   UNL     1       5.817   7.339  17.336  0.00  0.00    +0.000 A 
ATOM     14  C   UNL     1       7.034   7.973  17.069  0.00  0.00    +0.000 A 
ATOM     15  C   UNL     1       8.181   7.611  17.772  0.00  0.00    +0.000 A 
ATOM     16  C   UNL     1       8.109   6.627  18.753  0.00  0.00    +0.000 A 
ATOM     17  C   UNL     1       6.901   5.962  18.984  0.00  0.00    +0.000 A 
ENDBRANCH   2  12
BRANCH   1  18
ATOM     18  C   UNL     1       5.314   3.422  17.371  0.00  0.00    +0.000 C 
BRANCH  18  20
ATOM     19  C   UNL     1       6.617   4.305  15.323  0.00  0.00    +0.000 C 
ATOM     20  C   UNL     1       5.553   3.741  15.912  0.00  0.00    +0.000 C 
ENDBRANCH  18  20
ENDBRANCH   1  18
TORSDOF 3
ENDMDL
MODEL 7
REMARK VINA RESULT:      -6.0      4.693      6.216
REMARK  Name = 
REMARK  3 active torsions:
REMARK  status: ('A' for Active; 'I' for Inactive)
REMARK    1  A    between atoms: C_2  and  C_3
REMARK    2  A    between atoms: C_3  and  N_4
REMARK    3  A    between atoms: C_5  and  C_6
REMARK                            x       y       z     vdW  Elec       q    Type
REMARK                         _______ _______ _______ _____ _____    ______ ____
ROOT
ATOM      1  N   UNL     1       2.103   7.721  19.076  0.00  0.00    +0.000 N 
ATOM      2  C   UNL     1       1.772   6.888  20.167  0.00  0.00    +0.000 A 
ATOM      3  N   UNL     1       1.144   7.316  21.221  0.00  0.00    +0.000 NA
ATOM      4  C   UNL     1       0.698   8.604  21.341  0.00  0.00    +0.000 A 
ATOM      5  S   UNL     1      -0.298   8.999  22.657  0.00  0.00    +0.000 S 
ATOM      6  C   UNL     1       1.093   9.575  20.262  0.00  0.00    +0.000 A 
ATOM      7  C   UNL     1       1.747   9.092  19.177  0.00  0.00    +0.000 A 
ATOM      8  C   UNL     1       2.106  10.046  18.038  0.00  0.00    +0.000 C 
ATOM      9  C   UNL     1       1.390  11.399  18.071  0.00  0.00    +0.000 C 
ATOM     10  C   UNL     1       1.398  11.976  19.470  0.00  0.00    +0.000 C 
ATOM     11  C   UNL     1       0.695  11.022  20.428  0.00  0.00    +0.000 C 
ENDROOT
BRANCH   2  12
ATOM     12  C   UNL     1       2.044   5.398  20.219  0.00  0.00    +0.000 A 
ATOM     13  C   UNL     1       3.321   4.844  20.110  0.00  0.00    +0.000 A 
ATOM     14  C   UNL     1       3.496   3.458  20.076  0.00  0.00    +0.000 A 
ATOM     15  C   UNL     1       2.401   2.610  20.230  0.00  0.00    +0.000 A 
ATOM     16  C   UNL     1       1.134   3.147  20.432  0.00  0.00    +0.000 A 
ATOM     17  C   UNL     1       0.955   4.533  20.418  0.00  0.00    +0.000 A 
ENDBRANCH   2  12
BRANCH   1  18
ATOM     18  C   UNL     1       2.516   7.135  17.783  0.00  0.00    +0.000 C 
BRANCH  18  20
ATOM     19  C   UNL     1       4.703   6.614  16.511  0.00  0.00    +0.000 C 
ATOM     20  C   UNL     1       4.010   7.098  17.551  0.00  0.00    +0.000 C 
ENDBRANCH  18  20
ENDBRANCH   1  18
TORSDOF 3
ENDMDL
MODEL 8
REMARK VINA RESULT:      -6.0      3.902      5.293
REMARK  Name = 
REMARK  3 active torsions:
REMARK  status: ('A' for Active; 'I' for Inactive)
REMARK    1  A    between atoms: C_2  and  C_3
REMARK    2  A    between atoms: C_3  and  N_4
REMARK    3  A    between atoms: C_5  and  C_6
REMARK                            x       y       z     vdW  Elec       q    Type
REMARK                         _______ _______ _______ _____ _____    ______ ____
ROOT
ATOM      1  N   UNL     1       2.467   6.661  19.163  0.00  0.00    +0.000 N 
ATOM      2  C   UNL     1       1.789   6.523  20.394  0.00  0.00    +0.000 A 
ATOM      3  N   UNL     1       1.686   5.392  21.023  0.00  0.00    +0.000 NA
ATOM      4  C   UNL     1       2.276   4.242  20.574  0.00  0.00    +0.000 A 
ATOM      5  S   UNL     1       2.262   2.875  21.581  0.00  0.00    +0.000 S 
ATOM      6  C   UNL     1       2.937   4.286  19.223  0.00  0.00    +0.000 A 
ATOM      7  C   UNL     1       3.027   5.486  18.597  0.00  0.00    +0.000 A 
ATOM      8  C   UNL     1       3.748   5.570  17.251  0.00  0.00    +0.000 C 
ATOM      9  C   UNL     1       4.606   4.354  16.895  0.00  0.00    +0.000 C 
ATOM     10  C   UNL     1       3.862   3.069  17.188  0.00  0.00    +0.000 C 
ATOM     11  C   UNL     1       3.505   3.003  18.668  0.00  0.00    +0.000 C 
ENDROOT
BRANCH   2  12
ATOM     12  C   UNL     1       1.161   7.671  21.158  0.00  0.00    +0.000 A 
ATOM     13  C   UNL     1       1.899   8.616  21.873  0.00  0.00    +0.000 A 
ATOM     14  C   UNL     1       1.255   9.599  22.629  0.00  0.00    +0.000 A 
ATOM     15  C   UNL     1      -0.135   9.696  22.615  0.00  0.00    +0.000 A 
ATOM     16  C   UNL     1      -0.881   8.819  21.834  0.00  0.00    +0.000 A 
ATOM     17  C   UNL     1      -0.237   7.807  21.116  0.00  0.00    +0.000 A 
ENDBRANCH   2  12
BRANCH   1  18
ATOM     18  C   UNL     1       2.836   8.000  18.656  0.00  0.00    +0.000 C 
BRANCH  18  20
ATOM     19  C   UNL     1       0.941   9.655  18.068  0.00  0.00    +0.000 C 
ATOM     20  C   UNL     1       1.791   8.658  17.783  0.00  0.00    +0.000 C 
ENDBRANCH  18  20
ENDBRANCH   1  18
TORSDOF 3
ENDMDL
MODEL 9
REMARK VINA RESULT:      -6.0      3.913      5.323
REMARK  Name = 
REMARK  3 active torsions:
REMARK  status: ('A' for Active; 'I' for Inactive)
REMARK    1  A    between atoms: C_2  and  C_3
REMARK    2  A    between atoms: C_3  and  N_4
REMARK    3  A    between atoms: C_5  and  C_6
REMARK                            x       y       z     vdW  Elec       q    Type
REMARK                         _______ _______ _______ _____ _____    ______ ____
ROOT
ATOM      1  N   UNL     1       2.465   6.650  19.144  0.00  0.00    +0.000 N 
ATOM      2  C   UNL     1       1.765   6.511  20.363  0.00  0.00    +0.000 A 
ATOM      3  N   UNL     1       1.669   5.383  21.000  0.00  0.00    +0.000 NA
ATOM      4  C   UNL     1       2.285   4.239  20.572  0.00  0.00    +0.000 A 
ATOM      5  S   UNL     1       2.275   2.881  21.590  0.00  0.00    +0.000 S 
ATOM      6  C   UNL     1       2.972   4.284  19.234  0.00  0.00    +0.000 A 
ATOM      7  C   UNL     1       3.054   5.479  18.599  0.00  0.00    +0.000 A 
ATOM      8  C   UNL     1       3.800   5.564  17.267  0.00  0.00    +0.000 C 
ATOM      9  C   UNL     1       4.684   4.359  16.937  0.00  0.00    +0.000 C 
ATOM     10  C   UNL     1       3.956   3.064  17.227  0.00  0.00    +0.000 C 
ATOM     11  C   UNL     1       3.571   3.005  18.700  0.00  0.00    +0.000 C 
ENDROOT
BRANCH   2  12
ATOM     12  C   UNL     1       1.104   7.655  21.105  0.00  0.00    +0.000 A 
ATOM     13  C   UNL     1      -0.268   7.907  21.067  0.00  0.00    +0.000 A 
ATOM     14  C   UNL     1      -0.804   9.032  21.701  0.00  0.00    +0.000 A 
ATOM     15  C   UNL     1       0.019   9.874  22.446  0.00  0.00    +0.000 A 
ATOM     16  C   UNL     1       1.374   9.584  22.570  0.00  0.00    +0.000 A 
ATOM     17  C   UNL     1       1.916   8.487  21.895  0.00  0.00    +0.000 A 
ENDBRANCH   2  12
BRANCH   1  18
ATOM     18  C   UNL     1       2.822   7.991  18.633  0.00  0.00    +0.000 C 
BRANCH  18  20
ATOM     19  C   UNL     1       0.983   9.710  18.052  0.00  0.00    +0.000 C 
ATOM     20  C   UNL     1       1.759   8.650  17.783  0.00  0.00    +0.000 C 
ENDBRANCH  18  20
ENDBRANCH   1  18
TORSDOF 3
ENDMDL
