MODEL 1
REMARK VINA RESULT:      -7.6      0.000      0.000
REMARK  Name = 
REMARK  9 active torsions:
REMARK  status: ('A' for Active; 'I' for Inactive)
REMARK    1  A    between atoms: C_1  and  C_2
REMARK    2  A    between atoms: C_5  and  C_6
REMARK    3  A    between atoms: C_6  and  N_7
REMARK    4  A    between atoms: C_6  and  C_18
REMARK    5  A    between atoms: C_8  and  C_10
REMARK    6  A    between atoms: C_10  and  C_11
REMARK    7  A    between atoms: C_11  and  C_12
REMARK    8  A    between atoms: C_18  and  C_19
REMARK    9  A    between atoms: C_18  and  C_20
REMARK                            x       y       z     vdW  Elec       q    Type
REMARK                         _______ _______ _______ _____ _____    ______ ____
ROOT
ATOM      1  N   UNL     1       7.074   7.070  16.974  0.00  0.00    +0.000 N 
ATOM      2  C   UNL     1       7.865   7.585  17.970  0.00  0.00    +0.000 C 
ATOM      3  O   UNL     1       8.289   6.912  18.904  0.00  0.00    +0.000 OA
ATOM      4  H   UNL     1       6.887   7.615  16.140  0.00  0.00    +0.000 HD
ENDROOT
BRANCH   1   5
ATOM      5  C   UNL     1       6.683   5.668  16.931  0.00  0.00    +0.000 C 
BRANCH   5  10
ATOM      6  C   UNL     1       5.726   3.380  12.609  0.00  0.00    +0.000 C 
ATOM      7  C   UNL     1       6.397   4.239  13.605  0.00  0.00    +0.000 A 
ATOM      8  N   UNL     1       7.503   4.937  13.457  0.00  0.00    +0.000 NA
ATOM      9  N   UNL     1       7.778   5.560  14.653  0.00  0.00    +0.000 NA
ATOM     10  C   UNL     1       6.825   5.240  15.505  0.00  0.00    +0.000 A 
ATOM     11  N   UNL     1       5.936   4.406  14.882  0.00  0.00    +0.000 N 
ATOM     12  H   UNL     1       5.111   3.990  15.288  0.00  0.00    +0.000 HD
ENDBRANCH   5  10
BRANCH   5  13
ATOM     13  C   UNL     1       5.238   5.464  17.453  0.00  0.00    +0.000 C 
ATOM     14  C   UNL     1       5.226   5.118  18.949  0.00  0.00    +0.000 C 
ATOM     15  C   UNL     1       4.378   6.715  17.236  0.00  0.00    +0.000 C 
ENDBRANCH   5  13
ENDBRANCH   1   5
BRANCH   2  16
ATOM     16  C   UNL     1       8.188   9.060  17.829  0.00  0.00    +0.000 C 
BRANCH  16  17
ATOM     17  C   UNL     1       9.021   9.558  19.007  0.00  0.00    +0.000 C 
BRANCH  17  18
ATOM     18  C   UNL     1       9.570  10.940  18.789  0.00  0.00    +0.000 A 
ATOM     19  C   UNL     1      10.407  11.231  17.707  0.00  0.00    +0.000 A 
ATOM     20  C   UNL     1      10.867  12.530  17.518  0.00  0.00    +0.000 A 
ATOM     21  C   UNL     1      10.483  13.502  18.427  0.00  0.00    +0.000 A 
ATOM     22  N   UNL     1       9.694  13.257  19.496  0.00  0.00    +0.000 NA
ATOM     23  C   UNL     1       9.259  11.987  19.653  0.00  0.00    +0.000 A 
ENDBRANCH  17  18
ENDBRANCH  16  17
ENDBRANCH   2  16
TORSDOF 6
ENDMDL
MODEL 2
REMARK VINA RESULT:      -7.5      3.674      7.289
REMARK  Name = 
REMARK  9 active torsions:
REMARK  status: ('A' for Active; 'I' for Inactive)
REMARK    1  A    between atoms: C_1  and  C_2
REMARK    2  A    between atoms: C_5  and  C_6
REMARK    3  A    between atoms: C_6  and  N_7
REMARK    4  A    between atoms: C_6  and  C_18
REMARK    5  A    between atoms: C_8  and  C_10
REMARK    6  A    between atoms: C_10  and  C_11
REMARK    7  A    between atoms: C_11  and  C_12
REMARK    8  A    between atoms: C_18  and  C_19
REMARK    9  A    between atoms: C_18  and  C_20
REMARK                            x       y       z     vdW  Elec       q    Type
REMARK                         _______ _______ _______ _____ _____    ______ ____
ROOT
ATOM      1  N   UNL     1       4.678   5.782  17.540  0.00  0.00    +0.000 N 
ATOM      2  C   UNL     1       3.589   6.605  17.682  0.00  0.00    +0.000 C 
ATOM      3  O   UNL     1       3.658   7.828  17.597  0.00  0.00    +0.000 OA
ATOM      4  H   UNL     1       4.550   4.780  17.450  0.00  0.00    +0.000 HD
ENDROOT
BRANCH   1   5
ATOM      5  C   UNL     1       6.013   6.291  17.261  0.00  0.00    +0.000 C 
BRANCH   5  10
ATOM      6  C   UNL     1       5.817   3.575  13.088  0.00  0.00    +0.000 C 
ATOM      7  C   UNL     1       6.339   4.483  14.129  0.00  0.00    +0.000 A 
ATOM      8  N   UNL     1       7.528   5.043  14.192  0.00  0.00    +0.000 NA
ATOM      9  N   UNL     1       7.591   5.783  15.349  0.00  0.00    +0.000 NA
ATOM     10  C   UNL     1       6.432   5.672  15.966  0.00  0.00    +0.000 A 
ATOM     11  N   UNL     1       5.615   4.858  15.227  0.00  0.00    +0.000 N 
ATOM     12  H   UNL     1       4.672   4.582  15.455  0.00  0.00    +0.000 HD
ENDBRANCH   5  10
BRANCH   5  13
ATOM     13  C   UNL     1       7.002   5.957  18.407  0.00  0.00    +0.000 C 
ATOM     14  C   UNL     1       7.703   4.613  18.168  0.00  0.00    +0.000 C 
ATOM     15  C   UNL     1       8.073   7.044  18.562  0.00  0.00    +0.000 C 
ENDBRANCH   5  13
ENDBRANCH   1   5
BRANCH   2  16
ATOM     16  C   UNL     1       2.278   5.889  17.942  0.00  0.00    +0.000 C 
BRANCH  16  17
ATOM     17  C   UNL     1       2.450   4.375  17.866  0.00  0.00    +0.000 C 
BRANCH  17  18
ATOM     18  C   UNL     1       2.380   3.712  19.213  0.00  0.00    +0.000 A 
ATOM     19  C   UNL     1       1.188   3.664  19.943  0.00  0.00    +0.000 A 
ATOM     20  C   UNL     1       1.154   3.012  21.171  0.00  0.00    +0.000 A 
ATOM     21  C   UNL     1       2.322   2.432  21.639  0.00  0.00    +0.000 A 
ATOM     22  N   UNL     1       3.497   2.474  20.976  0.00  0.00    +0.000 NA
ATOM     23  C   UNL     1       3.501   3.113  19.784  0.00  0.00    +0.000 A 
ENDBRANCH  17  18
ENDBRANCH  16  17
ENDBRANCH   2  16
TORSDOF 6
ENDMDL
MODEL 3
REMARK VINA RESULT:      -7.4      1.171      1.521
REMARK  Name = 
REMARK  9 active torsions:
REMARK  status: ('A' for Active; 'I' for Inactive)
REMARK    1  A    between atoms: C_1  and  C_2
REMARK    2  A    between atoms: C_5  and  C_6
REMARK    3  A    between atoms: C_6  and  N_7
REMARK    4  A    between atoms: C_6  and  C_18
REMARK    5  A    between atoms: C_8  and  C_10
REMARK    6  A    between atoms: C_10  and  C_11
REMARK    7  A    between atoms: C_11  and  C_12
REMARK    8  A    between atoms: C_18  and  C_19
REMARK    9  A    between atoms: C_18  and  C_20
REMARK                            x       y       z     vdW  Elec       q    Type
REMARK                         _______ _______ _______ _____ _____    ______ ____
ROOT
ATOM      1  N   UNL     1       6.805   6.289  17.278  0.00  0.00    +0.000 N 
ATOM      2  C   UNL     1       7.632   6.185  18.368  0.00  0.00    +0.000 C 
ATOM      3  O   UNL     1       7.762   5.149  19.014  0.00  0.00    +0.000 OA
ATOM      4  H   UNL     1       6.855   7.105  16.678  0.00  0.00    +0.000 HD
ENDROOT
BRANCH   1   5
ATOM      5  C   UNL     1       6.018   5.169  16.783  0.00  0.00    +0.000 C 
BRANCH   5  10
ATOM      6  C   UNL     1       6.171   3.296  12.168  0.00  0.00    +0.000 C 
ATOM      7  C   UNL     1       6.507   4.133  13.338  0.00  0.00    +0.000 A 
ATOM      8  N   UNL     1       7.463   5.032  13.441  0.00  0.00    +0.000 NA
ATOM      9  N   UNL     1       7.432   5.542  14.718  0.00  0.00    +0.000 NA
ATOM     10  C   UNL     1       6.448   4.953  15.367  0.00  0.00    +0.000 A 
ATOM     11  N   UNL     1       5.841   4.055  14.529  0.00  0.00    +0.000 N 
ATOM     12  H   UNL     1       5.065   3.450  14.753  0.00  0.00    +0.000 HD
ENDBRANCH   5  10
BRANCH   5  13
ATOM     13  C   UNL     1       4.497   5.451  16.888  0.00  0.00    +0.000 C 
ATOM     14  C   UNL     1       3.796   4.416  17.778  0.00  0.00    +0.000 C 
ATOM     15  C   UNL     1       4.221   6.848  17.455  0.00  0.00    +0.000 C 
ENDBRANCH   5  13
ENDBRANCH   1   5
BRANCH   2  16
ATOM     16  C   UNL     1       8.391   7.451  18.716  0.00  0.00    +0.000 C 
BRANCH  16  17
ATOM     17  C   UNL     1       7.962   8.615  17.828  0.00  0.00    +0.000 C 
BRANCH  17  18
ATOM     18  C   UNL     1       8.521   9.933  18.285  0.00  0.00    +0.000 A 
ATOM     19  C   UNL     1       9.309  10.033  19.435  0.00  0.00    +0.000 A 
ATOM     20  C   UNL     1       9.837  11.265  19.807  0.00  0.00    +0.000 A 
ATOM     21  C   UNL     1       9.552  12.367  19.018  0.00  0.00    +0.000 A 
ATOM     22  N   UNL     1       8.778  12.317  17.913  0.00  0.00    +0.000 NA
ATOM     23  C   UNL     1       8.280  11.106  17.573  0.00  0.00    +0.000 A 
ENDBRANCH  17  18
ENDBRANCH  16  17
ENDBRANCH   2  16
TORSDOF 6
ENDMDL
MODEL 4
REMARK VINA RESULT:      -7.4      3.329      7.263
REMARK  Name = 
REMARK  9 active torsions:
REMARK  status: ('A' for Active; 'I' for Inactive)
REMARK    1  A    between atoms: C_1  and  C_2
REMARK    2  A    between atoms: C_5  and  C_6
REMARK    3  A    between atoms: C_6  and  N_7
REMARK    4  A    between atoms: C_6  and  C_18
REMARK    5  A    between atoms: C_8  and  C_10
REMARK    6  A    between atoms: C_10  and  C_11
REMARK    7  A    between atoms: C_11  and  C_12
REMARK    8  A    between atoms: C_18  and  C_19
REMARK    9  A    between atoms: C_18  and  C_20
REMARK                            x       y       z     vdW  Elec       q    Type
REMARK                         _______ _______ _______ _____ _____    ______ ____
ROOT
ATOM      1  N   UNL     1       5.072   6.467  17.774  0.00  0.00    +0.000 N 
ATOM      2  C   UNL     1       3.868   7.120  17.693  0.00  0.00    +0.000 C 
ATOM      3  O   UNL     1       3.589   7.900  16.787  0.00  0.00    +0.000 OA
ATOM      4  H   UNL     1       5.197   5.710  18.438  0.00  0.00    +0.000 HD
ENDROOT
BRANCH   1   5
ATOM      5  C   UNL     1       6.122   6.632  16.778  0.00  0.00    +0.000 C 
BRANCH   5  10
ATOM      6  C   UNL     1       6.375   3.663  12.784  0.00  0.00    +0.000 C 
ATOM      7  C   UNL     1       6.226   4.087  14.191  0.00  0.00    +0.000 A 
ATOM      8  N   UNL     1       5.965   3.334  15.238  0.00  0.00    +0.000 NA
ATOM      9  N   UNL     1       5.881   4.151  16.341  0.00  0.00    +0.000 NA
ATOM     10  C   UNL     1       6.106   5.389  15.947  0.00  0.00    +0.000 A 
ATOM     11  N   UNL     1       6.327   5.389  14.595  0.00  0.00    +0.000 N 
ATOM     12  H   UNL     1       6.514   6.192  14.014  0.00  0.00    +0.000 HD
ENDBRANCH   5  10
BRANCH   5  13
ATOM     13  C   UNL     1       7.503   6.867  17.439  0.00  0.00    +0.000 C 
ATOM     14  C   UNL     1       7.763   8.361  17.679  0.00  0.00    +0.000 C 
ATOM     15  C   UNL     1       7.618   6.131  18.780  0.00  0.00    +0.000 C 
ENDBRANCH   5  13
ENDBRANCH   1   5
BRANCH   2  16
ATOM     16  C   UNL     1       2.892   6.799  18.808  0.00  0.00    +0.000 C 
BRANCH  16  17
ATOM     17  C   UNL     1       3.450   5.726  19.740  0.00  0.00    +0.000 C 
BRANCH  17  18
ATOM     18  C   UNL     1       2.746   4.407  19.596  0.00  0.00    +0.000 A 
ATOM     19  C   UNL     1       1.423   4.235  20.015  0.00  0.00    +0.000 A 
ATOM     20  C   UNL     1       0.794   3.008  19.834  0.00  0.00    +0.000 A 
ATOM     21  C   UNL     1       1.513   1.981  19.245  0.00  0.00    +0.000 A 
ATOM     22  N   UNL     1       2.797   2.100  18.846  0.00  0.00    +0.000 NA
ATOM     23  C   UNL     1       3.384   3.304  19.032  0.00  0.00    +0.000 A 
ENDBRANCH  17  18
ENDBRANCH  16  17
ENDBRANCH   2  16
TORSDOF 6
ENDMDL
MODEL 5
REMARK VINA RESULT:      -7.3      1.080      1.285
REMARK  Name = 
REMARK  9 active torsions:
REMARK  status: ('A' for Active; 'I' for Inactive)
REMARK    1  A    between atoms: C_1  and  C_2
REMARK    2  A    between atoms: C_5  and  C_6
REMARK    3  A    between atoms: C_6  and  N_7
REMARK    4  A    between atoms: C_6  and  C_18
REMARK    5  A    between atoms: C_8  and  C_10
REMARK    6  A    between atoms: C_10  and  C_11
REMARK    7  A    between atoms: C_11  and  C_12
REMARK    8  A    between atoms: C_18  and  C_19
REMARK    9  A    between atoms: C_18  and  C_20
REMARK                            x       y       z     vdW  Elec       q    Type
REMARK                         _______ _______ _______ _____ _____    ______ ____
ROOT
ATOM      1  N   UNL     1       6.941   6.325  17.427  0.00  0.00    +0.000 N 
ATOM      2  C   UNL     1       7.682   6.287  18.581  0.00  0.00    +0.000 C 
ATOM      3  O   UNL     1       7.711   5.313  19.327  0.00  0.00    +0.000 OA
ATOM      4  H   UNL     1       7.077   7.076  16.759  0.00  0.00    +0.000 HD
ENDROOT
BRANCH   1   5
ATOM      5  C   UNL     1       6.132   5.200  16.978  0.00  0.00    +0.000 C 
BRANCH   5  10
ATOM      6  C   UNL     1       6.027   3.326  12.362  0.00  0.00    +0.000 C 
ATOM      7  C   UNL     1       6.429   4.161  13.512  0.00  0.00    +0.000 A 
ATOM      8  N   UNL     1       7.393   5.056  13.563  0.00  0.00    +0.000 NA
ATOM      9  N   UNL     1       7.433   5.567  14.839  0.00  0.00    +0.000 NA
ATOM     10  C   UNL     1       6.484   4.981  15.541  0.00  0.00    +0.000 A 
ATOM     11  N   UNL     1       5.829   4.086  14.738  0.00  0.00    +0.000 N 
ATOM     12  H   UNL     1       5.064   3.484  15.003  0.00  0.00    +0.000 HD
ENDBRANCH   5  10
BRANCH   5  13
ATOM     13  C   UNL     1       4.619   5.475  17.167  0.00  0.00    +0.000 C 
ATOM     14  C   UNL     1       4.092   4.849  18.466  0.00  0.00    +0.000 C 
ATOM     15  C   UNL     1       4.319   6.979  17.194  0.00  0.00    +0.000 C 
ENDBRANCH   5  13
ENDBRANCH   1   5
BRANCH   2  16
ATOM     16  C   UNL     1       8.481   7.543  18.867  0.00  0.00    +0.000 C 
BRANCH  16  17
ATOM     17  C   UNL     1       8.051   8.691  17.958  0.00  0.00    +0.000 C 
BRANCH  17  18
ATOM     18  C   UNL     1       8.648  10.009  18.362  0.00  0.00    +0.000 A 
ATOM     19  C   UNL     1       8.494  11.154  17.574  0.00  0.00    +0.000 A 
ATOM     20  C   UNL     1       9.033  12.364  17.998  0.00  0.00    +0.000 A 
ATOM     21  C   UNL     1       9.721  12.391  19.200  0.00  0.00    +0.000 A 
ATOM     22  N   UNL     1       9.910  11.305  19.980  0.00  0.00    +0.000 NA
ATOM     23  C   UNL     1       9.373  10.142  19.544  0.00  0.00    +0.000 A 
ENDBRANCH  17  18
ENDBRANCH  16  17
ENDBRANCH   2  16
TORSDOF 6
ENDMDL
MODEL 6
REMARK VINA RESULT:      -7.2      3.666      7.272
REMARK  Name = 
REMARK  9 active torsions:
REMARK  status: ('A' for Active; 'I' for Inactive)
REMARK    1  A    between atoms: C_1  and  C_2
REMARK    2  A    between atoms: C_5  and  C_6
REMARK    3  A    between atoms: C_6  and  N_7
REMARK    4  A    between atoms: C_6  and  C_18
REMARK    5  A    between atoms: C_8  and  C_10
REMARK    6  A    between atoms: C_10  and  C_11
REMARK    7  A    between atoms: C_11  and  C_12
REMARK    8  A    between atoms: C_18  and  C_19
REMARK    9  A    between atoms: C_18  and  C_20
REMARK                            x       y       z     vdW  Elec       q    Type
REMARK                         _______ _______ _______ _____ _____    ______ ____
ROOT
ATOM      1  N   UNL     1       4.645   5.858  17.293  0.00  0.00    +0.000 N 
ATOM      2  C   UNL     1       3.709   6.807  17.621  0.00  0.00    +0.000 C 
ATOM      3  O   UNL     1       3.875   8.007  17.427  0.00  0.00    +0.000 OA
ATOM      4  H   UNL     1       4.401   4.874  17.315  0.00  0.00    +0.000 HD
ENDROOT
BRANCH   1   5
ATOM      5  C   UNL     1       5.916   6.196  16.669  0.00  0.00    +0.000 C 
BRANCH   5  10
ATOM      6  C   UNL     1       7.402   4.415  12.259  0.00  0.00    +0.000 C 
ATOM      7  C   UNL     1       6.729   4.485  13.571  0.00  0.00    +0.000 A 
ATOM      8  N   UNL     1       5.928   3.595  14.118  0.00  0.00    +0.000 NA
ATOM      9  N   UNL     1       5.506   4.089  15.330  0.00  0.00    +0.000 NA
ATOM     10  C   UNL     1       6.068   5.268  15.506  0.00  0.00    +0.000 A 
ATOM     11  N   UNL     1       6.846   5.554  14.417  0.00  0.00    +0.000 N 
ATOM     12  H   UNL     1       7.388   6.391  14.265  0.00  0.00    +0.000 HD
ENDBRANCH   5  10
BRANCH   5  13
ATOM     13  C   UNL     1       7.094   6.067  17.668  0.00  0.00    +0.000 C 
ATOM     14  C   UNL     1       7.761   7.425  17.927  0.00  0.00    +0.000 C 
ATOM     15  C   UNL     1       6.632   5.486  19.011  0.00  0.00    +0.000 C 
ENDBRANCH   5  13
ENDBRANCH   1   5
BRANCH   2  16
ATOM     16  C   UNL     1       2.436   6.260  18.238  0.00  0.00    +0.000 C 
BRANCH  16  17
ATOM     17  C   UNL     1       2.303   4.760  17.994  0.00  0.00    +0.000 C 
BRANCH  17  18
ATOM     18  C   UNL     1       2.312   3.960  19.266  0.00  0.00    +0.000 A 
ATOM     19  C   UNL     1       1.167   3.832  20.057  0.00  0.00    +0.000 A 
ATOM     20  C   UNL     1       1.205   3.055  21.210  0.00  0.00    +0.000 A 
ATOM     21  C   UNL     1       2.397   2.433  21.544  0.00  0.00    +0.000 A 
ATOM     22  N   UNL     1       3.530   2.548  20.818  0.00  0.00    +0.000 NA
ATOM     23  C   UNL     1       3.463   3.307  19.702  0.00  0.00    +0.000 A 
ENDBRANCH  17  18
ENDBRANCH  16  17
ENDBRANCH   2  16
TORSDOF 6
ENDMDL
MODEL 7
REMARK VINA RESULT:      -7.1      4.354      7.040
REMARK  Name = 
REMARK  9 active torsions:
REMARK  status: ('A' for Active; 'I' for Inactive)
REMARK    1  A    between atoms: C_1  and  C_2
REMARK    2  A    between atoms: C_5  and  C_6
REMARK    3  A    between atoms: C_6  and  N_7
REMARK    4  A    between atoms: C_6  and  C_18
REMARK    5  A    between atoms: C_8  and  C_10
REMARK    6  A    between atoms: C_10  and  C_11
REMARK    7  A    between atoms: C_11  and  C_12
REMARK    8  A    between atoms: C_18  and  C_19
REMARK    9  A    between atoms: C_18  and  C_20
REMARK                            x       y       z     vdW  Elec       q    Type
REMARK                         _______ _______ _______ _____ _____    ______ ____
ROOT
ATOM      1  N   UNL     1       3.487   4.099  18.609  0.00  0.00    +0.000 N 
ATOM      2  C   UNL     1       3.365   3.646  17.319  0.00  0.00    +0.000 C 
ATOM      3  O   UNL     1       2.287   3.345  16.814  0.00  0.00    +0.000 OA
ATOM      4  H   UNL     1       4.365   4.493  18.929  0.00  0.00    +0.000 HD
ENDROOT
BRANCH   1   5
ATOM      5  C   UNL     1       2.339   4.278  19.488  0.00  0.00    +0.000 C 
BRANCH   5  10
ATOM      6  C   UNL     1       1.249   8.649  21.618  0.00  0.00    +0.000 C 
ATOM      7  C   UNL     1       1.705   7.673  20.607  0.00  0.00    +0.000 A 
ATOM      8  N   UNL     1       2.126   7.914  19.384  0.00  0.00    +0.000 NA
ATOM      9  N   UNL     1       2.416   6.708  18.788  0.00  0.00    +0.000 NA
ATOM     10  C   UNL     1       2.178   5.754  19.665  0.00  0.00    +0.000 A 
ATOM     11  N   UNL     1       1.726   6.323  20.825  0.00  0.00    +0.000 N 
ATOM     12  H   UNL     1       1.453   5.841  21.668  0.00  0.00    +0.000 HD
ENDBRANCH   5  10
BRANCH   5  13
ATOM     13  C   UNL     1       2.541   3.553  20.842  0.00  0.00    +0.000 C 
ATOM     14  C   UNL     1       1.260   2.836  21.291  0.00  0.00    +0.000 C 
ATOM     15  C   UNL     1       3.674   2.522  20.766  0.00  0.00    +0.000 C 
ENDBRANCH   5  13
ENDBRANCH   1   5
BRANCH   2  16
ATOM     16  C   UNL     1       4.668   3.551  16.551  0.00  0.00    +0.000 C 
BRANCH  16  17
ATOM     17  C   UNL     1       5.148   4.929  16.103  0.00  0.00    +0.000 C 
BRANCH  17  18
ATOM     18  C   UNL     1       6.202   5.501  17.007  0.00  0.00    +0.000 A 
ATOM     19  C   UNL     1       6.537   6.858  16.973  0.00  0.00    +0.000 A 
ATOM     20  C   UNL     1       7.494   7.357  17.851  0.00  0.00    +0.000 A 
ATOM     21  C   UNL     1       8.097   6.478  18.734  0.00  0.00    +0.000 A 
ATOM     22  N   UNL     1       7.818   5.158  18.785  0.00  0.00    +0.000 NA
ATOM     23  C   UNL     1       6.882   4.700  17.922  0.00  0.00    +0.000 A 
ENDBRANCH  17  18
ENDBRANCH  16  17
ENDBRANCH   2  16
TORSDOF 6
ENDMDL
MODEL 8
REMARK VINA RESULT:      -6.9      4.125      7.017
REMARK  Name = 
REMARK  9 active torsions:
REMARK  status: ('A' for Active; 'I' for Inactive)
REMARK    1  A    between atoms: C_1  and  C_2
REMARK    2  A    between atoms: C_5  and  C_6
REMARK    3  A    between atoms: C_6  and  N_7
REMARK    4  A    between atoms: C_6  and  C_18
REMARK    5  A    between atoms: C_8  and  C_10
REMARK    6  A    between atoms: C_10  and  C_11
REMARK    7  A    between atoms: C_11  and  C_12
REMARK    8  A    between atoms: C_18  and  C_19
REMARK    9  A    between atoms: C_18  and  C_20
REMARK                            x       y       z     vdW  Elec       q    Type
REMARK                         _______ _______ _______ _____ _____    ______ ____
ROOT
ATOM      1  N   UNL     1       3.452   4.138  18.631  0.00  0.00    +0.000 N 
ATOM      2  C   UNL     1       3.361   3.602  17.371  0.00  0.00    +0.000 C 
ATOM      3  O   UNL     1       2.302   3.223  16.879  0.00  0.00    +0.000 OA
ATOM      4  H   UNL     1       4.309   4.590  18.931  0.00  0.00    +0.000 HD
ENDROOT
BRANCH   1   5
ATOM      5  C   UNL     1       2.291   4.319  19.491  0.00  0.00    +0.000 C 
BRANCH   5  10
ATOM      6  C   UNL     1       1.231   8.683  21.650  0.00  0.00    +0.000 C 
ATOM      7  C   UNL     1       1.677   7.711  20.632  0.00  0.00    +0.000 A 
ATOM      8  N   UNL     1       2.092   7.956  19.407  0.00  0.00    +0.000 NA
ATOM      9  N   UNL     1       2.374   6.752  18.803  0.00  0.00    +0.000 NA
ATOM     10  C   UNL     1       2.136   5.794  19.677  0.00  0.00    +0.000 A 
ATOM     11  N   UNL     1       1.694   6.360  20.843  0.00  0.00    +0.000 N 
ATOM     12  H   UNL     1       1.423   5.874  21.685  0.00  0.00    +0.000 HD
ENDBRANCH   5  10
BRANCH   5  13
ATOM     13  C   UNL     1       2.464   3.582  20.843  0.00  0.00    +0.000 C 
ATOM     14  C   UNL     1       1.178   2.849  21.251  0.00  0.00    +0.000 C 
ATOM     15  C   UNL     1       3.608   2.563  20.787  0.00  0.00    +0.000 C 
ENDBRANCH   5  13
ENDBRANCH   1   5
BRANCH   2  16
ATOM     16  C   UNL     1       4.674   3.519  16.617  0.00  0.00    +0.000 C 
BRANCH  16  17
ATOM     17  C   UNL     1       5.062   4.875  16.032  0.00  0.00    +0.000 C 
BRANCH  17  18
ATOM     18  C   UNL     1       6.074   5.603  16.871  0.00  0.00    +0.000 A 
ATOM     19  C   UNL     1       6.810   4.945  17.862  0.00  0.00    +0.000 A 
ATOM     20  C   UNL     1       7.763   5.645  18.595  0.00  0.00    +0.000 A 
ATOM     21  C   UNL     1       7.945   6.991  18.320  0.00  0.00    +0.000 A 
ATOM     22  N   UNL     1       7.240   7.667  17.387  0.00  0.00    +0.000 NA
ATOM     23  C   UNL     1       6.323   6.961  16.688  0.00  0.00    +0.000 A 
ENDBRANCH  17  18
ENDBRANCH  16  17
ENDBRANCH   2  16
TORSDOF 6
ENDMDL
MODEL 9
REMARK VINA RESULT:      -6.9      5.167      6.169
REMARK  Name = 
REMARK  9 active torsions:
REMARK  status: ('A' for Active; 'I' for Inactive)
REMARK    1  A    between atoms: C_1  and  C_2
REMARK    2  A    between atoms: C_5  and  C_6
REMARK    3  A    between atoms: C_6  and  N_7
REMARK    4  A    between atoms: C_6  and  C_18
REMARK    5  A    between atoms: C_8  and  C_10
REMARK    6  A    between atoms: C_10  and  C_11
REMARK    7  A    between atoms: C_11  and  C_12
REMARK    8  A    between atoms: C_18  and  C_19
REMARK    9  A    between atoms: C_18  and  C_20
REMARK                            x       y       z     vdW  Elec       q    Type
REMARK                         _______ _______ _______ _____ _____    ______ ____
ROOT
ATOM      1  N   UNL     1       2.921   6.626  18.334  0.00  0.00    +0.000 N 
ATOM      2  C   UNL     1       2.287   7.723  18.863  0.00  0.00    +0.000 C 
ATOM      3  O   UNL     1       2.024   7.834  20.056  0.00  0.00    +0.000 OA
ATOM      4  H   UNL     1       3.267   6.649  17.381  0.00  0.00    +0.000 HD
ENDROOT
BRANCH   1   5
ATOM      5  C   UNL     1       3.351   5.501  19.151  0.00  0.00    +0.000 C 
BRANCH   5  10
ATOM      6  C   UNL     1       7.103   4.639  15.986  0.00  0.00    +0.000 C 
ATOM      7  C   UNL     1       6.354   4.746  17.255  0.00  0.00    +0.000 A 
ATOM      8  N   UNL     1       6.769   4.441  18.467  0.00  0.00    +0.000 NA
ATOM      9  N   UNL     1       5.732   4.666  19.342  0.00  0.00    +0.000 NA
ATOM     10  C   UNL     1       4.706   5.116  18.648  0.00  0.00    +0.000 A 
ATOM     11  N   UNL     1       5.059   5.179  17.327  0.00  0.00    +0.000 N 
ATOM     12  H   UNL     1       4.475   5.475  16.559  0.00  0.00    +0.000 HD
ENDBRANCH   5  10
BRANCH   5  13
ATOM     13  C   UNL     1       2.349   4.322  19.071  0.00  0.00    +0.000 C 
ATOM     14  C   UNL     1       1.332   4.370  20.220  0.00  0.00    +0.000 C 
ATOM     15  C   UNL     1       1.583   4.324  17.742  0.00  0.00    +0.000 C 
ENDBRANCH   5  13
ENDBRANCH   1   5
BRANCH   2  16
ATOM     16  C   UNL     1       1.940   8.805  17.858  0.00  0.00    +0.000 C 
BRANCH  16  17
ATOM     17  C   UNL     1       0.781   9.666  18.352  0.00  0.00    +0.000 C 
BRANCH  17  18
ATOM     18  C   UNL     1       1.240  10.922  19.037  0.00  0.00    +0.000 A 
ATOM     19  C   UNL     1       2.005  11.882  18.367  0.00  0.00    +0.000 A 
ATOM     20  C   UNL     1       2.382  13.048  19.025  0.00  0.00    +0.000 A 
ATOM     21  C   UNL     1       1.987  13.217  20.342  0.00  0.00    +0.000 A 
ATOM     22  N   UNL     1       1.266  12.306  21.030  0.00  0.00    +0.000 NA
ATOM     23  C   UNL     1       0.912  11.182  20.366  0.00  0.00    +0.000 A 
ENDBRANCH  17  18
ENDBRANCH  16  17
ENDBRANCH   2  16
TORSDOF 6
ENDMDL
