MODEL 1
REMARK VINA RESULT:      -8.8      0.000      0.000
REMARK  Name = 
REMARK  5 active torsions:
REMARK  status: ('A' for Active; 'I' for Inactive)
REMARK    1  A    between atoms: N_15  and  C_16
REMARK    2  A    between atoms: C_16  and  C_17
REMARK    3  A    between atoms: C_17  and  C_18
REMARK    4  A    between atoms: C_18  and  N_19
REMARK    5  A    between atoms: N_22  and  C_23
REMARK                            x       y       z     vdW  Elec       q    Type
REMARK                         _______ _______ _______ _____ _____    ______ ____
ROOT
ATOM      1  C   UNL     1       8.975   9.209  19.083  0.00  0.00    +0.000 C 
ENDROOT
BRANCH   1  16
ATOM      2  O   UNL     1       9.269  11.005  21.205  0.00  0.00    +0.000 OA
ATOM      3  C   UNL     1       9.531  11.440  20.095  0.00  0.00    +0.000 A 
ATOM      4  C   UNL     1       9.992  12.768  19.958  0.00  0.00    +0.000 A 
ATOM      5  C   UNL     1      10.165  13.629  21.059  0.00  0.00    +0.000 A 
ATOM      6  N   UNL     1      10.638  14.887  20.880  0.00  0.00    +0.000 NA
ATOM      7  C   UNL     1      10.959  15.372  19.650  0.00  0.00    +0.000 A 
ATOM      8  C   UNL     1      11.460  16.674  19.518  0.00  0.00    +0.000 A 
ATOM      9  C   UNL     1      11.792  17.176  18.257  0.00  0.00    +0.000 A 
ATOM     10  C   UNL     1      11.617  16.384  17.119  0.00  0.00    +0.000 A 
ATOM     11  C   UNL     1      11.118  15.082  17.238  0.00  0.00    +0.000 A 
ATOM     12  C   UNL     1      10.788  14.559  18.502  0.00  0.00    +0.000 A 
ATOM     13  C   UNL     1      10.302  13.243  18.671  0.00  0.00    +0.000 A 
ATOM     14  N   UNL     1      10.147  12.415  17.607  0.00  0.00    +0.000 NA
ATOM     15  C   UNL     1       9.712  11.138  17.745  0.00  0.00    +0.000 A 
ATOM     16  N   UNL     1       9.399  10.628  18.975  0.00  0.00    +0.000 N 
ENDBRANCH   1  16
BRANCH   1  17
ATOM     17  C   UNL     1       8.087   8.753  17.904  0.00  0.00    +0.000 C 
BRANCH  17  18
ATOM     18  C   UNL     1       7.882   7.222  17.906  0.00  0.00    +0.000 C 
BRANCH  18  19
ATOM     19  N   UNL     1       6.913   6.739  16.881  0.00  0.00    +0.000 NA
ATOM     20  C   UNL     1       6.933   5.259  16.759  0.00  0.00    +0.000 C 
ATOM     21  C   UNL     1       6.282   4.571  17.980  0.00  0.00    +0.000 C 
ATOM     22  N   UNL     1       4.941   5.114  18.164  0.00  0.00    +0.000 N 
ATOM     23  C   UNL     1       4.850   6.566  18.267  0.00  0.00    +0.000 C 
ATOM     24  C   UNL     1       5.512   7.202  17.041  0.00  0.00    +0.000 C 
BRANCH  22  25
ATOM     25  C   UNL     1       3.781   4.263  18.229  0.00  0.00    +0.000 A 
ATOM     26  C   UNL     1       3.893   2.936  18.701  0.00  0.00    +0.000 A 
ATOM     27  C   UNL     1       2.769   2.111  18.797  0.00  0.00    +0.000 A 
ATOM     28  C   UNL     1       1.515   2.585  18.411  0.00  0.00    +0.000 A 
ATOM     29  F   UNL     1       0.427   1.781  18.501  0.00  0.00    +0.000 F 
ATOM     30  C   UNL     1       1.383   3.890  17.932  0.00  0.00    +0.000 A 
ATOM     31  C   UNL     1       2.501   4.728  17.849  0.00  0.00    +0.000 A 
ENDBRANCH  22  25
ENDBRANCH  18  19
ENDBRANCH  17  18
ENDBRANCH   1  17
TORSDOF 5
ENDMDL
MODEL 2
REMARK VINA RESULT:      -8.2      6.683      9.705
REMARK  Name = 
REMARK  5 active torsions:
REMARK  status: ('A' for Active; 'I' for Inactive)
REMARK    1  A    between atoms: N_15  and  C_16
REMARK    2  A    between atoms: C_16  and  C_17
REMARK    3  A    between atoms: C_17  and  C_18
REMARK    4  A    between atoms: C_18  and  N_19
REMARK    5  A    between atoms: N_22  and  C_23
REMARK                            x       y       z     vdW  Elec       q    Type
REMARK                         _______ _______ _______ _____ _____    ______ ____
ROOT
ATOM      1  C   UNL     1       3.627   4.149  19.777  0.00  0.00    +0.000 C 
ENDROOT
BRANCH   1  16
ATOM      2  O   UNL     1       5.859   5.672  19.064  0.00  0.00    +0.000 OA
ATOM      3  C   UNL     1       5.351   5.016  18.169  0.00  0.00    +0.000 A 
ATOM      4  C   UNL     1       5.926   5.031  16.879  0.00  0.00    +0.000 A 
ATOM      5  C   UNL     1       7.077   5.782  16.571  0.00  0.00    +0.000 A 
ATOM      6  N   UNL     1       7.609   5.741  15.324  0.00  0.00    +0.000 NA
ATOM      7  C   UNL     1       7.066   4.992  14.327  0.00  0.00    +0.000 A 
ATOM      8  C   UNL     1       7.663   4.971  13.060  0.00  0.00    +0.000 A 
ATOM      9  C   UNL     1       7.109   4.201  12.033  0.00  0.00    +0.000 A 
ATOM     10  C   UNL     1       5.950   3.456  12.264  0.00  0.00    +0.000 A 
ATOM     11  C   UNL     1       5.345   3.468  13.526  0.00  0.00    +0.000 A 
ATOM     12  C   UNL     1       5.896   4.231  14.573  0.00  0.00    +0.000 A 
ATOM     13  C   UNL     1       5.331   4.255  15.867  0.00  0.00    +0.000 A 
ATOM     14  N   UNL     1       4.228   3.522  16.161  0.00  0.00    +0.000 NA
ATOM     15  C   UNL     1       3.684   3.504  17.404  0.00  0.00    +0.000 A 
ATOM     16  N   UNL     1       4.226   4.239  18.422  0.00  0.00    +0.000 N 
ENDBRANCH   1  16
BRANCH   1  17
ATOM     17  C   UNL     1       2.097   4.368  19.777  0.00  0.00    +0.000 C 
BRANCH  17  18
ATOM     18  C   UNL     1       1.718   5.725  19.142  0.00  0.00    +0.000 C 
BRANCH  18  19
ATOM     19  N   UNL     1       2.573   6.862  19.587  0.00  0.00    +0.000 NA
ATOM     20  C   UNL     1       3.018   7.696  18.442  0.00  0.00    +0.000 C 
ATOM     21  C   UNL     1       1.863   8.540  17.858  0.00  0.00    +0.000 C 
ATOM     22  N   UNL     1       1.260   9.318  18.935  0.00  0.00    +0.000 N 
ATOM     23  C   UNL     1       0.822   8.559  20.101  0.00  0.00    +0.000 C 
ATOM     24  C   UNL     1       1.996   7.736  20.640  0.00  0.00    +0.000 C 
BRANCH  22  25
ATOM     25  C   UNL     1       1.119  10.748  18.849  0.00  0.00    +0.000 A 
ATOM     26  C   UNL     1       2.163  11.540  18.321  0.00  0.00    +0.000 A 
ATOM     27  C   UNL     1       2.024  12.925  18.205  0.00  0.00    +0.000 A 
ATOM     28  C   UNL     1       0.851  13.551  18.626  0.00  0.00    +0.000 A 
ATOM     29  F   UNL     1       0.722  14.897  18.515  0.00  0.00    +0.000 F 
ATOM     30  C   UNL     1      -0.190  12.790  19.159  0.00  0.00    +0.000 A 
ATOM     31  C   UNL     1      -0.065  11.399  19.264  0.00  0.00    +0.000 A 
ENDBRANCH  22  25
ENDBRANCH  18  19
ENDBRANCH  17  18
ENDBRANCH   1  17
TORSDOF 5
ENDMDL
MODEL 3
REMARK VINA RESULT:      -8.1      7.287      8.954
REMARK  Name = 
REMARK  5 active torsions:
REMARK  status: ('A' for Active; 'I' for Inactive)
REMARK    1  A    between atoms: N_15  and  C_16
REMARK    2  A    between atoms: C_16  and  C_17
REMARK    3  A    between atoms: C_17  and  C_18
REMARK    4  A    between atoms: C_18  and  N_19
REMARK    5  A    between atoms: N_22  and  C_23
REMARK                            x       y       z     vdW  Elec       q    Type
REMARK                         _______ _______ _______ _____ _____    ______ ____
ROOT
ATOM      1  C   UNL     1       2.982   6.467  18.179  0.00  0.00    +0.000 C 
ENDROOT
BRANCH   1  16
ATOM      2  O   UNL     1       2.184   8.984  17.262  0.00  0.00    +0.000 OA
ATOM      3  C   UNL     1       1.868   8.707  18.408  0.00  0.00    +0.000 A 
ATOM      4  C   UNL     1       1.106   9.626  19.164  0.00  0.00    +0.000 A 
ATOM      5  C   UNL     1       0.689  10.869  18.649  0.00  0.00    +0.000 A 
ATOM      6  N   UNL     1      -0.066  11.705  19.404  0.00  0.00    +0.000 NA
ATOM      7  C   UNL     1      -0.446  11.394  20.672  0.00  0.00    +0.000 A 
ATOM      8  C   UNL     1      -1.241  12.285  21.406  0.00  0.00    +0.000 A 
ATOM      9  C   UNL     1      -1.635  11.967  22.708  0.00  0.00    +0.000 A 
ATOM     10  C   UNL     1      -1.231  10.763  23.289  0.00  0.00    +0.000 A 
ATOM     11  C   UNL     1      -0.439   9.864  22.566  0.00  0.00    +0.000 A 
ATOM     12  C   UNL     1      -0.041  10.165  21.251  0.00  0.00    +0.000 A 
ATOM     13  C   UNL     1       0.741   9.278  20.477  0.00  0.00    +0.000 A 
ATOM     14  N   UNL     1       1.130   8.077  20.974  0.00  0.00    +0.000 NA
ATOM     15  C   UNL     1       1.855   7.194  20.242  0.00  0.00    +0.000 A 
ATOM     16  N   UNL     1       2.234   7.485  18.960  0.00  0.00    +0.000 N 
ENDBRANCH   1  16
BRANCH   1  17
ATOM     17  C   UNL     1       3.340   5.213  19.009  0.00  0.00    +0.000 C 
BRANCH  17  18
ATOM     18  C   UNL     1       4.802   5.260  19.508  0.00  0.00    +0.000 C 
BRANCH  18  19
ATOM     19  N   UNL     1       5.694   4.255  18.864  0.00  0.00    +0.000 NA
ATOM     20  C   UNL     1       4.963   3.427  17.870  0.00  0.00    +0.000 C 
ATOM     21  C   UNL     1       4.620   4.228  16.593  0.00  0.00    +0.000 C 
ATOM     22  N   UNL     1       5.847   4.811  16.062  0.00  0.00    +0.000 N 
ATOM     23  C   UNL     1       6.626   5.617  16.997  0.00  0.00    +0.000 C 
ATOM     24  C   UNL     1       6.935   4.786  18.246  0.00  0.00    +0.000 C 
BRANCH  22  25
ATOM     25  C   UNL     1       6.263   4.593  14.702  0.00  0.00    +0.000 A 
ATOM     26  C   UNL     1       7.396   5.259  14.183  0.00  0.00    +0.000 A 
ATOM     27  C   UNL     1       7.826   5.031  12.874  0.00  0.00    +0.000 A 
ATOM     28  C   UNL     1       7.129   4.148  12.050  0.00  0.00    +0.000 A 
ATOM     29  F   UNL     1       7.547   3.933  10.778  0.00  0.00    +0.000 F 
ATOM     30  C   UNL     1       6.001   3.486  12.537  0.00  0.00    +0.000 A 
ATOM     31  C   UNL     1       5.573   3.696  13.854  0.00  0.00    +0.000 A 
ENDBRANCH  22  25
ENDBRANCH  18  19
ENDBRANCH  17  18
ENDBRANCH   1  17
TORSDOF 5
ENDMDL
MODEL 4
REMARK VINA RESULT:      -8.0      7.988     11.179
REMARK  Name = 
REMARK  5 active torsions:
REMARK  status: ('A' for Active; 'I' for Inactive)
REMARK    1  A    between atoms: N_15  and  C_16
REMARK    2  A    between atoms: C_16  and  C_17
REMARK    3  A    between atoms: C_17  and  C_18
REMARK    4  A    between atoms: C_18  and  N_19
REMARK    5  A    between atoms: N_22  and  C_23
REMARK                            x       y       z     vdW  Elec       q    Type
REMARK                         _______ _______ _______ _____ _____    ______ ____
ROOT
ATOM      1  C   UNL     1       0.524   9.741  19.882  0.00  0.00    +0.000 C 
ENDROOT
BRANCH   1  16
ATOM      2  O   UNL     1       1.387   7.298  20.932  0.00  0.00    +0.000 OA
ATOM      3  C   UNL     1       1.875   7.623  19.861  0.00  0.00    +0.000 A 
ATOM      4  C   UNL     1       2.784   6.756  19.216  0.00  0.00    +0.000 A 
ATOM      5  C   UNL     1       3.162   5.513  19.760  0.00  0.00    +0.000 A 
ATOM      6  N   UNL     1       4.017   4.702  19.089  0.00  0.00    +0.000 NA
ATOM      7  C   UNL     1       4.545   5.043  17.883  0.00  0.00    +0.000 A 
ATOM      8  C   UNL     1       5.410   4.162  17.221  0.00  0.00    +0.000 A 
ATOM      9  C   UNL     1       5.953   4.508  15.980  0.00  0.00    +0.000 A 
ATOM     10  C   UNL     1       5.642   5.740  15.398  0.00  0.00    +0.000 A 
ATOM     11  C   UNL     1       4.777   6.627  16.049  0.00  0.00    +0.000 A 
ATOM     12  C   UNL     1       4.215   6.289  17.294  0.00  0.00    +0.000 A 
ATOM     13  C   UNL     1       3.321   7.145  17.976  0.00  0.00    +0.000 A 
ATOM     14  N   UNL     1       2.952   8.336  17.441  0.00  0.00    +0.000 NA
ATOM     15  C   UNL     1       2.073   9.163  18.061  0.00  0.00    +0.000 A 
ATOM     16  N   UNL     1       1.521   8.829  19.267  0.00  0.00    +0.000 N 
ENDBRANCH   1  16
BRANCH   1  17
ATOM     17  C   UNL     1       1.133  11.089  20.329  0.00  0.00    +0.000 C 
BRANCH  17  18
ATOM     18  C   UNL     1       0.470  12.281  19.602  0.00  0.00    +0.000 C 
BRANCH  18  19
ATOM     19  N   UNL     1      -0.049  13.335  20.519  0.00  0.00    +0.000 NA
ATOM     20  C   UNL     1      -1.327  13.911  20.027  0.00  0.00    +0.000 C 
ATOM     21  C   UNL     1      -2.504  12.922  20.184  0.00  0.00    +0.000 C 
ATOM     22  N   UNL     1      -2.569  12.487  21.574  0.00  0.00    +0.000 N 
ATOM     23  C   UNL     1      -1.337  11.933  22.126  0.00  0.00    +0.000 C 
ATOM     24  C   UNL     1      -0.201  12.943  21.943  0.00  0.00    +0.000 C 
BRANCH  22  25
ATOM     25  C   UNL     1      -3.774  12.609  22.351  0.00  0.00    +0.000 A 
ATOM     26  C   UNL     1      -3.730  12.526  23.761  0.00  0.00    +0.000 A 
ATOM     27  C   UNL     1      -4.890  12.674  24.526  0.00  0.00    +0.000 A 
ATOM     28  C   UNL     1      -6.118  12.891  23.903  0.00  0.00    +0.000 A 
ATOM     29  F   UNL     1      -7.243  13.030  24.649  0.00  0.00    +0.000 F 
ATOM     30  C   UNL     1      -6.188  12.967  22.511  0.00  0.00    +0.000 A 
ATOM     31  C   UNL     1      -5.028  12.837  21.738  0.00  0.00    +0.000 A 
ENDBRANCH  22  25
ENDBRANCH  18  19
ENDBRANCH  17  18
ENDBRANCH   1  17
TORSDOF 5
ENDMDL
MODEL 5
REMARK VINA RESULT:      -7.9      7.092     11.166
REMARK  Name = 
REMARK  5 active torsions:
REMARK  status: ('A' for Active; 'I' for Inactive)
REMARK    1  A    between atoms: N_15  and  C_16
REMARK    2  A    between atoms: C_16  and  C_17
REMARK    3  A    between atoms: C_17  and  C_18
REMARK    4  A    between atoms: C_18  and  N_19
REMARK    5  A    between atoms: N_22  and  C_23
REMARK                            x       y       z     vdW  Elec       q    Type
REMARK                         _______ _______ _______ _____ _____    ______ ____
ROOT
ATOM      1  C   UNL     1       1.178   7.782  20.998  0.00  0.00    +0.000 C 
ENDROOT
BRANCH   1  16
ATOM      2  O   UNL     1       2.034   5.121  21.027  0.00  0.00    +0.000 OA
ATOM      3  C   UNL     1       2.438   5.803  20.099  0.00  0.00    +0.000 A 
ATOM      4  C   UNL     1       3.253   5.217  19.105  0.00  0.00    +0.000 A 
ATOM      5  C   UNL     1       3.629   3.861  19.136  0.00  0.00    +0.000 A 
ATOM      6  N   UNL     1       4.389   3.337  18.143  0.00  0.00    +0.000 NA
ATOM      7  C   UNL     1       4.823   4.082  17.091  0.00  0.00    +0.000 A 
ATOM      8  C   UNL     1       5.592   3.490  16.080  0.00  0.00    +0.000 A 
ATOM      9  C   UNL     1       6.038   4.252  14.997  0.00  0.00    +0.000 A 
ATOM     10  C   UNL     1       5.725   5.612  14.921  0.00  0.00    +0.000 A 
ATOM     11  C   UNL     1       4.956   6.214  15.923  0.00  0.00    +0.000 A 
ATOM     12  C   UNL     1       4.492   5.458  17.016  0.00  0.00    +0.000 A 
ATOM     13  C   UNL     1       3.695   6.020  18.038  0.00  0.00    +0.000 A 
ATOM     14  N   UNL     1       3.327   7.325  17.998  0.00  0.00    +0.000 NA
ATOM     15  C   UNL     1       2.538   7.882  18.951  0.00  0.00    +0.000 A 
ATOM     16  N   UNL     1       2.081   7.144  20.007  0.00  0.00    +0.000 N 
ENDBRANCH   1  16
BRANCH   1  17
ATOM     17  C   UNL     1       1.171   9.324  20.902  0.00  0.00    +0.000 C 
BRANCH  17  18
ATOM     18  C   UNL     1      -0.260   9.876  20.713  0.00  0.00    +0.000 C 
BRANCH  18  19
ATOM     19  N   UNL     1      -0.485  10.536  19.396  0.00  0.00    +0.000 NA
ATOM     20  C   UNL     1      -1.441  11.668  19.504  0.00  0.00    +0.000 C 
ATOM     21  C   UNL     1      -0.817  12.884  20.226  0.00  0.00    +0.000 C 
ATOM     22  N   UNL     1       0.425  13.243  19.550  0.00  0.00    +0.000 N 
ATOM     23  C   UNL     1       1.398  12.169  19.390  0.00  0.00    +0.000 C 
ATOM     24  C   UNL     1       0.734  10.986  18.677  0.00  0.00    +0.000 C 
BRANCH  22  25
ATOM     25  C   UNL     1       0.663  14.577  19.064  0.00  0.00    +0.000 A 
ATOM     26  C   UNL     1      -0.415  15.462  18.840  0.00  0.00    +0.000 A 
ATOM     27  C   UNL     1      -0.193  16.768  18.399  0.00  0.00    +0.000 A 
ATOM     28  C   UNL     1       1.106  17.215  18.155  0.00  0.00    +0.000 A 
ATOM     29  F   UNL     1       1.317  18.483  17.722  0.00  0.00    +0.000 F 
ATOM     30  C   UNL     1       2.186  16.356  18.360  0.00  0.00    +0.000 A 
ATOM     31  C   UNL     1       1.973  15.051  18.819  0.00  0.00    +0.000 A 
ENDBRANCH  22  25
ENDBRANCH  18  19
ENDBRANCH  17  18
ENDBRANCH   1  17
TORSDOF 5
ENDMDL
MODEL 6
REMARK VINA RESULT:      -7.8      7.757     11.348
REMARK  Name = 
REMARK  5 active torsions:
REMARK  status: ('A' for Active; 'I' for Inactive)
REMARK    1  A    between atoms: N_15  and  C_16
REMARK    2  A    between atoms: C_16  and  C_17
REMARK    3  A    between atoms: C_17  and  C_18
REMARK    4  A    between atoms: C_18  and  N_19
REMARK    5  A    between atoms: N_22  and  C_23
REMARK                            x       y       z     vdW  Elec       q    Type
REMARK                         _______ _______ _______ _____ _____    ______ ____
ROOT
ATOM      1  C   UNL     1       0.964   7.388  21.193  0.00  0.00    +0.000 C 
ENDROOT
BRANCH   1  16
ATOM      2  O   UNL     1       1.856   4.743  21.040  0.00  0.00    +0.000 OA
ATOM      3  C   UNL     1       2.278   5.501  20.181  0.00  0.00    +0.000 A 
ATOM      4  C   UNL     1       3.130   5.004  19.170  0.00  0.00    +0.000 A 
ATOM      5  C   UNL     1       3.523   3.654  19.105  0.00  0.00    +0.000 A 
ATOM      6  N   UNL     1       4.320   3.218  18.098  0.00  0.00    +0.000 NA
ATOM      7  C   UNL     1       4.774   4.049  17.121  0.00  0.00    +0.000 A 
ATOM      8  C   UNL     1       5.581   3.547  16.092  0.00  0.00    +0.000 A 
ATOM      9  C   UNL     1       6.048   4.397  15.086  0.00  0.00    +0.000 A 
ATOM     10  C   UNL     1       5.719   5.755  15.107  0.00  0.00    +0.000 A 
ATOM     11  C   UNL     1       4.912   6.268  16.129  0.00  0.00    +0.000 A 
ATOM     12  C   UNL     1       4.427   5.423  17.144  0.00  0.00    +0.000 A 
ATOM     13  C   UNL     1       3.592   5.893  18.183  0.00  0.00    +0.000 A 
ATOM     14  N   UNL     1       3.208   7.193  18.234  0.00  0.00    +0.000 NA
ATOM     15  C   UNL     1       2.383   7.664  19.202  0.00  0.00    +0.000 A 
ATOM     16  N   UNL     1       1.905   6.840  20.184  0.00  0.00    +0.000 N 
ENDBRANCH   1  16
BRANCH   1  17
ATOM     17  C   UNL     1       1.079   8.920  21.356  0.00  0.00    +0.000 C 
BRANCH  17  18
ATOM     18  C   UNL     1      -0.168   9.645  20.801  0.00  0.00    +0.000 C 
BRANCH  18  19
ATOM     19  N   UNL     1       0.103  10.479  19.595  0.00  0.00    +0.000 NA
ATOM     20  C   UNL     1      -1.144  11.062  19.037  0.00  0.00    +0.000 C 
ATOM     21  C   UNL     1      -1.704  12.191  19.931  0.00  0.00    +0.000 C 
ATOM     22  N   UNL     1      -0.655  13.181  20.147  0.00  0.00    +0.000 N 
ATOM     23  C   UNL     1       0.607  12.669  20.672  0.00  0.00    +0.000 C 
ATOM     24  C   UNL     1       1.118  11.550  19.759  0.00  0.00    +0.000 C 
BRANCH  22  25
ATOM     25  C   UNL     1      -0.855  14.575  19.849  0.00  0.00    +0.000 A 
ATOM     26  C   UNL     1      -0.180  15.180  18.765  0.00  0.00    +0.000 A 
ATOM     27  C   UNL     1      -0.392  16.524  18.448  0.00  0.00    +0.000 A 
ATOM     28  C   UNL     1      -1.266  17.296  19.212  0.00  0.00    +0.000 A 
ATOM     29  F   UNL     1      -1.465  18.602  18.904  0.00  0.00    +0.000 F 
ATOM     30  C   UNL     1      -1.937  16.723  20.293  0.00  0.00    +0.000 A 
ATOM     31  C   UNL     1      -1.743  15.372  20.607  0.00  0.00    +0.000 A 
ENDBRANCH  22  25
ENDBRANCH  18  19
ENDBRANCH  17  18
ENDBRANCH   1  17
TORSDOF 5
ENDMDL
MODEL 7
REMARK VINA RESULT:      -7.8      1.432      2.116
REMARK  Name = 
REMARK  5 active torsions:
REMARK  status: ('A' for Active; 'I' for Inactive)
REMARK    1  A    between atoms: N_15  and  C_16
REMARK    2  A    between atoms: C_16  and  C_17
REMARK    3  A    between atoms: C_17  and  C_18
REMARK    4  A    between atoms: C_18  and  N_19
REMARK    5  A    between atoms: N_22  and  C_23
REMARK                            x       y       z     vdW  Elec       q    Type
REMARK                         _______ _______ _______ _____ _____    ______ ____
ROOT
ATOM      1  C   UNL     1       9.035   9.737  19.203  0.00  0.00    +0.000 C 
ENDROOT
BRANCH   1  16
ATOM      2  O   UNL     1      10.889  10.826  17.417  0.00  0.00    +0.000 OA
ATOM      3  C   UNL     1      10.231  11.628  18.061  0.00  0.00    +0.000 A 
ATOM      4  C   UNL     1      10.409  13.012  17.842  0.00  0.00    +0.000 A 
ATOM      5  C   UNL     1      11.327  13.519  16.902  0.00  0.00    +0.000 A 
ATOM      6  N   UNL     1      11.441  14.856  16.707  0.00  0.00    +0.000 NA
ATOM      7  C   UNL     1      10.693  15.757  17.400  0.00  0.00    +0.000 A 
ATOM      8  C   UNL     1      10.836  17.128  17.151  0.00  0.00    +0.000 A 
ATOM      9  C   UNL     1      10.068  18.057  17.859  0.00  0.00    +0.000 A 
ATOM     10  C   UNL     1       9.160  17.621  18.827  0.00  0.00    +0.000 A 
ATOM     11  C   UNL     1       9.007  16.254  19.084  0.00  0.00    +0.000 A 
ATOM     12  C   UNL     1       9.766  15.307  18.373  0.00  0.00    +0.000 A 
ATOM     13  C   UNL     1       9.629  13.916  18.585  0.00  0.00    +0.000 A 
ATOM     14  N   UNL     1       8.736  13.433  19.485  0.00  0.00    +0.000 NA
ATOM     15  C   UNL     1       8.562  12.103  19.686  0.00  0.00    +0.000 A 
ATOM     16  N   UNL     1       9.295  11.183  18.987  0.00  0.00    +0.000 N 
ENDBRANCH   1  16
BRANCH   1  17
ATOM     17  C   UNL     1       8.210   9.096  18.065  0.00  0.00    +0.000 C 
BRANCH  17  18
ATOM     18  C   UNL     1       8.141   7.559  18.209  0.00  0.00    +0.000 C 
BRANCH  18  19
ATOM     19  N   UNL     1       7.369   6.884  17.127  0.00  0.00    +0.000 NA
ATOM     20  C   UNL     1       7.404   5.405  17.267  0.00  0.00    +0.000 C 
ATOM     21  C   UNL     1       6.543   4.917  18.454  0.00  0.00    +0.000 C 
ATOM     22  N   UNL     1       5.193   5.447  18.303  0.00  0.00    +0.000 N 
ATOM     23  C   UNL     1       5.090   6.893  18.137  0.00  0.00    +0.000 C 
ATOM     24  C   UNL     1       5.963   7.329  16.956  0.00  0.00    +0.000 C 
BRANCH  22  25
ATOM     25  C   UNL     1       4.038   4.588  18.308  0.00  0.00    +0.000 A 
ATOM     26  C   UNL     1       2.758   5.111  18.599  0.00  0.00    +0.000 A 
ATOM     27  C   UNL     1       1.626   4.292  18.576  0.00  0.00    +0.000 A 
ATOM     28  C   UNL     1       1.747   2.935  18.280  0.00  0.00    +0.000 A 
ATOM     29  F   UNL     1       0.646   2.143  18.263  0.00  0.00    +0.000 F 
ATOM     30  C   UNL     1       3.002   2.394  17.998  0.00  0.00    +0.000 A 
ATOM     31  C   UNL     1       4.139   3.211  18.002  0.00  0.00    +0.000 A 
ENDBRANCH  22  25
ENDBRANCH  18  19
ENDBRANCH  17  18
ENDBRANCH   1  17
TORSDOF 5
ENDMDL
MODEL 8
REMARK VINA RESULT:      -7.8      7.133     11.230
REMARK  Name = 
REMARK  5 active torsions:
REMARK  status: ('A' for Active; 'I' for Inactive)
REMARK    1  A    between atoms: N_15  and  C_16
REMARK    2  A    between atoms: C_16  and  C_17
REMARK    3  A    between atoms: C_17  and  C_18
REMARK    4  A    between atoms: C_18  and  N_19
REMARK    5  A    between atoms: N_22  and  C_23
REMARK                            x       y       z     vdW  Elec       q    Type
REMARK                         _______ _______ _______ _____ _____    ______ ____
ROOT
ATOM      1  C   UNL     1       1.160   7.854  20.834  0.00  0.00    +0.000 C 
ENDROOT
BRANCH   1  16
ATOM      2  O   UNL     1       2.000   5.191  20.946  0.00  0.00    +0.000 OA
ATOM      3  C   UNL     1       2.424   5.847  20.008  0.00  0.00    +0.000 A 
ATOM      4  C   UNL     1       3.252   5.231  19.044  0.00  0.00    +0.000 A 
ATOM      5  C   UNL     1       3.619   3.874  19.115  0.00  0.00    +0.000 A 
ATOM      6  N   UNL     1       4.393   3.320  18.148  0.00  0.00    +0.000 NA
ATOM      7  C   UNL     1       4.848   4.036  17.085  0.00  0.00    +0.000 A 
ATOM      8  C   UNL     1       5.631   3.414  16.103  0.00  0.00    +0.000 A 
ATOM      9  C   UNL     1       6.098   4.146  15.008  0.00  0.00    +0.000 A 
ATOM     10  C   UNL     1       5.794   5.505  14.892  0.00  0.00    +0.000 A 
ATOM     11  C   UNL     1       5.012   6.136  15.865  0.00  0.00    +0.000 A 
ATOM     12  C   UNL     1       4.526   5.412  16.969  0.00  0.00    +0.000 A 
ATOM     13  C   UNL     1       3.715   6.003  17.963  0.00  0.00    +0.000 A 
ATOM     14  N   UNL     1       3.356   7.309  17.883  0.00  0.00    +0.000 NA
ATOM     15  C   UNL     1       2.554   7.895  18.808  0.00  0.00    +0.000 A 
ATOM     16  N   UNL     1       2.076   7.186  19.876  0.00  0.00    +0.000 N 
ENDBRANCH   1  16
BRANCH   1  17
ATOM     17  C   UNL     1       1.067   9.381  20.616  0.00  0.00    +0.000 C 
BRANCH  17  18
ATOM     18  C   UNL     1      -0.336   9.801  20.122  0.00  0.00    +0.000 C 
BRANCH  18  19
ATOM     19  N   UNL     1      -0.818  11.090  20.694  0.00  0.00    +0.000 NA
ATOM     20  C   UNL     1       0.300  11.905  21.235  0.00  0.00    +0.000 C 
ATOM     21  C   UNL     1       1.173  12.506  20.110  0.00  0.00    +0.000 C 
ATOM     22  N   UNL     1       0.313  13.248  19.195  0.00  0.00    +0.000 N 
ATOM     23  C   UNL     1      -0.820  12.511  18.646  0.00  0.00    +0.000 C 
ATOM     24  C   UNL     1      -1.650  11.929  19.795  0.00  0.00    +0.000 C 
BRANCH  22  25
ATOM     25  C   UNL     1       0.567  14.626  18.867  0.00  0.00    +0.000 A 
ATOM     26  C   UNL     1       1.888  15.082  18.663  0.00  0.00    +0.000 A 
ATOM     27  C   UNL     1       2.143  16.411  18.313  0.00  0.00    +0.000 A 
ATOM     28  C   UNL     1       1.091  17.315  18.176  0.00  0.00    +0.000 A 
ATOM     29  F   UNL     1       1.343  18.605  17.842  0.00  0.00    +0.000 F 
ATOM     30  C   UNL     1      -0.222  16.890  18.383  0.00  0.00    +0.000 A 
ATOM     31  C   UNL     1      -0.488  15.556  18.716  0.00  0.00    +0.000 A 
ENDBRANCH  22  25
ENDBRANCH  18  19
ENDBRANCH  17  18
ENDBRANCH   1  17
TORSDOF 5
ENDMDL
MODEL 9
REMARK VINA RESULT:      -7.7      1.888      3.042
REMARK  Name = 
REMARK  5 active torsions:
REMARK  status: ('A' for Active; 'I' for Inactive)
REMARK    1  A    between atoms: N_15  and  C_16
REMARK    2  A    between atoms: C_16  and  C_17
REMARK    3  A    between atoms: C_17  and  C_18
REMARK    4  A    between atoms: C_18  and  N_19
REMARK    5  A    between atoms: N_22  and  C_23
REMARK                            x       y       z     vdW  Elec       q    Type
REMARK                         _______ _______ _______ _____ _____    ______ ____
ROOT
ATOM      1  C   UNL     1       9.294   9.790  18.082  0.00  0.00    +0.000 C 
ENDROOT
BRANCH   1  16
ATOM      2  O   UNL     1       8.991  12.489  17.422  0.00  0.00    +0.000 OA
ATOM      3  C   UNL     1       9.032  12.231  18.615  0.00  0.00    +0.000 A 
ATOM      4  C   UNL     1       8.887  13.271  19.559  0.00  0.00    +0.000 A 
ATOM      5  C   UNL     1       8.695  14.614  19.185  0.00  0.00    +0.000 A 
ATOM      6  N   UNL     1       8.532  15.573  20.129  0.00  0.00    +0.000 NA
ATOM      7  C   UNL     1       8.550  15.292  21.460  0.00  0.00    +0.000 A 
ATOM      8  C   UNL     1       8.360  16.316  22.397  0.00  0.00    +0.000 A 
ATOM      9  C   UNL     1       8.376  16.030  23.765  0.00  0.00    +0.000 A 
ATOM     10  C   UNL     1       8.592  14.722  24.205  0.00  0.00    +0.000 A 
ATOM     11  C   UNL     1       8.781  13.690  23.279  0.00  0.00    +0.000 A 
ATOM     12  C   UNL     1       8.759  13.960  21.898  0.00  0.00    +0.000 A 
ATOM     13  C   UNL     1       8.924  12.946  20.928  0.00  0.00    +0.000 A 
ATOM     14  N   UNL     1       9.098  11.652  21.295  0.00  0.00    +0.000 NA
ATOM     15  C   UNL     1       9.229  10.655  20.384  0.00  0.00    +0.000 A 
ATOM     16  N   UNL     1       9.199  10.918  19.042  0.00  0.00    +0.000 N 
ENDBRANCH   1  16
BRANCH   1  17
ATOM     17  C   UNL     1       7.948   9.062  17.871  0.00  0.00    +0.000 C 
BRANCH  17  18
ATOM     18  C   UNL     1       8.005   7.602  18.375  0.00  0.00    +0.000 C 
BRANCH  18  19
ATOM     19  N   UNL     1       7.457   6.607  17.410  0.00  0.00    +0.000 NA
ATOM     20  C   UNL     1       7.426   5.239  17.989  0.00  0.00    +0.000 C 
ATOM     21  C   UNL     1       6.325   5.093  19.064  0.00  0.00    +0.000 C 
ATOM     22  N   UNL     1       5.049   5.501  18.487  0.00  0.00    +0.000 N 
ATOM     23  C   UNL     1       5.020   6.827  17.879  0.00  0.00    +0.000 C 
ATOM     24  C   UNL     1       6.130   6.927  16.828  0.00  0.00    +0.000 C 
BRANCH  22  25
ATOM     25  C   UNL     1       3.897   4.639  18.510  0.00  0.00    +0.000 A 
ATOM     26  C   UNL     1       2.716   5.003  17.825  0.00  0.00    +0.000 A 
ATOM     27  C   UNL     1       1.603   4.159  17.816  0.00  0.00    +0.000 A 
ATOM     28  C   UNL     1       1.636   2.945  18.502  0.00  0.00    +0.000 A 
ATOM     29  F   UNL     1       0.551   2.131  18.494  0.00  0.00    +0.000 F 
ATOM     30  C   UNL     1       2.788   2.570  19.194  0.00  0.00    +0.000 A 
ATOM     31  C   UNL     1       3.914   3.402  19.194  0.00  0.00    +0.000 A 
ENDBRANCH  22  25
ENDBRANCH  18  19
ENDBRANCH  17  18
ENDBRANCH   1  17
TORSDOF 5
ENDMDL
