MODEL 1
REMARK VINA RESULT:      -8.5      0.000      0.000
REMARK  Name = 
REMARK  3 active torsions:
REMARK  status: ('A' for Active; 'I' for Inactive)
REMARK    1  A    between atoms: C_2  and  C_3
REMARK    2  A    between atoms: C_3  and  N_4
REMARK    3  A    between atoms: C_19  and  C_20
REMARK                            x       y       z     vdW  Elec       q    Type
REMARK                         _______ _______ _______ _____ _____    ______ ____
ROOT
ATOM      1  O   UNL     1       2.116   9.068  18.098  0.00  0.00    +0.000 OA
ATOM      2  C   UNL     1       1.678   8.528  19.123  0.00  0.00    +0.000 C 
ATOM      3  N   UNL     1       2.170   7.283  19.543  0.00  0.00    +0.000 N 
ATOM      4  C   UNL     1       1.701   6.521  20.703  0.00  0.00    +0.000 C 
ATOM      5  C   UNL     1       1.274   5.092  20.362  0.00  0.00    +0.000 C 
ATOM      6  C   UNL     1       2.427   4.124  20.253  0.00  0.00    +0.000 A 
ATOM      7  C   UNL     1       2.472   3.032  21.149  0.00  0.00    +0.000 A 
ATOM      8  C   UNL     1       3.489   2.084  21.092  0.00  0.00    +0.000 A 
ATOM      9  C   UNL     1       4.471   2.196  20.125  0.00  0.00    +0.000 A 
ATOM     10  C   UNL     1       4.432   3.259  19.227  0.00  0.00    +0.000 A 
ATOM     11  C   UNL     1       3.429   4.259  19.272  0.00  0.00    +0.000 A 
ATOM     12  C   UNL     1       3.415   5.424  18.257  0.00  0.00    +0.000 C 
ATOM     13  C   UNL     1       3.429   6.822  18.933  0.00  0.00    +0.000 C 
ENDROOT
BRANCH  12  14
ATOM     14  C   UNL     1       4.584   5.322  17.259  0.00  0.00    +0.000 A 
ATOM     15  C   UNL     1       4.582   4.322  16.276  0.00  0.00    +0.000 A 
ATOM     16  C   UNL     1       5.739   4.054  15.542  0.00  0.00    +0.000 A 
ATOM     17  C   UNL     1       6.903   4.777  15.774  0.00  0.00    +0.000 A 
ATOM     18  C   UNL     1       6.908   5.810  16.713  0.00  0.00    +0.000 A 
ATOM     19  C   UNL     1       5.753   6.088  17.440  0.00  0.00    +0.000 A 
ENDBRANCH  12  14
BRANCH   2  20
ATOM     20  C   UNL     1       0.612   9.263  19.966  0.00  0.00    +0.000 C 
BRANCH  20  21
ATOM     21  N   UNL     1       1.250  10.060  21.036  0.00  0.00    +0.000 NA
ATOM     22  C   UNL     1       1.174   9.431  22.370  0.00  0.00    +0.000 C 
ATOM     23  C   UNL     1      -0.128   9.671  23.165  0.00  0.00    +0.000 C 
ATOM     24  O   UNL     1      -0.564  11.033  23.135  0.00  0.00    +0.000 OA
ATOM     25  C   UNL     1      -0.658  11.505  21.789  0.00  0.00    +0.000 C 
ATOM     26  C   UNL     1       0.715  11.431  21.109  0.00  0.00    +0.000 C 
ENDBRANCH  20  21
ENDBRANCH   2  20
TORSDOF 3
ENDMDL
MODEL 2
REMARK VINA RESULT:      -8.2      1.518      1.984
REMARK  Name = 
REMARK  3 active torsions:
REMARK  status: ('A' for Active; 'I' for Inactive)
REMARK    1  A    between atoms: C_2  and  C_3
REMARK    2  A    between atoms: C_3  and  N_4
REMARK    3  A    between atoms: C_19  and  C_20
REMARK                            x       y       z     vdW  Elec       q    Type
REMARK                         _______ _______ _______ _____ _____    ______ ____
ROOT
ATOM      1  O   UNL     1       2.565   8.868  17.505  0.00  0.00    +0.000 OA
ATOM      2  C   UNL     1       2.048   8.478  18.561  0.00  0.00    +0.000 C 
ATOM      3  N   UNL     1       2.437   7.262  19.142  0.00  0.00    +0.000 N 
ATOM      4  C   UNL     1       1.868   6.669  20.355  0.00  0.00    +0.000 C 
ATOM      5  C   UNL     1       1.361   5.239  20.154  0.00  0.00    +0.000 C 
ATOM      6  C   UNL     1       2.450   4.196  20.213  0.00  0.00    +0.000 A 
ATOM      7  C   UNL     1       2.383   3.214  21.227  0.00  0.00    +0.000 A 
ATOM      8  C   UNL     1       3.335   2.204  21.327  0.00  0.00    +0.000 A 
ATOM      9  C   UNL     1       4.363   2.143  20.405  0.00  0.00    +0.000 A 
ATOM     10  C   UNL     1       4.434   3.096  19.393  0.00  0.00    +0.000 A 
ATOM     11  C   UNL     1       3.500   4.154  19.274  0.00  0.00    +0.000 A 
ATOM     12  C   UNL     1       3.607   5.194  18.136  0.00  0.00    +0.000 C 
ATOM     13  C   UNL     1       3.687   6.657  18.651  0.00  0.00    +0.000 C 
ENDROOT
BRANCH  12  14
ATOM     14  C   UNL     1       4.809   4.905  17.216  0.00  0.00    +0.000 A 
ATOM     15  C   UNL     1       5.996   5.639  17.360  0.00  0.00    +0.000 A 
ATOM     16  C   UNL     1       6.987   5.573  16.380  0.00  0.00    +0.000 A 
ATOM     17  C   UNL     1       6.812   4.779  15.253  0.00  0.00    +0.000 A 
ATOM     18  C   UNL     1       5.659   4.003  15.118  0.00  0.00    +0.000 A 
ATOM     19  C   UNL     1       4.672   4.057  16.099  0.00  0.00    +0.000 A 
ENDBRANCH  12  14
BRANCH   2  20
ATOM     20  C   UNL     1       0.999   9.370  19.261  0.00  0.00    +0.000 C 
BRANCH  20  21
ATOM     21  N   UNL     1       0.661  10.539  18.420  0.00  0.00    +0.000 NA
ATOM     22  C   UNL     1       1.226  11.810  18.916  0.00  0.00    +0.000 C 
ATOM     23  C   UNL     1       0.413  12.540  20.006  0.00  0.00    +0.000 C 
ATOM     24  O   UNL     1      -0.988  12.594  19.723  0.00  0.00    +0.000 OA
ATOM     25  C   UNL     1      -1.501  11.287  19.450  0.00  0.00    +0.000 C 
ATOM     26  C   UNL     1      -0.793  10.689  18.228  0.00  0.00    +0.000 C 
ENDBRANCH  20  21
ENDBRANCH   2  20
TORSDOF 3
ENDMDL
MODEL 3
REMARK VINA RESULT:      -8.1      1.224      1.412
REMARK  Name = 
REMARK  3 active torsions:
REMARK  status: ('A' for Active; 'I' for Inactive)
REMARK    1  A    between atoms: C_2  and  C_3
REMARK    2  A    between atoms: C_3  and  N_4
REMARK    3  A    between atoms: C_19  and  C_20
REMARK                            x       y       z     vdW  Elec       q    Type
REMARK                         _______ _______ _______ _____ _____    ______ ____
ROOT
ATOM      1  O   UNL     1       2.236   9.199  17.644  0.00  0.00    +0.000 OA
ATOM      2  C   UNL     1       1.786   8.741  18.703  0.00  0.00    +0.000 C 
ATOM      3  N   UNL     1       2.241   7.512  19.203  0.00  0.00    +0.000 N 
ATOM      4  C   UNL     1       1.754   6.842  20.411  0.00  0.00    +0.000 C 
ATOM      5  C   UNL     1       1.282   5.407  20.164  0.00  0.00    +0.000 C 
ATOM      6  C   UNL     1       2.405   4.400  20.117  0.00  0.00    +0.000 A 
ATOM      7  C   UNL     1       2.419   3.368  21.082  0.00  0.00    +0.000 A 
ATOM      8  C   UNL     1       3.406   2.387  21.085  0.00  0.00    +0.000 A 
ATOM      9  C   UNL     1       4.388   2.405  20.111  0.00  0.00    +0.000 A 
ATOM     10  C   UNL     1       4.377   3.409  19.146  0.00  0.00    +0.000 A 
ATOM     11  C   UNL     1       3.406   4.439  19.127  0.00  0.00    +0.000 A 
ATOM     12  C   UNL     1       3.423   5.536  18.039  0.00  0.00    +0.000 C 
ATOM     13  C   UNL     1       3.483   6.974  18.622  0.00  0.00    +0.000 C 
ENDROOT
BRANCH  12  14
ATOM     14  C   UNL     1       4.585   5.333  17.047  0.00  0.00    +0.000 A 
ATOM     15  C   UNL     1       4.578   4.236  16.172  0.00  0.00    +0.000 A 
ATOM     16  C   UNL     1       5.729   3.896  15.461  0.00  0.00    +0.000 A 
ATOM     17  C   UNL     1       6.894   4.641  15.608  0.00  0.00    +0.000 A 
ATOM     18  C   UNL     1       6.903   5.765  16.435  0.00  0.00    +0.000 A 
ATOM     19  C   UNL     1       5.753   6.115  17.138  0.00  0.00    +0.000 A 
ENDBRANCH  12  14
BRANCH   2  20
ATOM     20  C   UNL     1       0.746   9.562  19.499  0.00  0.00    +0.000 C 
BRANCH  20  21
ATOM     21  N   UNL     1       0.827  10.995  19.140  0.00  0.00    +0.000 NA
ATOM     22  C   UNL     1       1.215  11.867  20.267  0.00  0.00    +0.000 C 
ATOM     23  C   UNL     1       0.076  12.314  21.209  0.00  0.00    +0.000 C 
ATOM     24  O   UNL     1      -1.095  12.747  20.511  0.00  0.00    +0.000 OA
ATOM     25  C   UNL     1      -1.525  11.752  19.577  0.00  0.00    +0.000 C 
ATOM     26  C   UNL     1      -0.424  11.494  18.541  0.00  0.00    +0.000 C 
ENDBRANCH  20  21
ENDBRANCH   2  20
TORSDOF 3
ENDMDL
MODEL 4
REMARK VINA RESULT:      -7.4      1.597      2.007
REMARK  Name = 
REMARK  3 active torsions:
REMARK  status: ('A' for Active; 'I' for Inactive)
REMARK    1  A    between atoms: C_2  and  C_3
REMARK    2  A    between atoms: C_3  and  N_4
REMARK    3  A    between atoms: C_19  and  C_20
REMARK                            x       y       z     vdW  Elec       q    Type
REMARK                         _______ _______ _______ _____ _____    ______ ____
ROOT
ATOM      1  O   UNL     1       2.308   9.419  17.432  0.00  0.00    +0.000 OA
ATOM      2  C   UNL     1       1.909   9.120  18.565  0.00  0.00    +0.000 C 
ATOM      3  N   UNL     1       2.240   7.884  19.139  0.00  0.00    +0.000 N 
ATOM      4  C   UNL     1       1.790   7.394  20.444  0.00  0.00    +0.000 C 
ATOM      5  C   UNL     1       1.105   6.028  20.379  0.00  0.00    +0.000 C 
ATOM      6  C   UNL     1       2.069   4.868  20.331  0.00  0.00    +0.000 A 
ATOM      7  C   UNL     1       2.040   3.928  21.386  0.00  0.00    +0.000 A 
ATOM      8  C   UNL     1       2.880   2.819  21.397  0.00  0.00    +0.000 A 
ATOM      9  C   UNL     1       3.751   2.614  20.344  0.00  0.00    +0.000 A 
ATOM     10  C   UNL     1       3.781   3.524  19.291  0.00  0.00    +0.000 A 
ATOM     11  C   UNL     1       2.962   4.679  19.258  0.00  0.00    +0.000 A 
ATOM     12  C   UNL     1       3.019   5.668  18.071  0.00  0.00    +0.000 C 
ATOM     13  C   UNL     1       3.333   7.126  18.506  0.00  0.00    +0.000 C 
ENDROOT
BRANCH  12  14
ATOM     14  C   UNL     1       4.037   5.217  17.006  0.00  0.00    +0.000 A 
ATOM     15  C   UNL     1       4.132   3.863  16.655  0.00  0.00    +0.000 A 
ATOM     16  C   UNL     1       5.210   3.406  15.895  0.00  0.00    +0.000 A 
ATOM     17  C   UNL     1       6.200   4.288  15.476  0.00  0.00    +0.000 A 
ATOM     18  C   UNL     1       6.094   5.648  15.774  0.00  0.00    +0.000 A 
ATOM     19  C   UNL     1       5.014   6.110  16.522  0.00  0.00    +0.000 A 
ENDBRANCH  12  14
BRANCH   2  20
ATOM     20  C   UNL     1       1.076  10.147  19.366  0.00  0.00    +0.000 C 
BRANCH  20  21
ATOM     21  N   UNL     1      -0.366   9.832  19.276  0.00  0.00    +0.000 NA
ATOM     22  C   UNL     1      -1.003  10.316  18.035  0.00  0.00    +0.000 C 
ATOM     23  C   UNL     1      -1.469  11.788  18.035  0.00  0.00    +0.000 C 
ATOM     24  O   UNL     1      -2.162  12.159  19.230  0.00  0.00    +0.000 OA
ATOM     25  C   UNL     1      -1.385  11.839  20.387  0.00  0.00    +0.000 C 
ATOM     26  C   UNL     1      -1.121  10.329  20.441  0.00  0.00    +0.000 C 
ENDBRANCH  20  21
ENDBRANCH   2  20
TORSDOF 3
ENDMDL
MODEL 5
REMARK VINA RESULT:      -7.3      2.007      4.447
REMARK  Name = 
REMARK  3 active torsions:
REMARK  status: ('A' for Active; 'I' for Inactive)
REMARK    1  A    between atoms: C_2  and  C_3
REMARK    2  A    between atoms: C_3  and  N_4
REMARK    3  A    between atoms: C_19  and  C_20
REMARK                            x       y       z     vdW  Elec       q    Type
REMARK                         _______ _______ _______ _____ _____    ______ ____
ROOT
ATOM      1  O   UNL     1       0.849   8.745  20.386  0.00  0.00    +0.000 OA
ATOM      2  C   UNL     1       1.452   9.105  19.366  0.00  0.00    +0.000 C 
ATOM      3  N   UNL     1       2.127   8.171  18.566  0.00  0.00    +0.000 N 
ATOM      4  C   UNL     1       2.916   8.475  17.370  0.00  0.00    +0.000 C 
ATOM      5  C   UNL     1       4.345   7.932  17.427  0.00  0.00    +0.000 C 
ATOM      6  C   UNL     1       4.453   6.471  17.068  0.00  0.00    +0.000 A 
ATOM      7  C   UNL     1       5.227   6.114  15.941  0.00  0.00    +0.000 A 
ATOM      8  C   UNL     1       5.396   4.785  15.564  0.00  0.00    +0.000 A 
ATOM      9  C   UNL     1       4.811   3.784  16.317  0.00  0.00    +0.000 A 
ATOM     10  C   UNL     1       4.057   4.121  17.438  0.00  0.00    +0.000 A 
ATOM     11  C   UNL     1       3.840   5.462  17.836  0.00  0.00    +0.000 A 
ATOM     12  C   UNL     1       2.999   5.799  19.088  0.00  0.00    +0.000 C 
ATOM     13  C   UNL     1       1.808   6.750  18.786  0.00  0.00    +0.000 C 
ENDROOT
BRANCH  12  14
ATOM     14  C   UNL     1       2.478   4.526  19.782  0.00  0.00    +0.000 A 
ATOM     15  C   UNL     1       1.340   3.872  19.288  0.00  0.00    +0.000 A 
ATOM     16  C   UNL     1       0.710   2.884  20.046  0.00  0.00    +0.000 A 
ATOM     17  C   UNL     1       1.206   2.534  21.296  0.00  0.00    +0.000 A 
ATOM     18  C   UNL     1       2.367   3.139  21.782  0.00  0.00    +0.000 A 
ATOM     19  C   UNL     1       3.005   4.117  21.023  0.00  0.00    +0.000 A 
ENDBRANCH  12  14
BRANCH   2  20
ATOM     20  C   UNL     1       1.416  10.594  18.955  0.00  0.00    +0.000 C 
BRANCH  20  21
ATOM     21  N   UNL     1       0.482  11.351  19.815  0.00  0.00    +0.000 NA
ATOM     22  C   UNL     1      -0.870  11.497  19.238  0.00  0.00    +0.000 C 
ATOM     23  C   UNL     1      -1.067  12.661  18.244  0.00  0.00    +0.000 C 
ATOM     24  O   UNL     1      -0.487  13.890  18.693  0.00  0.00    +0.000 OA
ATOM     25  C   UNL     1       0.887  13.704  19.042  0.00  0.00    +0.000 C 
ATOM     26  C   UNL     1       1.006  12.680  20.178  0.00  0.00    +0.000 C 
ENDBRANCH  20  21
ENDBRANCH   2  20
TORSDOF 3
ENDMDL
MODEL 6
REMARK VINA RESULT:      -7.1      1.827      2.252
REMARK  Name = 
REMARK  3 active torsions:
REMARK  status: ('A' for Active; 'I' for Inactive)
REMARK    1  A    between atoms: C_2  and  C_3
REMARK    2  A    between atoms: C_3  and  N_4
REMARK    3  A    between atoms: C_19  and  C_20
REMARK                            x       y       z     vdW  Elec       q    Type
REMARK                         _______ _______ _______ _____ _____    ______ ____
ROOT
ATOM      1  O   UNL     1       3.177   8.764  17.411  0.00  0.00    +0.000 OA
ATOM      2  C   UNL     1       2.503   8.209  18.289  0.00  0.00    +0.000 C 
ATOM      3  N   UNL     1       2.676   6.846  18.571  0.00  0.00    +0.000 N 
ATOM      4  C   UNL     1       1.909   6.065  19.546  0.00  0.00    +0.000 C 
ATOM      5  C   UNL     1       1.261   4.814  18.950  0.00  0.00    +0.000 C 
ATOM      6  C   UNL     1       2.204   3.643  18.826  0.00  0.00    +0.000 A 
ATOM      7  C   UNL     1       1.907   2.465  19.549  0.00  0.00    +0.000 A 
ATOM      8  C   UNL     1       2.714   1.335  19.465  0.00  0.00    +0.000 A 
ATOM      9  C   UNL     1       3.824   1.351  18.640  0.00  0.00    +0.000 A 
ATOM     10  C   UNL     1       4.121   2.500  17.912  0.00  0.00    +0.000 A 
ATOM     11  C   UNL     1       3.339   3.678  17.994  0.00  0.00    +0.000 A 
ATOM     12  C   UNL     1       3.697   4.935  17.169  0.00  0.00    +0.000 C 
ATOM     13  C   UNL     1       3.892   6.204  18.043  0.00  0.00    +0.000 C 
ENDROOT
BRANCH  12  14
ATOM     14  C   UNL     1       4.950   4.708  16.302  0.00  0.00    +0.000 A 
ATOM     15  C   UNL     1       6.197   5.185  16.733  0.00  0.00    +0.000 A 
ATOM     16  C   UNL     1       7.280   5.218  15.853  0.00  0.00    +0.000 A 
ATOM     17  C   UNL     1       7.137   4.776  14.543  0.00  0.00    +0.000 A 
ATOM     18  C   UNL     1       5.917   4.252  14.113  0.00  0.00    +0.000 A 
ATOM     19  C   UNL     1       4.837   4.206  14.991  0.00  0.00    +0.000 A 
ENDBRANCH  12  14
BRANCH   2  20
ATOM     20  C   UNL     1       1.496   9.047  19.109  0.00  0.00    +0.000 C 
BRANCH  20  21
ATOM     21  N   UNL     1       1.007  10.197  18.318  0.00  0.00    +0.000 NA
ATOM     22  C   UNL     1       1.516  11.500  18.789  0.00  0.00    +0.000 C 
ATOM     23  C   UNL     1       0.743  12.155  19.953  0.00  0.00    +0.000 C 
ATOM     24  O   UNL     1      -0.677  12.109  19.784  0.00  0.00    +0.000 OA
ATOM     25  C   UNL     1      -1.113  10.771  19.530  0.00  0.00    +0.000 C 
ATOM     26  C   UNL     1      -0.464  10.241  18.245  0.00  0.00    +0.000 C 
ENDBRANCH  20  21
ENDBRANCH   2  20
TORSDOF 3
ENDMDL
MODEL 7
REMARK VINA RESULT:      -7.1      2.122      4.576
REMARK  Name = 
REMARK  3 active torsions:
REMARK  status: ('A' for Active; 'I' for Inactive)
REMARK    1  A    between atoms: C_2  and  C_3
REMARK    2  A    between atoms: C_3  and  N_4
REMARK    3  A    between atoms: C_19  and  C_20
REMARK                            x       y       z     vdW  Elec       q    Type
REMARK                         _______ _______ _______ _____ _____    ______ ____
ROOT
ATOM      1  O   UNL     1       0.708   9.170  20.237  0.00  0.00    +0.000 OA
ATOM      2  C   UNL     1       1.375   9.411  19.221  0.00  0.00    +0.000 C 
ATOM      3  N   UNL     1       2.026   8.379  18.529  0.00  0.00    +0.000 N 
ATOM      4  C   UNL     1       2.882   8.540  17.351  0.00  0.00    +0.000 C 
ATOM      5  C   UNL     1       4.272   7.923  17.519  0.00  0.00    +0.000 C 
ATOM      6  C   UNL     1       4.306   6.433  17.281  0.00  0.00    +0.000 A 
ATOM      7  C   UNL     1       5.105   5.943  16.223  0.00  0.00    +0.000 A 
ATOM      8  C   UNL     1       5.208   4.581  15.959  0.00  0.00    +0.000 A 
ATOM      9  C   UNL     1       4.532   3.679  16.759  0.00  0.00    +0.000 A 
ATOM     10  C   UNL     1       3.753   4.147  17.813  0.00  0.00    +0.000 A 
ATOM     11  C   UNL     1       3.601   5.526  18.096  0.00  0.00    +0.000 A 
ATOM     12  C   UNL     1       2.729   6.011  19.276  0.00  0.00    +0.000 C 
ATOM     13  C   UNL     1       1.613   7.001  18.844  0.00  0.00    +0.000 C 
ENDROOT
BRANCH  12  14
ATOM     14  C   UNL     1       2.103   4.830  20.042  0.00  0.00    +0.000 A 
ATOM     15  C   UNL     1       2.612   4.457  21.295  0.00  0.00    +0.000 A 
ATOM     16  C   UNL     1       2.235   3.245  21.875  0.00  0.00    +0.000 A 
ATOM     17  C   UNL     1       1.351   2.396  21.221  0.00  0.00    +0.000 A 
ATOM     18  C   UNL     1       0.796   2.774  19.997  0.00  0.00    +0.000 A 
ATOM     19  C   UNL     1       1.160   3.988  19.420  0.00  0.00    +0.000 A 
ENDBRANCH  12  14
BRANCH   2  20
ATOM     20  C   UNL     1       1.447  10.862  18.693  0.00  0.00    +0.000 C 
BRANCH  20  21
ATOM     21  N   UNL     1       0.951  11.813  19.711  0.00  0.00    +0.000 NA
ATOM     22  C   UNL     1      -0.389  12.358  19.410  0.00  0.00    +0.000 C 
ATOM     23  C   UNL     1      -0.434  13.573  18.458  0.00  0.00    +0.000 C 
ATOM     24  O   UNL     1       0.545  14.568  18.768  0.00  0.00    +0.000 OA
ATOM     25  C   UNL     1       1.851  13.989  18.842  0.00  0.00    +0.000 C 
ATOM     26  C   UNL     1       1.891  12.924  19.945  0.00  0.00    +0.000 C 
ENDBRANCH  20  21
ENDBRANCH   2  20
TORSDOF 3
ENDMDL
MODEL 8
REMARK VINA RESULT:      -7.0      1.021      1.043
REMARK  Name = 
REMARK  3 active torsions:
REMARK  status: ('A' for Active; 'I' for Inactive)
REMARK    1  A    between atoms: C_2  and  C_3
REMARK    2  A    between atoms: C_3  and  N_4
REMARK    3  A    between atoms: C_19  and  C_20
REMARK                            x       y       z     vdW  Elec       q    Type
REMARK                         _______ _______ _______ _____ _____    ______ ____
ROOT
ATOM      1  O   UNL     1       2.335   8.808  19.072  0.00  0.00    +0.000 OA
ATOM      2  C   UNL     1       1.755   7.966  19.772  0.00  0.00    +0.000 C 
ATOM      3  N   UNL     1       2.112   6.611  19.707  0.00  0.00    +0.000 N 
ATOM      4  C   UNL     1       1.472   5.517  20.442  0.00  0.00    +0.000 C 
ATOM      5  C   UNL     1       0.985   4.381  19.542  0.00  0.00    +0.000 C 
ATOM      6  C   UNL     1       2.072   3.413  19.145  0.00  0.00    +0.000 A 
ATOM      7  C   UNL     1       1.946   2.063  19.545  0.00  0.00    +0.000 A 
ATOM      8  C   UNL     1       2.895   1.108  19.194  0.00  0.00    +0.000 A 
ATOM      9  C   UNL     1       3.978   1.477  18.418  0.00  0.00    +0.000 A 
ATOM     10  C   UNL     1       4.108   2.800  18.005  0.00  0.00    +0.000 A 
ATOM     11  C   UNL     1       3.179   3.806  18.366  0.00  0.00    +0.000 A 
ATOM     12  C   UNL     1       3.352   5.265  17.888  0.00  0.00    +0.000 C 
ATOM     13  C   UNL     1       3.393   6.289  19.055  0.00  0.00    +0.000 C 
ENDROOT
BRANCH  12  14
ATOM     14  C   UNL     1       4.610   5.430  17.013  0.00  0.00    +0.000 A 
ATOM     15  C   UNL     1       4.694   4.775  15.775  0.00  0.00    +0.000 A 
ATOM     16  C   UNL     1       5.913   4.703  15.099  0.00  0.00    +0.000 A 
ATOM     17  C   UNL     1       7.054   5.280  15.642  0.00  0.00    +0.000 A 
ATOM     18  C   UNL     1       6.977   5.978  16.849  0.00  0.00    +0.000 A 
ATOM     19  C   UNL     1       5.761   6.063  17.521  0.00  0.00    +0.000 A 
ENDBRANCH  12  14
BRANCH   2  20
ATOM     20  C   UNL     1       0.661   8.431  20.759  0.00  0.00    +0.000 C 
BRANCH  20  21
ATOM     21  N   UNL     1       1.157   9.537  21.606  0.00  0.00    +0.000 NA
ATOM     22  C   UNL     1       0.651   9.495  22.993  0.00  0.00    +0.000 C 
ATOM     23  C   UNL     1      -0.738  10.124  23.233  0.00  0.00    +0.000 C 
ATOM     24  O   UNL     1      -0.902  11.391  22.591  0.00  0.00    +0.000 OA
ATOM     25  C   UNL     1      -0.584  11.298  21.199  0.00  0.00    +0.000 C 
ATOM     26  C   UNL     1       0.875  10.861  21.022  0.00  0.00    +0.000 C 
ENDBRANCH  20  21
ENDBRANCH   2  20
TORSDOF 3
ENDMDL
MODEL 9
REMARK VINA RESULT:      -7.0      2.932      8.006
REMARK  Name = 
REMARK  3 active torsions:
REMARK  status: ('A' for Active; 'I' for Inactive)
REMARK    1  A    between atoms: C_2  and  C_3
REMARK    2  A    between atoms: C_3  and  N_4
REMARK    3  A    between atoms: C_19  and  C_20
REMARK                            x       y       z     vdW  Elec       q    Type
REMARK                         _______ _______ _______ _____ _____    ______ ____
ROOT
ATOM      1  O   UNL     1       2.473   7.880  19.710  0.00  0.00    +0.000 OA
ATOM      2  C   UNL     1       1.497   7.653  20.439  0.00  0.00    +0.000 C 
ATOM      3  N   UNL     1       0.656   8.695  20.856  0.00  0.00    +0.000 N 
ATOM      4  C   UNL     1      -0.493   8.564  21.755  0.00  0.00    +0.000 C 
ATOM      5  C   UNL     1      -0.430   9.496  22.966  0.00  0.00    +0.000 C 
ATOM      6  C   UNL     1      -0.883  10.905  22.670  0.00  0.00    +0.000 A 
ATOM      7  C   UNL     1      -2.009  11.406  23.363  0.00  0.00    +0.000 A 
ATOM      8  C   UNL     1      -2.469  12.704  23.164  0.00  0.00    +0.000 A 
ATOM      9  C   UNL     1      -1.802  13.535  22.283  0.00  0.00    +0.000 A 
ATOM     10  C   UNL     1      -0.684  13.059  21.604  0.00  0.00    +0.000 A 
ATOM     11  C   UNL     1      -0.203  11.737  21.759  0.00  0.00    +0.000 A 
ATOM     12  C   UNL     1       1.044  11.242  20.991  0.00  0.00    +0.000 C 
ATOM     13  C   UNL     1       0.771   9.974  20.137  0.00  0.00    +0.000 C 
ENDROOT
BRANCH  12  14
ATOM     14  C   UNL     1       1.635  12.349  20.097  0.00  0.00    +0.000 A 
ATOM     15  C   UNL     1       1.547  12.246  18.701  0.00  0.00    +0.000 A 
ATOM     16  C   UNL     1       2.295  13.095  17.884  0.00  0.00    +0.000 A 
ATOM     17  C   UNL     1       3.133  14.052  18.443  0.00  0.00    +0.000 A 
ATOM     18  C   UNL     1       3.194  14.202  19.830  0.00  0.00    +0.000 A 
ATOM     19  C   UNL     1       2.440  13.365  20.649  0.00  0.00    +0.000 A 
ENDBRANCH  12  14
BRANCH   2  20
ATOM     20  C   UNL     1       1.186   6.195  20.848  0.00  0.00    +0.000 C 
BRANCH  20  21
ATOM     21  N   UNL     1       2.255   5.284  20.388  0.00  0.00    +0.000 NA
ATOM     22  C   UNL     1       1.996   4.684  19.064  0.00  0.00    +0.000 C 
ATOM     23  C   UNL     1       1.109   3.421  19.047  0.00  0.00    +0.000 C 
ATOM     24  O   UNL     1       1.460   2.473  20.059  0.00  0.00    +0.000 OA
ATOM     25  C   UNL     1       1.491   3.094  21.347  0.00  0.00    +0.000 C 
ATOM     26  C   UNL     1       2.538   4.215  21.364  0.00  0.00    +0.000 C 
ENDBRANCH  20  21
ENDBRANCH   2  20
TORSDOF 3
ENDMDL
