MODEL 1
REMARK VINA RESULT:      -6.3      0.000      0.000
REMARK  Name = 
REMARK  4 active torsions:
REMARK  status: ('A' for Active; 'I' for Inactive)
REMARK    1  A    between atoms: C_1  and  C_2
REMARK    2  A    between atoms: C_2  and  O_3
REMARK    3  A    between atoms: O_3  and  C_4
REMARK    4  A    between atoms: C_4  and  C_6
REMARK                            x       y       z     vdW  Elec       q    Type
REMARK                         _______ _______ _______ _____ _____    ______ ____
ROOT
ATOM      1  C   UNL     1       5.384   3.851  16.462  0.00  0.00    +0.000 C 
ATOM      2  C   UNL     1       4.319   4.151  17.229  0.00  0.00    +0.000 C 
ATOM      3  C   UNL     1       3.637   2.980  17.873  0.00  0.00    +0.000 C 
ATOM      4  O   UNL     1       3.838   1.804  17.636  0.00  0.00    +0.000 OA
ATOM      5  S   UNL     1       2.506   3.565  19.095  0.00  0.00    +0.000 S 
ATOM      6  C   UNL     1       2.805   5.269  18.683  0.00  0.00    +0.000 A 
ATOM      7  C   UNL     1       2.165   6.352  19.279  0.00  0.00    +0.000 A 
ATOM      8  C   UNL     1       2.443   7.638  18.817  0.00  0.00    +0.000 A 
ATOM      9  C   UNL     1       3.321   7.821  17.746  0.00  0.00    +0.000 A 
ATOM     10  C   UNL     1       3.948   6.723  17.149  0.00  0.00    +0.000 A 
ATOM     11  C   UNL     1       3.737   5.440  17.650  0.00  0.00    +0.000 A 
ENDROOT
BRANCH   1  12
ATOM     12  C   UNL     1       6.315   4.848  15.925  0.00  0.00    +0.000 C 
ATOM     13  O   UNL     1       6.077   5.567  14.968  0.00  0.00    +0.000 OA
BRANCH  12  14
ATOM     14  O   UNL     1       7.480   4.793  16.606  0.00  0.00    +0.000 OA
BRANCH  14  16
ATOM     15  C   UNL     1       7.555   6.996  17.793  0.00  0.00    +0.000 C 
ATOM     16  C   UNL     1       7.504   5.478  17.870  0.00  0.00    +0.000 C 
ENDBRANCH  14  16
ENDBRANCH  12  14
ENDBRANCH   1  12
TORSDOF 3
ENDMDL
MODEL 2
REMARK VINA RESULT:      -6.2      2.877      5.172
REMARK  Name = 
REMARK  4 active torsions:
REMARK  status: ('A' for Active; 'I' for Inactive)
REMARK    1  A    between atoms: C_1  and  C_2
REMARK    2  A    between atoms: C_2  and  O_3
REMARK    3  A    between atoms: O_3  and  C_4
REMARK    4  A    between atoms: C_4  and  C_6
REMARK                            x       y       z     vdW  Elec       q    Type
REMARK                         _______ _______ _______ _____ _____    ______ ____
ROOT
ATOM      1  C   UNL     1       3.544   7.484  17.672  0.00  0.00    +0.000 C 
ATOM      2  C   UNL     1       3.845   6.205  17.374  0.00  0.00    +0.000 C 
ATOM      3  C   UNL     1       5.186   5.988  16.740  0.00  0.00    +0.000 C 
ATOM      4  O   UNL     1       5.936   6.849  16.319  0.00  0.00    +0.000 OA
ATOM      5  S   UNL     1       5.557   4.263  16.738  0.00  0.00    +0.000 S 
ATOM      6  C   UNL     1       3.967   3.830  17.406  0.00  0.00    +0.000 A 
ATOM      7  C   UNL     1       3.535   2.529  17.644  0.00  0.00    +0.000 A 
ATOM      8  C   UNL     1       2.237   2.323  18.109  0.00  0.00    +0.000 A 
ATOM      9  C   UNL     1       1.380   3.410  18.292  0.00  0.00    +0.000 A 
ATOM     10  C   UNL     1       1.822   4.711  18.037  0.00  0.00    +0.000 A 
ATOM     11  C   UNL     1       3.140   4.937  17.645  0.00  0.00    +0.000 A 
ENDROOT
BRANCH   1  12
ATOM     12  C   UNL     1       2.393   7.888  18.486  0.00  0.00    +0.000 C 
ATOM     13  O   UNL     1       2.259   7.621  19.668  0.00  0.00    +0.000 OA
BRANCH  12  14
ATOM     14  O   UNL     1       1.495   8.532  17.710  0.00  0.00    +0.000 OA
BRANCH  14  16
ATOM     15  C   UNL     1      -0.551   9.962  17.908  0.00  0.00    +0.000 C 
ATOM     16  C   UNL     1       0.903   9.713  18.278  0.00  0.00    +0.000 C 
ENDBRANCH  14  16
ENDBRANCH  12  14
ENDBRANCH   1  12
TORSDOF 3
ENDMDL
MODEL 3
REMARK VINA RESULT:      -6.2      0.886      1.003
REMARK  Name = 
REMARK  4 active torsions:
REMARK  status: ('A' for Active; 'I' for Inactive)
REMARK    1  A    between atoms: C_1  and  C_2
REMARK    2  A    between atoms: C_2  and  O_3
REMARK    3  A    between atoms: O_3  and  C_4
REMARK    4  A    between atoms: C_4  and  C_6
REMARK                            x       y       z     vdW  Elec       q    Type
REMARK                         _______ _______ _______ _____ _____    ______ ____
ROOT
ATOM      1  C   UNL     1       5.032   4.751  16.414  0.00  0.00    +0.000 C 
ATOM      2  C   UNL     1       4.094   4.776  17.380  0.00  0.00    +0.000 C 
ATOM      3  C   UNL     1       3.747   3.446  17.979  0.00  0.00    +0.000 C 
ATOM      4  O   UNL     1       4.092   2.354  17.568  0.00  0.00    +0.000 OA
ATOM      5  S   UNL     1       2.784   3.697  19.436  0.00  0.00    +0.000 S 
ATOM      6  C   UNL     1       2.715   5.457  19.194  0.00  0.00    +0.000 A 
ATOM      7  C   UNL     1       2.027   6.344  20.017  0.00  0.00    +0.000 A 
ATOM      8  C   UNL     1       1.998   7.696  19.678  0.00  0.00    +0.000 A 
ATOM      9  C   UNL     1       2.618   8.136  18.507  0.00  0.00    +0.000 A 
ATOM     10  C   UNL     1       3.294   7.233  17.681  0.00  0.00    +0.000 A 
ATOM     11  C   UNL     1       3.397   5.892  18.049  0.00  0.00    +0.000 A 
ENDROOT
BRANCH   1  12
ATOM     12  C   UNL     1       5.669   5.947  15.856  0.00  0.00    +0.000 C 
ATOM     13  O   UNL     1       5.126   6.716  15.079  0.00  0.00    +0.000 OA
BRANCH  12  14
ATOM     14  O   UNL     1       6.949   6.020  16.281  0.00  0.00    +0.000 OA
BRANCH  14  16
ATOM     15  C   UNL     1       7.727   6.243  18.650  0.00  0.00    +0.000 C 
ATOM     16  C   UNL     1       7.196   6.904  17.388  0.00  0.00    +0.000 C 
ENDBRANCH  14  16
ENDBRANCH  12  14
ENDBRANCH   1  12
TORSDOF 3
ENDMDL
MODEL 4
REMARK VINA RESULT:      -6.1      2.041      4.172
REMARK  Name = 
REMARK  4 active torsions:
REMARK  status: ('A' for Active; 'I' for Inactive)
REMARK    1  A    between atoms: C_1  and  C_2
REMARK    2  A    between atoms: C_2  and  O_3
REMARK    3  A    between atoms: O_3  and  C_4
REMARK    4  A    between atoms: C_4  and  C_6
REMARK                            x       y       z     vdW  Elec       q    Type
REMARK                         _______ _______ _______ _____ _____    ______ ____
ROOT
ATOM      1  C   UNL     1       3.745   2.897  17.578  0.00  0.00    +0.000 C 
ATOM      2  C   UNL     1       4.083   4.186  17.386  0.00  0.00    +0.000 C 
ATOM      3  C   UNL     1       5.203   4.423  16.417  0.00  0.00    +0.000 C 
ATOM      4  O   UNL     1       5.935   3.579  15.935  0.00  0.00    +0.000 OA
ATOM      5  S   UNL     1       5.279   6.142  16.024  0.00  0.00    +0.000 S 
ATOM      6  C   UNL     1       3.996   6.554  17.185  0.00  0.00    +0.000 A 
ATOM      7  C   UNL     1       3.542   7.846  17.438  0.00  0.00    +0.000 A 
ATOM      8  C   UNL     1       2.575   8.039  18.423  0.00  0.00    +0.000 A 
ATOM      9  C   UNL     1       2.105   6.954  19.164  0.00  0.00    +0.000 A 
ATOM     10  C   UNL     1       2.578   5.663  18.908  0.00  0.00    +0.000 A 
ATOM     11  C   UNL     1       3.488   5.445  17.875  0.00  0.00    +0.000 A 
ENDROOT
BRANCH   1  12
ATOM     12  C   UNL     1       2.549   2.461  18.306  0.00  0.00    +0.000 C 
ATOM     13  O   UNL     1       1.432   2.402  17.819  0.00  0.00    +0.000 OA
BRANCH  12  14
ATOM     14  O   UNL     1       2.870   2.206  19.593  0.00  0.00    +0.000 OA
BRANCH  14  16
ATOM     15  C   UNL     1       2.133   3.349  21.695  0.00  0.00    +0.000 C 
ATOM     16  C   UNL     1       1.817   2.395  20.553  0.00  0.00    +0.000 C 
ENDBRANCH  14  16
ENDBRANCH  12  14
ENDBRANCH   1  12
TORSDOF 3
ENDMDL
MODEL 5
REMARK VINA RESULT:      -6.1      2.667      4.938
REMARK  Name = 
REMARK  4 active torsions:
REMARK  status: ('A' for Active; 'I' for Inactive)
REMARK    1  A    between atoms: C_1  and  C_2
REMARK    2  A    between atoms: C_2  and  O_3
REMARK    3  A    between atoms: O_3  and  C_4
REMARK    4  A    between atoms: C_4  and  C_6
REMARK                            x       y       z     vdW  Elec       q    Type
REMARK                         _______ _______ _______ _____ _____    ______ ____
ROOT
ATOM      1  C   UNL     1       3.326   4.228  19.705  0.00  0.00    +0.000 C 
ATOM      2  C   UNL     1       3.524   5.109  18.705  0.00  0.00    +0.000 C 
ATOM      3  C   UNL     1       2.986   6.488  18.944  0.00  0.00    +0.000 C 
ATOM      4  O   UNL     1       2.253   6.833  19.852  0.00  0.00    +0.000 OA
ATOM      5  S   UNL     1       3.626   7.582  17.717  0.00  0.00    +0.000 S 
ATOM      6  C   UNL     1       4.447   6.268  16.845  0.00  0.00    +0.000 A 
ATOM      7  C   UNL     1       5.168   6.428  15.665  0.00  0.00    +0.000 A 
ATOM      8  C   UNL     1       5.709   5.302  15.047  0.00  0.00    +0.000 A 
ATOM      9  C   UNL     1       5.489   4.034  15.588  0.00  0.00    +0.000 A 
ATOM     10  C   UNL     1       4.751   3.885  16.766  0.00  0.00    +0.000 A 
ATOM     11  C   UNL     1       4.271   5.009  17.436  0.00  0.00    +0.000 A 
ENDROOT
BRANCH   1  12
ATOM     12  C   UNL     1       3.954   2.905  19.770  0.00  0.00    +0.000 C 
ATOM     13  O   UNL     1       5.131   2.715  20.031  0.00  0.00    +0.000 OA
BRANCH  12  14
ATOM     14  O   UNL     1       3.051   1.958  19.435  0.00  0.00    +0.000 OA
BRANCH  14  16
ATOM     15  C   UNL     1       0.680   2.263  18.692  0.00  0.00    +0.000 C 
ATOM     16  C   UNL     1       1.692   2.216  19.826  0.00  0.00    +0.000 C 
ENDBRANCH  14  16
ENDBRANCH  12  14
ENDBRANCH   1  12
TORSDOF 3
ENDMDL
MODEL 6
REMARK VINA RESULT:      -6.1      1.338      2.033
REMARK  Name = 
REMARK  4 active torsions:
REMARK  status: ('A' for Active; 'I' for Inactive)
REMARK    1  A    between atoms: C_1  and  C_2
REMARK    2  A    between atoms: C_2  and  O_3
REMARK    3  A    between atoms: O_3  and  C_4
REMARK    4  A    between atoms: C_4  and  C_6
REMARK                            x       y       z     vdW  Elec       q    Type
REMARK                         _______ _______ _______ _____ _____    ______ ____
ROOT
ATOM      1  C   UNL     1       6.405   4.504  18.120  0.00  0.00    +0.000 C 
ATOM      2  C   UNL     1       5.146   4.747  18.530  0.00  0.00    +0.000 C 
ATOM      3  C   UNL     1       4.560   3.726  19.459  0.00  0.00    +0.000 C 
ATOM      4  O   UNL     1       5.033   2.638  19.731  0.00  0.00    +0.000 OA
ATOM      5  S   UNL     1       3.073   4.363  20.162  0.00  0.00    +0.000 S 
ATOM      6  C   UNL     1       3.136   5.842  19.177  0.00  0.00    +0.000 A 
ATOM      7  C   UNL     1       2.175   6.849  19.196  0.00  0.00    +0.000 A 
ATOM      8  C   UNL     1       2.311   7.928  18.324  0.00  0.00    +0.000 A 
ATOM      9  C   UNL     1       3.375   7.967  17.421  0.00  0.00    +0.000 A 
ATOM     10  C   UNL     1       4.326   6.943  17.403  0.00  0.00    +0.000 A 
ATOM     11  C   UNL     1       4.245   5.898  18.322  0.00  0.00    +0.000 A 
ENDROOT
BRANCH   1  12
ATOM     12  C   UNL     1       7.234   5.471  17.395  0.00  0.00    +0.000 C 
ATOM     13  O   UNL     1       7.615   6.534  17.858  0.00  0.00    +0.000 OA
BRANCH  12  14
ATOM     14  O   UNL     1       7.445   5.033  16.135  0.00  0.00    +0.000 OA
BRANCH  14  16
ATOM     15  C   UNL     1       5.637   4.519  14.481  0.00  0.00    +0.000 C 
ATOM     16  C   UNL     1       6.507   4.061  15.641  0.00  0.00    +0.000 C 
ENDBRANCH  14  16
ENDBRANCH  12  14
ENDBRANCH   1  12
TORSDOF 3
ENDMDL
MODEL 7
REMARK VINA RESULT:      -6.0      1.293      1.463
REMARK  Name = 
REMARK  4 active torsions:
REMARK  status: ('A' for Active; 'I' for Inactive)
REMARK    1  A    between atoms: C_1  and  C_2
REMARK    2  A    between atoms: C_2  and  O_3
REMARK    3  A    between atoms: O_3  and  C_4
REMARK    4  A    between atoms: C_4  and  C_6
REMARK                            x       y       z     vdW  Elec       q    Type
REMARK                         _______ _______ _______ _____ _____    ______ ____
ROOT
ATOM      1  C   UNL     1       4.432   3.664  17.799  0.00  0.00    +0.000 C 
ATOM      2  C   UNL     1       3.533   4.305  18.570  0.00  0.00    +0.000 C 
ATOM      3  C   UNL     1       2.928   3.488  19.673  0.00  0.00    +0.000 C 
ATOM      4  O   UNL     1       3.035   2.286  19.826  0.00  0.00    +0.000 OA
ATOM      5  S   UNL     1       2.059   4.555  20.778  0.00  0.00    +0.000 S 
ATOM      6  C   UNL     1       2.351   5.988  19.767  0.00  0.00    +0.000 A 
ATOM      7  C   UNL     1       1.874   7.265  20.045  0.00  0.00    +0.000 A 
ATOM      8  C   UNL     1       2.120   8.291  19.134  0.00  0.00    +0.000 A 
ATOM      9  C   UNL     1       2.799   8.021  17.945  0.00  0.00    +0.000 A 
ATOM     10  C   UNL     1       3.263   6.731  17.671  0.00  0.00    +0.000 A 
ATOM     11  C   UNL     1       3.091   5.714  18.608  0.00  0.00    +0.000 A 
ENDROOT
BRANCH   1  12
ATOM     12  C   UNL     1       5.293   4.329  16.817  0.00  0.00    +0.000 C 
ATOM     13  O   UNL     1       5.095   4.324  15.613  0.00  0.00    +0.000 OA
BRANCH  12  14
ATOM     14  O   UNL     1       6.356   4.878  17.445  0.00  0.00    +0.000 OA
BRANCH  14  16
ATOM     15  C   UNL     1       7.364   7.169  17.516  0.00  0.00    +0.000 C 
ATOM     16  C   UNL     1       7.051   5.909  16.723  0.00  0.00    +0.000 C 
ENDBRANCH  14  16
ENDBRANCH  12  14
ENDBRANCH   1  12
TORSDOF 3
ENDMDL
MODEL 8
REMARK VINA RESULT:      -6.0      1.104      2.128
REMARK  Name = 
REMARK  4 active torsions:
REMARK  status: ('A' for Active; 'I' for Inactive)
REMARK    1  A    between atoms: C_1  and  C_2
REMARK    2  A    between atoms: C_2  and  O_3
REMARK    3  A    between atoms: O_3  and  C_4
REMARK    4  A    between atoms: C_4  and  C_6
REMARK                            x       y       z     vdW  Elec       q    Type
REMARK                         _______ _______ _______ _____ _____    ______ ____
ROOT
ATOM      1  C   UNL     1       5.402   3.618  16.513  0.00  0.00    +0.000 C 
ATOM      2  C   UNL     1       4.343   3.979  17.262  0.00  0.00    +0.000 C 
ATOM      3  C   UNL     1       3.619   2.855  17.941  0.00  0.00    +0.000 C 
ATOM      4  O   UNL     1       3.782   1.665  17.746  0.00  0.00    +0.000 OA
ATOM      5  S   UNL     1       2.502   3.519  19.135  0.00  0.00    +0.000 S 
ATOM      6  C   UNL     1       2.860   5.196  18.668  0.00  0.00    +0.000 A 
ATOM      7  C   UNL     1       2.254   6.320  19.222  0.00  0.00    +0.000 A 
ATOM      8  C   UNL     1       2.578   7.579  18.719  0.00  0.00    +0.000 A 
ATOM      9  C   UNL     1       3.466   7.696  17.648  0.00  0.00    +0.000 A 
ATOM     10  C   UNL     1       4.059   6.558  17.092  0.00  0.00    +0.000 A 
ATOM     11  C   UNL     1       3.803   5.301  17.636  0.00  0.00    +0.000 A 
ENDROOT
BRANCH   1  12
ATOM     12  C   UNL     1       6.369   4.565  15.948  0.00  0.00    +0.000 C 
ATOM     13  O   UNL     1       7.335   5.003  16.551  0.00  0.00    +0.000 OA
BRANCH  12  14
ATOM     14  O   UNL     1       5.983   4.916  14.702  0.00  0.00    +0.000 OA
BRANCH  14  16
ATOM     15  C   UNL     1       5.843   3.476  12.659  0.00  0.00    +0.000 C 
ATOM     16  C   UNL     1       6.695   4.288  13.622  0.00  0.00    +0.000 C 
ENDBRANCH  14  16
ENDBRANCH  12  14
ENDBRANCH   1  12
TORSDOF 3
ENDMDL
MODEL 9
REMARK VINA RESULT:      -5.9      2.823      4.978
REMARK  Name = 
REMARK  4 active torsions:
REMARK  status: ('A' for Active; 'I' for Inactive)
REMARK    1  A    between atoms: C_1  and  C_2
REMARK    2  A    between atoms: C_2  and  O_3
REMARK    3  A    between atoms: O_3  and  C_4
REMARK    4  A    between atoms: C_4  and  C_6
REMARK                            x       y       z     vdW  Elec       q    Type
REMARK                         _______ _______ _______ _____ _____    ______ ____
ROOT
ATOM      1  C   UNL     1       3.541   7.707  17.621  0.00  0.00    +0.000 C 
ATOM      2  C   UNL     1       3.945   6.431  17.477  0.00  0.00    +0.000 C 
ATOM      3  C   UNL     1       5.395   6.246  17.142  0.00  0.00    +0.000 C 
ATOM      4  O   UNL     1       6.181   7.118  16.822  0.00  0.00    +0.000 OA
ATOM      5  S   UNL     1       5.824   4.546  17.334  0.00  0.00    +0.000 S 
ATOM      6  C   UNL     1       4.150   4.072  17.697  0.00  0.00    +0.000 A 
ATOM      7  C   UNL     1       3.729   2.766  17.932  0.00  0.00    +0.000 A 
ATOM      8  C   UNL     1       2.372   2.522  18.140  0.00  0.00    +0.000 A 
ATOM      9  C   UNL     1       1.455   3.571  18.072  0.00  0.00    +0.000 A 
ATOM     10  C   UNL     1       1.889   4.876  17.822  0.00  0.00    +0.000 A 
ATOM     11  C   UNL     1       3.249   5.146  17.689  0.00  0.00    +0.000 A 
ENDROOT
BRANCH   1  12
ATOM     12  C   UNL     1       2.234   8.100  18.157  0.00  0.00    +0.000 C 
ATOM     13  O   UNL     1       1.327   8.564  17.485  0.00  0.00    +0.000 OA
BRANCH  12  14
ATOM     14  O   UNL     1       2.224   7.930  19.497  0.00  0.00    +0.000 OA
BRANCH  14  16
ATOM     15  C   UNL     1       1.028   8.365  21.653  0.00  0.00    +0.000 C 
ATOM     16  C   UNL     1       1.359   8.809  20.236  0.00  0.00    +0.000 C 
ENDBRANCH  14  16
ENDBRANCH  12  14
ENDBRANCH   1  12
TORSDOF 3
ENDMDL
