MODEL 1
REMARK VINA RESULT:      -7.9      0.000      0.000
REMARK  Name = 
REMARK  6 active torsions:
REMARK  status: ('A' for Active; 'I' for Inactive)
REMARK    1  A    between atoms: C_1  and  O_2
REMARK    2  A    between atoms: O_2  and  C_3
REMARK    3  A    between atoms: C_6  and  N_7
REMARK    4  A    between atoms: N_7  and  C_8
REMARK    5  A    between atoms: C_9  and  C_10
REMARK    6  A    between atoms: C_10  and  C_12
REMARK                            x       y       z     vdW  Elec       q    Type
REMARK                         _______ _______ _______ _____ _____    ______ ____
ROOT
ATOM      1  C   UNL     1       5.168   3.853  16.114  0.00  0.00    +0.000 C 
ATOM      2  C   UNL     1       4.011   3.789  16.787  0.00  0.00    +0.000 C 
ENDROOT
BRANCH   1   3
ATOM      3  N   UNL     1       6.436   4.039  16.604  0.00  0.00    +0.000 N 
ATOM      4  H   UNL     1       7.104   3.303  16.357  0.00  0.00    +0.000 HD
BRANCH   3   8
ATOM      5  C   UNL     1       8.108   7.452  18.464  0.00  0.00    +0.000 A 
ATOM      6  C   UNL     1       7.470   7.542  17.228  0.00  0.00    +0.000 A 
ATOM      7  C   UNL     1       6.898   6.412  16.635  0.00  0.00    +0.000 A 
ATOM      8  C   UNL     1       6.956   5.162  17.265  0.00  0.00    +0.000 A 
ATOM      9  C   UNL     1       7.629   5.079  18.490  0.00  0.00    +0.000 A 
ATOM     10  C   UNL     1       8.189   6.213  19.094  0.00  0.00    +0.000 A 
BRANCH   5  12
ATOM     11  C   UNL     1       8.531   9.746  18.081  0.00  0.00    +0.000 C 
ATOM     12  O   UNL     1       8.658   8.613  18.933  0.00  0.00    +0.000 OA
ENDBRANCH   5  12
ENDBRANCH   3   8
ENDBRANCH   1   3
BRANCH   2  13
ATOM     13  C   UNL     1       3.958   3.872  18.267  0.00  0.00    +0.000 C 
ATOM     14  O   UNL     1       4.566   3.079  18.982  0.00  0.00    +0.000 OA
BRANCH  13  15
ATOM     15  C   UNL     1       3.185   4.985  18.876  0.00  0.00    +0.000 A 
ATOM     16  C   UNL     1       2.588   4.931  20.138  0.00  0.00    +0.000 A 
ATOM     17  C   UNL     1       1.929   6.062  20.644  0.00  0.00    +0.000 A 
ATOM     18  C   UNL     1       1.858   7.257  19.901  0.00  0.00    +0.000 A 
ATOM     19  C   UNL     1       2.448   7.299  18.638  0.00  0.00    +0.000 A 
ATOM     20  C   UNL     1       3.113   6.167  18.140  0.00  0.00    +0.000 A 
ATOM     21  C   UNL     1       2.487   8.535  17.796  0.00  0.00    +0.000 C 
ATOM     22  C   UNL     1       1.575   9.679  18.202  0.00  0.00    +0.000 C 
ATOM     23  C   UNL     1       1.072   9.721  19.638  0.00  0.00    +0.000 C 
ATOM     24  C   UNL     1       1.210   8.471  20.509  0.00  0.00    +0.000 C 
ENDBRANCH  13  15
ENDBRANCH   2  13
TORSDOF 5
ENDMDL
MODEL 2
REMARK VINA RESULT:      -7.7      0.705      1.223
REMARK  Name = 
REMARK  6 active torsions:
REMARK  status: ('A' for Active; 'I' for Inactive)
REMARK    1  A    between atoms: C_1  and  O_2
REMARK    2  A    between atoms: O_2  and  C_3
REMARK    3  A    between atoms: C_6  and  N_7
REMARK    4  A    between atoms: N_7  and  C_8
REMARK    5  A    between atoms: C_9  and  C_10
REMARK    6  A    between atoms: C_10  and  C_12
REMARK                            x       y       z     vdW  Elec       q    Type
REMARK                         _______ _______ _______ _____ _____    ______ ____
ROOT
ATOM      1  C   UNL     1       4.243   3.454  16.517  0.00  0.00    +0.000 C 
ATOM      2  C   UNL     1       3.197   3.673  17.326  0.00  0.00    +0.000 C 
ENDROOT
BRANCH   1   3
ATOM      3  N   UNL     1       5.581   3.572  16.794  0.00  0.00    +0.000 N 
ATOM      4  H   UNL     1       6.135   2.731  16.603  0.00  0.00    +0.000 HD
BRANCH   3   8
ATOM      5  C   UNL     1       7.688   7.013  18.067  0.00  0.00    +0.000 A 
ATOM      6  C   UNL     1       7.997   5.751  18.569  0.00  0.00    +0.000 A 
ATOM      7  C   UNL     1       7.312   4.616  18.122  0.00  0.00    +0.000 A 
ATOM      8  C   UNL     1       6.295   4.722  17.162  0.00  0.00    +0.000 A 
ATOM      9  C   UNL     1       5.973   6.000  16.692  0.00  0.00    +0.000 A 
ATOM     10  C   UNL     1       6.669   7.137  17.126  0.00  0.00    +0.000 A 
BRANCH   5  12
ATOM     11  C   UNL     1       8.228   9.312  17.955  0.00  0.00    +0.000 C 
ATOM     12  O   UNL     1       8.399   8.053  18.599  0.00  0.00    +0.000 OA
ENDBRANCH   5  12
ENDBRANCH   3   8
ENDBRANCH   1   3
BRANCH   2  13
ATOM     13  C   UNL     1       3.373   4.054  18.749  0.00  0.00    +0.000 C 
ATOM     14  O   UNL     1       4.088   3.407  19.510  0.00  0.00    +0.000 OA
BRANCH  13  15
ATOM     15  C   UNL     1       2.695   5.287  19.228  0.00  0.00    +0.000 A 
ATOM     16  C   UNL     1       2.041   5.397  20.458  0.00  0.00    +0.000 A 
ATOM     17  C   UNL     1       1.483   6.628  20.839  0.00  0.00    +0.000 A 
ATOM     18  C   UNL     1       1.573   7.759  20.004  0.00  0.00    +0.000 A 
ATOM     19  C   UNL     1       2.220   7.637  18.775  0.00  0.00    +0.000 A 
ATOM     20  C   UNL     1       2.782   6.406  18.402  0.00  0.00    +0.000 A 
ATOM     21  C   UNL     1       2.428   8.789  17.844  0.00  0.00    +0.000 C 
ATOM     22  C   UNL     1       1.625  10.050  18.112  0.00  0.00    +0.000 C 
ATOM     23  C   UNL     1       1.066  10.261  19.511  0.00  0.00    +0.000 C 
ATOM     24  C   UNL     1       1.031   9.078  20.482  0.00  0.00    +0.000 C 
ENDBRANCH  13  15
ENDBRANCH   2  13
TORSDOF 5
ENDMDL
MODEL 3
REMARK VINA RESULT:      -7.7      1.413      2.676
REMARK  Name = 
REMARK  6 active torsions:
REMARK  status: ('A' for Active; 'I' for Inactive)
REMARK    1  A    between atoms: C_1  and  O_2
REMARK    2  A    between atoms: O_2  and  C_3
REMARK    3  A    between atoms: C_6  and  N_7
REMARK    4  A    between atoms: N_7  and  C_8
REMARK    5  A    between atoms: C_9  and  C_10
REMARK    6  A    between atoms: C_10  and  C_12
REMARK                            x       y       z     vdW  Elec       q    Type
REMARK                         _______ _______ _______ _____ _____    ______ ____
ROOT
ATOM      1  C   UNL     1       2.954   3.043  17.724  0.00  0.00    +0.000 C 
ATOM      2  C   UNL     1       2.109   3.783  18.454  0.00  0.00    +0.000 C 
ENDROOT
BRANCH   1   3
ATOM      3  N   UNL     1       4.326   3.042  17.739  0.00  0.00    +0.000 N 
ATOM      4  H   UNL     1       4.753   2.132  17.934  0.00  0.00    +0.000 HD
BRANCH   3   8
ATOM      5  C   UNL     1       6.929   6.248  16.817  0.00  0.00    +0.000 A 
ATOM      6  C   UNL     1       7.156   5.427  17.920  0.00  0.00    +0.000 A 
ATOM      7  C   UNL     1       6.304   4.355  18.201  0.00  0.00    +0.000 A 
ATOM      8  C   UNL     1       5.199   4.081  17.382  0.00  0.00    +0.000 A 
ATOM      9  C   UNL     1       4.964   4.933  16.297  0.00  0.00    +0.000 A 
ATOM     10  C   UNL     1       5.826   5.999  16.005  0.00  0.00    +0.000 A 
BRANCH   5  12
ATOM     11  C   UNL     1       7.749   8.301  17.652  0.00  0.00    +0.000 C 
ATOM     12  O   UNL     1       7.808   7.284  16.658  0.00  0.00    +0.000 OA
ENDBRANCH   5  12
ENDBRANCH   3   8
ENDBRANCH   1   3
BRANCH   2  13
ATOM     13  C   UNL     1       2.590   4.737  19.484  0.00  0.00    +0.000 C 
ATOM     14  O   UNL     1       3.235   4.365  20.461  0.00  0.00    +0.000 OA
BRANCH  13  15
ATOM     15  C   UNL     1       2.315   6.183  19.277  0.00  0.00    +0.000 A 
ATOM     16  C   UNL     1       2.501   6.852  18.064  0.00  0.00    +0.000 A 
ATOM     17  C   UNL     1       2.154   8.209  17.961  0.00  0.00    +0.000 A 
ATOM     18  C   UNL     1       1.618   8.910  19.059  0.00  0.00    +0.000 A 
ATOM     19  C   UNL     1       1.445   8.236  20.268  0.00  0.00    +0.000 A 
ATOM     20  C   UNL     1       1.787   6.878  20.363  0.00  0.00    +0.000 A 
ATOM     21  C   UNL     1       0.826   8.868  21.473  0.00  0.00    +0.000 C 
ATOM     22  C   UNL     1       0.681  10.379  21.466  0.00  0.00    +0.000 C 
ATOM     23  C   UNL     1       0.696  11.096  20.123  0.00  0.00    +0.000 C 
ATOM     24  C   UNL     1       1.188  10.341  18.886  0.00  0.00    +0.000 C 
ENDBRANCH  13  15
ENDBRANCH   2  13
TORSDOF 5
ENDMDL
MODEL 4
REMARK VINA RESULT:      -7.5      2.632      4.785
REMARK  Name = 
REMARK  6 active torsions:
REMARK  status: ('A' for Active; 'I' for Inactive)
REMARK    1  A    between atoms: C_1  and  O_2
REMARK    2  A    between atoms: O_2  and  C_3
REMARK    3  A    between atoms: C_6  and  N_7
REMARK    4  A    between atoms: N_7  and  C_8
REMARK    5  A    between atoms: C_9  and  C_10
REMARK    6  A    between atoms: C_10  and  C_12
REMARK                            x       y       z     vdW  Elec       q    Type
REMARK                         _______ _______ _______ _____ _____    ______ ____
ROOT
ATOM      1  C   UNL     1       7.977   7.411  18.102  0.00  0.00    +0.000 C 
ATOM      2  C   UNL     1       7.278   6.311  17.790  0.00  0.00    +0.000 C 
ENDROOT
BRANCH   1   3
ATOM      3  N   UNL     1       7.739   8.711  17.736  0.00  0.00    +0.000 N 
ATOM      4  H   UNL     1       6.885   8.853  17.187  0.00  0.00    +0.000 HD
BRANCH   3   8
ATOM      5  C   UNL     1       9.737  12.183  19.097  0.00  0.00    +0.000 A 
ATOM      6  C   UNL     1       9.904  10.956  19.736  0.00  0.00    +0.000 A 
ATOM      7  C   UNL     1       9.259   9.809  19.262  0.00  0.00    +0.000 A 
ATOM      8  C   UNL     1       8.426   9.867  18.136  0.00  0.00    +0.000 A 
ATOM      9  C   UNL     1       8.241  11.112  17.524  0.00  0.00    +0.000 A 
ATOM     10  C   UNL     1       8.899  12.260  17.988  0.00  0.00    +0.000 A 
BRANCH   5  12
ATOM     11  C   UNL     1      10.074  14.522  19.129  0.00  0.00    +0.000 C 
ATOM     12  O   UNL     1      10.389  13.242  19.666  0.00  0.00    +0.000 OA
ENDBRANCH   5  12
ENDBRANCH   3   8
ENDBRANCH   1   3
BRANCH   2  13
ATOM     13  C   UNL     1       6.033   6.374  16.985  0.00  0.00    +0.000 C 
ATOM     14  O   UNL     1       5.919   7.134  16.026  0.00  0.00    +0.000 OA
BRANCH  13  15
ATOM     15  C   UNL     1       4.928   5.445  17.337  0.00  0.00    +0.000 A 
ATOM     16  C   UNL     1       4.636   4.271  16.638  0.00  0.00    +0.000 A 
ATOM     17  C   UNL     1       3.604   3.432  17.090  0.00  0.00    +0.000 A 
ATOM     18  C   UNL     1       2.858   3.752  18.242  0.00  0.00    +0.000 A 
ATOM     19  C   UNL     1       3.151   4.930  18.928  0.00  0.00    +0.000 A 
ATOM     20  C   UNL     1       4.187   5.761  18.475  0.00  0.00    +0.000 A 
ATOM     21  C   UNL     1       2.464   5.329  20.195  0.00  0.00    +0.000 C 
ATOM     22  C   UNL     1       1.193   4.582  20.558  0.00  0.00    +0.000 C 
ATOM     23  C   UNL     1       0.962   3.213  19.937  0.00  0.00    +0.000 C 
ATOM     24  C   UNL     1       1.813   2.790  18.738  0.00  0.00    +0.000 C 
ENDBRANCH  13  15
ENDBRANCH   2  13
TORSDOF 5
ENDMDL
MODEL 5
REMARK VINA RESULT:      -7.4      2.664      5.136
REMARK  Name = 
REMARK  6 active torsions:
REMARK  status: ('A' for Active; 'I' for Inactive)
REMARK    1  A    between atoms: C_1  and  O_2
REMARK    2  A    between atoms: O_2  and  C_3
REMARK    3  A    between atoms: C_6  and  N_7
REMARK    4  A    between atoms: N_7  and  C_8
REMARK    5  A    between atoms: C_9  and  C_10
REMARK    6  A    between atoms: C_10  and  C_12
REMARK                            x       y       z     vdW  Elec       q    Type
REMARK                         _______ _______ _______ _____ _____    ______ ____
ROOT
ATOM      1  C   UNL     1       8.325   7.585  18.633  0.00  0.00    +0.000 C 
ATOM      2  C   UNL     1       7.823   6.386  18.307  0.00  0.00    +0.000 C 
ENDROOT
BRANCH   1   3
ATOM      3  N   UNL     1       8.136   8.792  18.010  0.00  0.00    +0.000 N 
ATOM      4  H   UNL     1       7.418   8.791  17.279  0.00  0.00    +0.000 HD
BRANCH   3   8
ATOM      5  C   UNL     1       9.719  12.545  19.156  0.00  0.00    +0.000 A 
ATOM      6  C   UNL     1       9.906  11.411  19.944  0.00  0.00    +0.000 A 
ATOM      7  C   UNL     1       9.401  10.170  19.543  0.00  0.00    +0.000 A 
ATOM      8  C   UNL     1       8.691  10.037  18.341  0.00  0.00    +0.000 A 
ATOM      9  C   UNL     1       8.482  11.191  17.576  0.00  0.00    +0.000 A 
ATOM     10  C   UNL     1       9.001  12.432  17.968  0.00  0.00    +0.000 A 
BRANCH   5  12
ATOM     11  C   UNL     1       9.720  14.907  19.085  0.00  0.00    +0.000 C 
ATOM     12  O   UNL     1      10.228  13.709  19.662  0.00  0.00    +0.000 OA
ENDBRANCH   5  12
ENDBRANCH   3   8
ENDBRANCH   1   3
BRANCH   2  13
ATOM     13  C   UNL     1       6.890   6.210  17.167  0.00  0.00    +0.000 C 
ATOM     14  O   UNL     1       7.261   6.330  16.002  0.00  0.00    +0.000 OA
BRANCH  13  15
ATOM     15  C   UNL     1       5.487   5.825  17.468  0.00  0.00    +0.000 A 
ATOM     16  C   UNL     1       4.428   6.730  17.570  0.00  0.00    +0.000 A 
ATOM     17  C   UNL     1       3.127   6.254  17.800  0.00  0.00    +0.000 A 
ATOM     18  C   UNL     1       2.868   4.875  17.930  0.00  0.00    +0.000 A 
ATOM     19  C   UNL     1       3.933   3.980  17.836  0.00  0.00    +0.000 A 
ATOM     20  C   UNL     1       5.230   4.461  17.598  0.00  0.00    +0.000 A 
ATOM     21  C   UNL     1       3.758   2.496  17.893  0.00  0.00    +0.000 C 
ATOM     22  C   UNL     1       2.421   1.974  18.389  0.00  0.00    +0.000 C 
ATOM     23  C   UNL     1       1.219   2.905  18.326  0.00  0.00    +0.000 C 
ATOM     24  C   UNL     1       1.451   4.400  18.099  0.00  0.00    +0.000 C 
ENDBRANCH  13  15
ENDBRANCH   2  13
TORSDOF 5
ENDMDL
MODEL 6
REMARK VINA RESULT:      -7.4      2.779      6.074
REMARK  Name = 
REMARK  6 active torsions:
REMARK  status: ('A' for Active; 'I' for Inactive)
REMARK    1  A    between atoms: C_1  and  O_2
REMARK    2  A    between atoms: O_2  and  C_3
REMARK    3  A    between atoms: C_6  and  N_7
REMARK    4  A    between atoms: N_7  and  C_8
REMARK    5  A    between atoms: C_9  and  C_10
REMARK    6  A    between atoms: C_10  and  C_12
REMARK                            x       y       z     vdW  Elec       q    Type
REMARK                         _______ _______ _______ _____ _____    ______ ____
ROOT
ATOM      1  C   UNL     1       1.423   4.924  20.925  0.00  0.00    +0.000 C 
ATOM      2  C   UNL     1       1.636   3.602  20.965  0.00  0.00    +0.000 C 
ENDROOT
BRANCH   1   3
ATOM      3  N   UNL     1       2.309   5.927  20.624  0.00  0.00    +0.000 N 
ATOM      4  H   UNL     1       3.295   5.683  20.759  0.00  0.00    +0.000 HD
BRANCH   3   8
ATOM      5  C   UNL     1       1.350   9.647  18.853  0.00  0.00    +0.000 A 
ATOM      6  C   UNL     1       0.979   9.355  20.164  0.00  0.00    +0.000 A 
ATOM      7  C   UNL     1       1.323   8.131  20.748  0.00  0.00    +0.000 A 
ATOM      8  C   UNL     1       2.047   7.170  20.029  0.00  0.00    +0.000 A 
ATOM      9  C   UNL     1       2.384   7.464  18.703  0.00  0.00    +0.000 A 
ATOM     10  C   UNL     1       2.053   8.696  18.120  0.00  0.00    +0.000 A 
BRANCH   5  12
ATOM     11  C   UNL     1      -0.413  11.213  18.682  0.00  0.00    +0.000 C 
ATOM     12  O   UNL     1       0.931  10.859  18.375  0.00  0.00    +0.000 OA
ENDBRANCH   5  12
ENDBRANCH   3   8
ENDBRANCH   1   3
BRANCH   2  13
ATOM     13  C   UNL     1       2.950   3.008  20.618  0.00  0.00    +0.000 C 
ATOM     14  O   UNL     1       3.563   2.286  21.401  0.00  0.00    +0.000 OA
BRANCH  13  15
ATOM     15  C   UNL     1       3.493   3.264  19.258  0.00  0.00    +0.000 A 
ATOM     16  C   UNL     1       2.772   3.078  18.076  0.00  0.00    +0.000 A 
ATOM     17  C   UNL     1       3.362   3.407  16.844  0.00  0.00    +0.000 A 
ATOM     18  C   UNL     1       4.670   3.925  16.778  0.00  0.00    +0.000 A 
ATOM     19  C   UNL     1       5.385   4.099  17.963  0.00  0.00    +0.000 A 
ATOM     20  C   UNL     1       4.788   3.775  19.191  0.00  0.00    +0.000 A 
ATOM     21  C   UNL     1       6.753   4.701  18.010  0.00  0.00    +0.000 C 
ATOM     22  C   UNL     1       7.501   4.825  16.694  0.00  0.00    +0.000 C 
ATOM     23  C   UNL     1       6.692   4.810  15.405  0.00  0.00    +0.000 C 
ATOM     24  C   UNL     1       5.238   4.337  15.448  0.00  0.00    +0.000 C 
ENDBRANCH  13  15
ENDBRANCH   2  13
TORSDOF 5
ENDMDL
MODEL 7
REMARK VINA RESULT:      -7.4      2.966      5.480
REMARK  Name = 
REMARK  6 active torsions:
REMARK  status: ('A' for Active; 'I' for Inactive)
REMARK    1  A    between atoms: C_1  and  O_2
REMARK    2  A    between atoms: O_2  and  C_3
REMARK    3  A    between atoms: C_6  and  N_7
REMARK    4  A    between atoms: N_7  and  C_8
REMARK    5  A    between atoms: C_9  and  C_10
REMARK    6  A    between atoms: C_10  and  C_12
REMARK                            x       y       z     vdW  Elec       q    Type
REMARK                         _______ _______ _______ _____ _____    ______ ____
ROOT
ATOM      1  C   UNL     1       7.185   6.706  16.353  0.00  0.00    +0.000 C 
ATOM      2  C   UNL     1       6.575   6.683  17.546  0.00  0.00    +0.000 C 
ENDROOT
BRANCH   1   3
ATOM      3  N   UNL     1       7.672   5.656  15.618  0.00  0.00    +0.000 N 
ATOM      4  H   UNL     1       8.541   5.248  15.975  0.00  0.00    +0.000 HD
BRANCH   3   8
ATOM      5  C   UNL     1       5.839   3.501  12.472  0.00  0.00    +0.000 A 
ATOM      6  C   UNL     1       5.270   3.548  13.743  0.00  0.00    +0.000 A 
ATOM      7  C   UNL     1       5.870   4.284  14.769  0.00  0.00    +0.000 A 
ATOM      8  C   UNL     1       7.061   4.990  14.545  0.00  0.00    +0.000 A 
ATOM      9  C   UNL     1       7.640   4.906  13.273  0.00  0.00    +0.000 A 
ATOM     10  C   UNL     1       7.031   4.182  12.239  0.00  0.00    +0.000 A 
BRANCH   5  12
ATOM     11  C   UNL     1       5.808   1.485  11.238  0.00  0.00    +0.000 C 
ATOM     12  O   UNL     1       5.184   2.724  11.556  0.00  0.00    +0.000 OA
ENDBRANCH   5  12
ENDBRANCH   3   8
ENDBRANCH   1   3
BRANCH   2  13
ATOM     13  C   UNL     1       6.285   5.412  18.255  0.00  0.00    +0.000 C 
ATOM     14  O   UNL     1       7.183   4.688  18.680  0.00  0.00    +0.000 OA
BRANCH  13  15
ATOM     15  C   UNL     1       4.863   5.054  18.491  0.00  0.00    +0.000 A 
ATOM     16  C   UNL     1       3.806   5.450  17.667  0.00  0.00    +0.000 A 
ATOM     17  C   UNL     1       2.503   5.007  17.948  0.00  0.00    +0.000 A 
ATOM     18  C   UNL     1       2.241   4.166  19.048  0.00  0.00    +0.000 A 
ATOM     19  C   UNL     1       3.301   3.784  19.869  0.00  0.00    +0.000 A 
ATOM     20  C   UNL     1       4.602   4.223  19.579  0.00  0.00    +0.000 A 
ATOM     21  C   UNL     1       3.142   2.843  21.021  0.00  0.00    +0.000 C 
ATOM     22  C   UNL     1       1.727   2.558  21.493  0.00  0.00    +0.000 C 
ATOM     23  C   UNL     1       0.582   2.815  20.525  0.00  0.00    +0.000 C 
ATOM     24  C   UNL     1       0.845   3.651  19.271  0.00  0.00    +0.000 C 
ENDBRANCH  13  15
ENDBRANCH   2  13
TORSDOF 5
ENDMDL
MODEL 8
REMARK VINA RESULT:      -7.4      2.763      5.007
REMARK  Name = 
REMARK  6 active torsions:
REMARK  status: ('A' for Active; 'I' for Inactive)
REMARK    1  A    between atoms: C_1  and  O_2
REMARK    2  A    between atoms: O_2  and  C_3
REMARK    3  A    between atoms: C_6  and  N_7
REMARK    4  A    between atoms: N_7  and  C_8
REMARK    5  A    between atoms: C_9  and  C_10
REMARK    6  A    between atoms: C_10  and  C_12
REMARK                            x       y       z     vdW  Elec       q    Type
REMARK                         _______ _______ _______ _____ _____    ______ ____
ROOT
ATOM      1  C   UNL     1       7.797   8.445  17.498  0.00  0.00    +0.000 C 
ATOM      2  C   UNL     1       7.041   7.367  17.250  0.00  0.00    +0.000 C 
ENDROOT
BRANCH   1   3
ATOM      3  N   UNL     1       8.484   8.766  18.641  0.00  0.00    +0.000 N 
ATOM      4  H   UNL     1       8.649   7.981  19.278  0.00  0.00    +0.000 HD
BRANCH   3   8
ATOM      5  C   UNL     1      10.492  12.375  19.560  0.00  0.00    +0.000 A 
ATOM      6  C   UNL     1      10.343  11.947  18.243  0.00  0.00    +0.000 A 
ATOM      7  C   UNL     1       9.655  10.765  17.948  0.00  0.00    +0.000 A 
ATOM      8  C   UNL     1       9.102   9.981  18.971  0.00  0.00    +0.000 A 
ATOM      9  C   UNL     1       9.288  10.406  20.292  0.00  0.00    +0.000 A 
ATOM     10  C   UNL     1       9.964  11.598  20.588  0.00  0.00    +0.000 A 
BRANCH   5  12
ATOM     11  C   UNL     1      11.908  13.996  18.584  0.00  0.00    +0.000 C 
ATOM     12  O   UNL     1      11.211  13.526  19.732  0.00  0.00    +0.000 OA
ENDBRANCH   5  12
ENDBRANCH   3   8
ENDBRANCH   1   3
BRANCH   2  13
ATOM     13  C   UNL     1       6.877   6.278  18.244  0.00  0.00    +0.000 C 
ATOM     14  O   UNL     1       7.684   6.104  19.154  0.00  0.00    +0.000 OA
BRANCH  13  15
ATOM     15  C   UNL     1       5.667   5.421  18.146  0.00  0.00    +0.000 A 
ATOM     16  C   UNL     1       5.446   4.484  17.133  0.00  0.00    +0.000 A 
ATOM     17  C   UNL     1       4.293   3.684  17.167  0.00  0.00    +0.000 A 
ATOM     18  C   UNL     1       3.351   3.806  18.208  0.00  0.00    +0.000 A 
ATOM     19  C   UNL     1       3.575   4.750  19.209  0.00  0.00    +0.000 A 
ATOM     20  C   UNL     1       4.733   5.543  19.174  0.00  0.00    +0.000 A 
ATOM     21  C   UNL     1       2.673   4.916  20.391  0.00  0.00    +0.000 C 
ATOM     22  C   UNL     1       1.310   4.252  20.320  0.00  0.00    +0.000 C 
ATOM     23  C   UNL     1       1.122   3.101  19.343  0.00  0.00    +0.000 C 
ATOM     24  C   UNL     1       2.169   2.878  18.250  0.00  0.00    +0.000 C 
ENDBRANCH  13  15
ENDBRANCH   2  13
TORSDOF 5
ENDMDL
MODEL 9
REMARK VINA RESULT:      -7.4      2.165      3.234
REMARK  Name = 
REMARK  6 active torsions:
REMARK  status: ('A' for Active; 'I' for Inactive)
REMARK    1  A    between atoms: C_1  and  O_2
REMARK    2  A    between atoms: O_2  and  C_3
REMARK    3  A    between atoms: C_6  and  N_7
REMARK    4  A    between atoms: N_7  and  C_8
REMARK    5  A    between atoms: C_9  and  C_10
REMARK    6  A    between atoms: C_10  and  C_12
REMARK                            x       y       z     vdW  Elec       q    Type
REMARK                         _______ _______ _______ _____ _____    ______ ____
ROOT
ATOM      1  C   UNL     1       3.319   2.982  18.795  0.00  0.00    +0.000 C 
ATOM      2  C   UNL     1       2.229   3.491  19.385  0.00  0.00    +0.000 C 
ENDROOT
BRANCH   1   3
ATOM      3  N   UNL     1       4.618   3.415  18.873  0.00  0.00    +0.000 N 
ATOM      4  H   UNL     1       5.102   3.167  19.741  0.00  0.00    +0.000 HD
BRANCH   3   8
ATOM      5  C   UNL     1       6.970   5.076  15.774  0.00  0.00    +0.000 A 
ATOM      6  C   UNL     1       5.742   4.476  15.505  0.00  0.00    +0.000 A 
ATOM      7  C   UNL     1       4.961   3.952  16.541  0.00  0.00    +0.000 A 
ATOM      8  C   UNL     1       5.395   4.016  17.872  0.00  0.00    +0.000 A 
ATOM      9  C   UNL     1       6.646   4.593  18.123  0.00  0.00    +0.000 A 
ATOM     10  C   UNL     1       7.423   5.132  17.089  0.00  0.00    +0.000 A 
BRANCH   5  12
ATOM     11  C   UNL     1       7.321   4.915  13.442  0.00  0.00    +0.000 C 
ATOM     12  O   UNL     1       7.663   5.524  14.682  0.00  0.00    +0.000 OA
ENDBRANCH   5  12
ENDBRANCH   3   8
ENDBRANCH   1   3
BRANCH   2  13
ATOM     13  C   UNL     1       2.306   4.651  20.307  0.00  0.00    +0.000 C 
ATOM     14  O   UNL     1       2.491   4.509  21.513  0.00  0.00    +0.000 OA
BRANCH  13  15
ATOM     15  C   UNL     1       2.206   6.014  19.722  0.00  0.00    +0.000 A 
ATOM     16  C   UNL     1       2.568   6.335  18.411  0.00  0.00    +0.000 A 
ATOM     17  C   UNL     1       2.379   7.644  17.939  0.00  0.00    +0.000 A 
ATOM     18  C   UNL     1       1.827   8.643  18.765  0.00  0.00    +0.000 A 
ATOM     19  C   UNL     1       1.477   8.315  20.075  0.00  0.00    +0.000 A 
ATOM     20  C   UNL     1       1.662   7.004  20.539  0.00  0.00    +0.000 A 
ATOM     21  C   UNL     1       0.825   9.282  21.011  0.00  0.00    +0.000 C 
ATOM     22  C   UNL     1       0.843  10.748  20.617  0.00  0.00    +0.000 C 
ATOM     23  C   UNL     1       1.053  11.095  19.150  0.00  0.00    +0.000 C 
ATOM     24  C   UNL     1       1.569  10.012  18.199  0.00  0.00    +0.000 C 
ENDBRANCH  13  15
ENDBRANCH   2  13
TORSDOF 5
ENDMDL
