MODEL 1
REMARK VINA RESULT:      -6.5      0.000      0.000
REMARK  Name = 
REMARK  5 active torsions:
REMARK  status: ('A' for Active; 'I' for Inactive)
REMARK    1  A    between atoms: N_3  and  C_4
REMARK    2  A    between atoms: C_5  and  C_6
REMARK    3  A    between atoms: C_9  and  O_10
REMARK    4  A    between atoms: C_11  and  O_12
REMARK    5  A    between atoms: C_13  and  O_14
REMARK                            x       y       z     vdW  Elec       q    Type
REMARK                         _______ _______ _______ _____ _____    ______ ____
ROOT
ATOM      1  C   UNL     1       3.537   3.860  17.887  0.00  0.00    +0.000 A 
ATOM      2  C   UNL     1       2.159   4.043  17.679  0.00  0.00    +0.000 A 
ATOM      3  C   UNL     1       1.230   3.707  18.675  0.00  0.00    +0.000 A 
ATOM      4  C   UNL     1       1.684   3.190  19.883  0.00  0.00    +0.000 A 
ATOM      5  C   UNL     1       3.046   3.004  20.095  0.00  0.00    +0.000 A 
ATOM      6  C   UNL     1       3.969   3.333  19.108  0.00  0.00    +0.000 A 
ENDROOT
BRANCH   1   8
ATOM      7  C   UNL     1       4.893   5.474  16.634  0.00  0.00    +0.000 C 
ATOM      8  C   UNL     1       4.488   4.212  16.830  0.00  0.00    +0.000 C 
BRANCH   7  11
ATOM      9  O   UNL     1       7.706   5.362  14.474  0.00  0.00    +0.000 OA
ATOM     10  C   UNL     1       6.911   5.045  15.350  0.00  0.00    +0.000 C 
ATOM     11  N   UNL     1       5.810   5.792  15.669  0.00  0.00    +0.000 N 
ATOM     12  H   UNL     1       5.683   6.627  15.108  0.00  0.00    +0.000 HD
ENDBRANCH   7  11
ENDBRANCH   1   8
BRANCH   4  13
ATOM     13  O   UNL     1       0.831   2.849  20.895  0.00  0.00    +0.000 OA
ATOM     14  H   UNL     1       1.140   3.276  21.713  0.00  0.00    +0.000 HD
ENDBRANCH   4  13
BRANCH   5  15
ATOM     15  O   UNL     1       3.498   2.490  21.282  0.00  0.00    +0.000 OA
ATOM     16  H   UNL     1       3.139   3.100  21.960  0.00  0.00    +0.000 HD
ENDBRANCH   5  15
BRANCH   6  17
ATOM     17  O   UNL     1       5.299   3.125  19.355  0.00  0.00    +0.000 OA
ATOM     18  H   UNL     1       5.366   2.173  19.570  0.00  0.00    +0.000 HD
ENDBRANCH   6  17
TORSDOF 5
ENDMDL
MODEL 2
REMARK VINA RESULT:      -6.1      1.272      1.272
REMARK  Name = 
REMARK  5 active torsions:
REMARK  status: ('A' for Active; 'I' for Inactive)
REMARK    1  A    between atoms: N_3  and  C_4
REMARK    2  A    between atoms: C_5  and  C_6
REMARK    3  A    between atoms: C_9  and  O_10
REMARK    4  A    between atoms: C_11  and  O_12
REMARK    5  A    between atoms: C_13  and  O_14
REMARK                            x       y       z     vdW  Elec       q    Type
REMARK                         _______ _______ _______ _____ _____    ______ ____
ROOT
ATOM      1  C   UNL     1       3.616   4.324  17.899  0.00  0.00    +0.000 A 
ATOM      2  C   UNL     1       2.552   3.536  17.428  0.00  0.00    +0.000 A 
ATOM      3  C   UNL     1       1.450   3.252  18.249  0.00  0.00    +0.000 A 
ATOM      4  C   UNL     1       1.413   3.763  19.541  0.00  0.00    +0.000 A 
ATOM      5  C   UNL     1       2.463   4.542  20.013  0.00  0.00    +0.000 A 
ATOM      6  C   UNL     1       3.559   4.823  19.203  0.00  0.00    +0.000 A 
ENDROOT
BRANCH   1   8
ATOM      7  C   UNL     1       4.883   5.764  16.370  0.00  0.00    +0.000 C 
ATOM      8  C   UNL     1       4.759   4.603  17.026  0.00  0.00    +0.000 C 
BRANCH   7  11
ATOM      9  O   UNL     1       7.820   5.382  14.417  0.00  0.00    +0.000 OA
ATOM     10  C   UNL     1       6.860   5.100  15.122  0.00  0.00    +0.000 C 
ATOM     11  N   UNL     1       5.972   6.033  15.585  0.00  0.00    +0.000 N 
ATOM     12  H   UNL     1       6.153   6.983  15.282  0.00  0.00    +0.000 HD
ENDBRANCH   7  11
ENDBRANCH   1   8
BRANCH   4  13
ATOM     13  O   UNL     1       0.366   3.528  20.386  0.00  0.00    +0.000 OA
ATOM     14  H   UNL     1      -0.298   4.227  20.253  0.00  0.00    +0.000 HD
ENDBRANCH   4  13
BRANCH   5  15
ATOM     15  O   UNL     1       2.434   5.046  21.288  0.00  0.00    +0.000 OA
ATOM     16  H   UNL     1       3.356   4.949  21.606  0.00  0.00    +0.000 HD
ENDBRANCH   5  15
BRANCH   6  17
ATOM     17  O   UNL     1       4.575   5.586  19.712  0.00  0.00    +0.000 OA
ATOM     18  H   UNL     1       4.823   6.188  18.982  0.00  0.00    +0.000 HD
ENDBRANCH   6  17
TORSDOF 5
ENDMDL
MODEL 3
REMARK VINA RESULT:      -6.1      2.270      5.839
REMARK  Name = 
REMARK  5 active torsions:
REMARK  status: ('A' for Active; 'I' for Inactive)
REMARK    1  A    between atoms: N_3  and  C_4
REMARK    2  A    between atoms: C_5  and  C_6
REMARK    3  A    between atoms: C_9  and  O_10
REMARK    4  A    between atoms: C_11  and  O_12
REMARK    5  A    between atoms: C_13  and  O_14
REMARK                            x       y       z     vdW  Elec       q    Type
REMARK                         _______ _______ _______ _____ _____    ______ ____
ROOT
ATOM      1  C   UNL     1       4.677   5.212  18.147  0.00  0.00    +0.000 A 
ATOM      2  C   UNL     1       4.369   6.066  17.075  0.00  0.00    +0.000 A 
ATOM      3  C   UNL     1       5.284   6.266  16.030  0.00  0.00    +0.000 A 
ATOM      4  C   UNL     1       6.506   5.604  16.059  0.00  0.00    +0.000 A 
ATOM      5  C   UNL     1       6.818   4.759  17.118  0.00  0.00    +0.000 A 
ATOM      6  C   UNL     1       5.914   4.562  18.157  0.00  0.00    +0.000 A 
ENDROOT
BRANCH   1   8
ATOM      7  C   UNL     1       2.946   3.925  19.316  0.00  0.00    +0.000 C 
ATOM      8  C   UNL     1       3.708   5.023  19.231  0.00  0.00    +0.000 C 
BRANCH   7  11
ATOM      9  O   UNL     1       1.373   2.636  22.223  0.00  0.00    +0.000 OA
ATOM     10  C   UNL     1       2.176   2.767  21.309  0.00  0.00    +0.000 C 
ATOM     11  N   UNL     1       2.070   3.738  20.350  0.00  0.00    +0.000 N 
ATOM     12  H   UNL     1       1.280   4.364  20.463  0.00  0.00    +0.000 HD
ENDBRANCH   7  11
ENDBRANCH   1   8
BRANCH   4  13
ATOM     13  O   UNL     1       7.436   5.752  15.069  0.00  0.00    +0.000 OA
ATOM     14  H   UNL     1       7.284   6.608  14.631  0.00  0.00    +0.000 HD
ENDBRANCH   4  13
BRANCH   5  15
ATOM     15  O   UNL     1       8.023   4.108  17.153  0.00  0.00    +0.000 OA
ATOM     16  H   UNL     1       8.195   3.869  16.218  0.00  0.00    +0.000 HD
ENDBRANCH   5  15
BRANCH   6  17
ATOM     17  O   UNL     1       6.266   3.728  19.185  0.00  0.00    +0.000 OA
ATOM     18  H   UNL     1       6.785   3.016  18.761  0.00  0.00    +0.000 HD
ENDBRANCH   6  17
TORSDOF 5
ENDMDL
MODEL 4
REMARK VINA RESULT:      -6.0      2.066      2.209
REMARK  Name = 
REMARK  5 active torsions:
REMARK  status: ('A' for Active; 'I' for Inactive)
REMARK    1  A    between atoms: N_3  and  C_4
REMARK    2  A    between atoms: C_5  and  C_6
REMARK    3  A    between atoms: C_9  and  O_10
REMARK    4  A    between atoms: C_11  and  O_12
REMARK    5  A    between atoms: C_13  and  O_14
REMARK                            x       y       z     vdW  Elec       q    Type
REMARK                         _______ _______ _______ _____ _____    ______ ____
ROOT
ATOM      1  C   UNL     1       3.829   4.897  18.077  0.00  0.00    +0.000 A 
ATOM      2  C   UNL     1       2.449   5.048  17.858  0.00  0.00    +0.000 A 
ATOM      3  C   UNL     1       1.581   3.950  17.961  0.00  0.00    +0.000 A 
ATOM      4  C   UNL     1       2.098   2.702  18.289  0.00  0.00    +0.000 A 
ATOM      5  C   UNL     1       3.462   2.545  18.504  0.00  0.00    +0.000 A 
ATOM      6  C   UNL     1       4.326   3.631  18.399  0.00  0.00    +0.000 A 
ENDROOT
BRANCH   1   8
ATOM      7  C   UNL     1       5.523   6.225  16.901  0.00  0.00    +0.000 C 
ATOM      8  C   UNL     1       4.717   6.056  17.958  0.00  0.00    +0.000 C 
BRANCH   7  11
ATOM      9  O   UNL     1       8.012   8.681  17.503  0.00  0.00    +0.000 OA
ATOM     10  C   UNL     1       7.314   7.687  17.652  0.00  0.00    +0.000 C 
ATOM     11  N   UNL     1       6.324   7.328  16.778  0.00  0.00    +0.000 N 
ATOM     12  H   UNL     1       6.221   7.939  15.975  0.00  0.00    +0.000 HD
ENDBRANCH   7  11
ENDBRANCH   1   8
BRANCH   4  13
ATOM     13  O   UNL     1       1.304   1.596  18.410  0.00  0.00    +0.000 OA
ATOM     14  H   UNL     1       1.531   0.976  17.694  0.00  0.00    +0.000 HD
ENDBRANCH   4  13
BRANCH   5  15
ATOM     15  O   UNL     1       3.977   1.316  18.823  0.00  0.00    +0.000 OA
ATOM     16  H   UNL     1       3.569   1.102  19.688  0.00  0.00    +0.000 HD
ENDBRANCH   5  15
BRANCH   6  17
ATOM     17  O   UNL     1       5.663   3.430  18.611  0.00  0.00    +0.000 OA
ATOM     18  H   UNL     1       5.768   3.461  19.583  0.00  0.00    +0.000 HD
ENDBRANCH   6  17
TORSDOF 5
ENDMDL
MODEL 5
REMARK VINA RESULT:      -6.0      1.321      1.416
REMARK  Name = 
REMARK  5 active torsions:
REMARK  status: ('A' for Active; 'I' for Inactive)
REMARK    1  A    between atoms: N_3  and  C_4
REMARK    2  A    between atoms: C_5  and  C_6
REMARK    3  A    between atoms: C_9  and  O_10
REMARK    4  A    between atoms: C_11  and  O_12
REMARK    5  A    between atoms: C_13  and  O_14
REMARK                            x       y       z     vdW  Elec       q    Type
REMARK                         _______ _______ _______ _____ _____    ______ ____
ROOT
ATOM      1  C   UNL     1       3.831   4.408  18.274  0.00  0.00    +0.000 A 
ATOM      2  C   UNL     1       3.101   5.373  18.988  0.00  0.00    +0.000 A 
ATOM      3  C   UNL     1       1.952   5.014  19.710  0.00  0.00    +0.000 A 
ATOM      4  C   UNL     1       1.539   3.688  19.719  0.00  0.00    +0.000 A 
ATOM      5  C   UNL     1       2.256   2.729  19.013  0.00  0.00    +0.000 A 
ATOM      6  C   UNL     1       3.393   3.081  18.293  0.00  0.00    +0.000 A 
ENDROOT
BRANCH   1   8
ATOM      7  C   UNL     1       4.940   5.463  16.357  0.00  0.00    +0.000 C 
ATOM      8  C   UNL     1       5.024   4.806  17.522  0.00  0.00    +0.000 C 
BRANCH   7  11
ATOM      9  O   UNL     1       7.902   5.435  14.403  0.00  0.00    +0.000 OA
ATOM     10  C   UNL     1       6.913   5.035  15.004  0.00  0.00    +0.000 C 
ATOM     11  N   UNL     1       6.058   5.864  15.678  0.00  0.00    +0.000 N 
ATOM     12  H   UNL     1       6.292   6.850  15.627  0.00  0.00    +0.000 HD
ENDBRANCH   7  11
ENDBRANCH   1   8
BRANCH   4  13
ATOM     13  O   UNL     1       0.433   3.275  20.408  0.00  0.00    +0.000 OA
ATOM     14  H   UNL     1      -0.322   3.822  20.130  0.00  0.00    +0.000 HD
ENDBRANCH   4  13
BRANCH   5  15
ATOM     15  O   UNL     1       1.851   1.419  19.014  0.00  0.00    +0.000 OA
ATOM     16  H   UNL     1       1.572   1.253  18.089  0.00  0.00    +0.000 HD
ENDBRANCH   5  15
BRANCH   6  17
ATOM     17  O   UNL     1       4.064   2.106  17.604  0.00  0.00    +0.000 OA
ATOM     18  H   UNL     1       3.766   2.207  16.678  0.00  0.00    +0.000 HD
ENDBRANCH   6  17
TORSDOF 5
ENDMDL
MODEL 6
REMARK VINA RESULT:      -5.9      1.553      1.963
REMARK  Name = 
REMARK  5 active torsions:
REMARK  status: ('A' for Active; 'I' for Inactive)
REMARK    1  A    between atoms: N_3  and  C_4
REMARK    2  A    between atoms: C_5  and  C_6
REMARK    3  A    between atoms: C_9  and  O_10
REMARK    4  A    between atoms: C_11  and  O_12
REMARK    5  A    between atoms: C_13  and  O_14
REMARK                            x       y       z     vdW  Elec       q    Type
REMARK                         _______ _______ _______ _____ _____    ______ ____
ROOT
ATOM      1  C   UNL     1       3.130   4.693  18.366  0.00  0.00    +0.000 A 
ATOM      2  C   UNL     1       3.132   5.181  19.683  0.00  0.00    +0.000 A 
ATOM      3  C   UNL     1       2.340   4.579  20.674  0.00  0.00    +0.000 A 
ATOM      4  C   UNL     1       1.550   3.485  20.343  0.00  0.00    +0.000 A 
ATOM      5  C   UNL     1       1.540   2.999  19.040  0.00  0.00    +0.000 A 
ATOM      6  C   UNL     1       2.321   3.596  18.055  0.00  0.00    +0.000 A 
ENDROOT
BRANCH   1   8
ATOM      7  C   UNL     1       5.088   4.779  16.891  0.00  0.00    +0.000 C 
ATOM      8  C   UNL     1       3.960   5.340  17.346  0.00  0.00    +0.000 C 
BRANCH   7  11
ATOM      9  O   UNL     1       7.646   5.429  14.519  0.00  0.00    +0.000 OA
ATOM     10  C   UNL     1       7.005   4.870  15.400  0.00  0.00    +0.000 C 
ATOM     11  N   UNL     1       5.839   5.371  15.913  0.00  0.00    +0.000 N 
ATOM     12  H   UNL     1       5.527   6.239  15.492  0.00  0.00    +0.000 HD
ENDBRANCH   7  11
ENDBRANCH   1   8
BRANCH   4  13
ATOM     13  O   UNL     1       0.762   2.852  21.263  0.00  0.00    +0.000 OA
ATOM     14  H   UNL     1       0.789   1.896  21.083  0.00  0.00    +0.000 HD
ENDBRANCH   4  13
BRANCH   5  15
ATOM     15  O   UNL     1       0.759   1.924  18.707  0.00  0.00    +0.000 OA
ATOM     16  H   UNL     1       1.138   1.182  19.224  0.00  0.00    +0.000 HD
ENDBRANCH   5  15
BRANCH   6  17
ATOM     17  O   UNL     1       2.275   3.090  16.784  0.00  0.00    +0.000 OA
ATOM     18  H   UNL     1       1.458   2.554  16.759  0.00  0.00    +0.000 HD
ENDBRANCH   6  17
TORSDOF 5
ENDMDL
MODEL 7
REMARK VINA RESULT:      -5.9      1.482      2.171
REMARK  Name = 
REMARK  5 active torsions:
REMARK  status: ('A' for Active; 'I' for Inactive)
REMARK    1  A    between atoms: N_3  and  C_4
REMARK    2  A    between atoms: C_5  and  C_6
REMARK    3  A    between atoms: C_9  and  O_10
REMARK    4  A    between atoms: C_11  and  O_12
REMARK    5  A    between atoms: C_13  and  O_14
REMARK                            x       y       z     vdW  Elec       q    Type
REMARK                         _______ _______ _______ _____ _____    ______ ____
ROOT
ATOM      1  C   UNL     1       3.507   3.348  18.358  0.00  0.00    +0.000 A 
ATOM      2  C   UNL     1       4.316   2.928  19.428  0.00  0.00    +0.000 A 
ATOM      3  C   UNL     1       3.751   2.596  20.668  0.00  0.00    +0.000 A 
ATOM      4  C   UNL     1       2.374   2.680  20.834  0.00  0.00    +0.000 A 
ATOM      5  C   UNL     1       1.568   3.097  19.781  0.00  0.00    +0.000 A 
ATOM      6  C   UNL     1       2.125   3.431  18.551  0.00  0.00    +0.000 A 
ENDROOT
BRANCH   1   8
ATOM      7  C   UNL     1       5.017   4.685  16.962  0.00  0.00    +0.000 C 
ATOM      8  C   UNL     1       4.120   3.696  17.073  0.00  0.00    +0.000 C 
BRANCH   7  11
ATOM      9  O   UNL     1       7.457   5.277  14.455  0.00  0.00    +0.000 OA
ATOM     10  C   UNL     1       6.963   5.012  15.543  0.00  0.00    +0.000 C 
ATOM     11  N   UNL     1       5.613   4.981  15.766  0.00  0.00    +0.000 N 
ATOM     12  H   UNL     1       5.041   5.174  14.951  0.00  0.00    +0.000 HD
ENDBRANCH   7  11
ENDBRANCH   1   8
BRANCH   4  13
ATOM     13  O   UNL     1       1.763   2.364  22.015  0.00  0.00    +0.000 OA
ATOM     14  H   UNL     1       1.988   3.049  22.669  0.00  0.00    +0.000 HD
ENDBRANCH   4  13
BRANCH   5  15
ATOM     15  O   UNL     1       0.210   3.187  19.941  0.00  0.00    +0.000 OA
ATOM     16  H   UNL     1      -0.154   2.842  19.099  0.00  0.00    +0.000 HD
ENDBRANCH   5  15
BRANCH   6  17
ATOM     17  O   UNL     1       1.296   3.846  17.544  0.00  0.00    +0.000 OA
ATOM     18  H   UNL     1       1.897   4.109  16.819  0.00  0.00    +0.000 HD
ENDBRANCH   6  17
TORSDOF 5
ENDMDL
MODEL 8
REMARK VINA RESULT:      -5.9      2.369      5.836
REMARK  Name = 
REMARK  5 active torsions:
REMARK  status: ('A' for Active; 'I' for Inactive)
REMARK    1  A    between atoms: N_3  and  C_4
REMARK    2  A    between atoms: C_5  and  C_6
REMARK    3  A    between atoms: C_9  and  O_10
REMARK    4  A    between atoms: C_11  and  O_12
REMARK    5  A    between atoms: C_13  and  O_14
REMARK                            x       y       z     vdW  Elec       q    Type
REMARK                         _______ _______ _______ _____ _____    ______ ____
ROOT
ATOM      1  C   UNL     1       4.905   4.030  18.046  0.00  0.00    +0.000 A 
ATOM      2  C   UNL     1       4.662   3.767  16.687  0.00  0.00    +0.000 A 
ATOM      3  C   UNL     1       5.518   4.267  15.694  0.00  0.00    +0.000 A 
ATOM      4  C   UNL     1       6.620   5.028  16.065  0.00  0.00    +0.000 A 
ATOM      5  C   UNL     1       6.865   5.295  17.407  0.00  0.00    +0.000 A 
ATOM      6  C   UNL     1       6.016   4.803  18.394  0.00  0.00    +0.000 A 
ENDROOT
BRANCH   1   8
ATOM      7  C   UNL     1       2.859   4.132  19.395  0.00  0.00    +0.000 C 
ATOM      8  C   UNL     1       3.995   3.502  19.065  0.00  0.00    +0.000 C 
BRANCH   7  11
ATOM      9  O   UNL     1       1.557   2.493  22.259  0.00  0.00    +0.000 OA
ATOM     10  C   UNL     1       2.362   2.936  21.451  0.00  0.00    +0.000 C 
ATOM     11  N   UNL     1       1.995   3.615  20.321  0.00  0.00    +0.000 N 
ATOM     12  H   UNL     1       0.996   3.747  20.209  0.00  0.00    +0.000 HD
ENDBRANCH   7  11
ENDBRANCH   1   8
BRANCH   4  13
ATOM     13  O   UNL     1       7.494   5.539  15.146  0.00  0.00    +0.000 OA
ATOM     14  H   UNL     1       6.984   5.843  14.375  0.00  0.00    +0.000 HD
ENDBRANCH   4  13
BRANCH   5  15
ATOM     15  O   UNL     1       7.948   6.049  17.778  0.00  0.00    +0.000 OA
ATOM     16  H   UNL     1       8.225   6.494  16.950  0.00  0.00    +0.000 HD
ENDBRANCH   5  15
BRANCH   6  17
ATOM     17  O   UNL     1       6.290   5.097  19.703  0.00  0.00    +0.000 OA
ATOM     18  H   UNL     1       5.828   4.404  20.215  0.00  0.00    +0.000 HD
ENDBRANCH   6  17
TORSDOF 5
ENDMDL
MODEL 9
REMARK VINA RESULT:      -5.9      3.930      5.003
REMARK  Name = 
REMARK  5 active torsions:
REMARK  status: ('A' for Active; 'I' for Inactive)
REMARK    1  A    between atoms: N_3  and  C_4
REMARK    2  A    between atoms: C_5  and  C_6
REMARK    3  A    between atoms: C_9  and  O_10
REMARK    4  A    between atoms: C_11  and  O_12
REMARK    5  A    between atoms: C_13  and  O_14
REMARK                            x       y       z     vdW  Elec       q    Type
REMARK                         _______ _______ _______ _____ _____    ______ ____
ROOT
ATOM      1  C   UNL     1       7.042   6.488  17.860  0.00  0.00    +0.000 A 
ATOM      2  C   UNL     1       6.405   6.488  16.608  0.00  0.00    +0.000 A 
ATOM      3  C   UNL     1       5.489   5.481  16.268  0.00  0.00    +0.000 A 
ATOM      4  C   UNL     1       5.209   4.477  17.187  0.00  0.00    +0.000 A 
ATOM      5  C   UNL     1       5.838   4.469  18.427  0.00  0.00    +0.000 A 
ATOM      6  C   UNL     1       6.749   5.465  18.765  0.00  0.00    +0.000 A 
ENDROOT
BRANCH   1   8
ATOM      7  C   UNL     1       7.858   8.799  17.734  0.00  0.00    +0.000 C 
ATOM      8  C   UNL     1       8.000   7.547  18.191  0.00  0.00    +0.000 C 
BRANCH   7  11
ATOM      9  O   UNL     1       9.996  10.924  19.604  0.00  0.00    +0.000 OA
ATOM     10  C   UNL     1       9.207  10.027  19.340  0.00  0.00    +0.000 C 
ATOM     11  N   UNL     1       8.735   9.791  18.077  0.00  0.00    +0.000 N 
ATOM     12  H   UNL     1       9.107  10.405  17.361  0.00  0.00    +0.000 HD
ENDBRANCH   7  11
ENDBRANCH   1   8
BRANCH   4  13
ATOM     13  O   UNL     1       4.322   3.472  16.918  0.00  0.00    +0.000 OA
ATOM     14  H   UNL     1       4.715   2.631  17.211  0.00  0.00    +0.000 HD
ENDBRANCH   4  13
BRANCH   5  15
ATOM     15  O   UNL     1       5.568   3.479  19.335  0.00  0.00    +0.000 OA
ATOM     16  H   UNL     1       6.437   3.052  19.489  0.00  0.00    +0.000 HD
ENDBRANCH   5  15
BRANCH   6  17
ATOM     17  O   UNL     1       7.352   5.414  19.993  0.00  0.00    +0.000 OA
ATOM     18  H   UNL     1       7.734   6.305  20.120  0.00  0.00    +0.000 HD
ENDBRANCH   6  17
TORSDOF 5
ENDMDL
