MODEL 1
REMARK VINA RESULT:      -8.2      0.000      0.000
REMARK  Name = 
REMARK  7 active torsions:
REMARK  status: ('A' for Active; 'I' for Inactive)
REMARK    1  A    between atoms: C_1  and  O_2
REMARK    2  A    between atoms: O_2  and  C_3
REMARK    3  A    between atoms: C_7  and  O_8
REMARK    4  A    between atoms: O_8  and  C_9
REMARK    5  A    between atoms: C_10  and  C_11
REMARK    6  A    between atoms: N_17  and  C_18
REMARK    7  A    between atoms: C_18  and  C_19
REMARK                            x       y       z     vdW  Elec       q    Type
REMARK                         _______ _______ _______ _____ _____    ______ ____
ROOT
ATOM      1  C   UNL     1       3.854   4.248  19.757  0.00  0.00    +0.000 C 
ATOM      2  C   UNL     1       3.806   2.801  20.271  0.00  0.00    +0.000 C 
ATOM      3  C   UNL     1       2.902   2.702  21.477  0.00  0.00    +0.000 C 
ATOM      4  C   UNL     1       1.514   3.172  21.106  0.00  0.00    +0.000 C 
ATOM      5  C   UNL     1       1.440   4.519  20.405  0.00  0.00    +0.000 C 
ATOM      6  O   UNL     1       0.347   5.087  20.396  0.00  0.00    +0.000 OA
ATOM      7  N   UNL     1       2.559   4.976  19.729  0.00  0.00    +0.000 N 
ENDROOT
BRANCH   1  13
ATOM      8  C   UNL     1       6.005   4.794  18.504  0.00  0.00    +0.000 A 
ATOM      9  C   UNL     1       6.819   4.787  17.365  0.00  0.00    +0.000 A 
ATOM     10  C   UNL     1       6.301   4.414  16.137  0.00  0.00    +0.000 A 
ATOM     11  C   UNL     1       4.965   4.033  16.044  0.00  0.00    +0.000 A 
ATOM     12  C   UNL     1       4.141   3.996  17.180  0.00  0.00    +0.000 A 
ATOM     13  C   UNL     1       4.656   4.347  18.449  0.00  0.00    +0.000 A 
BRANCH   8  15
ATOM     14  C   UNL     1       7.861   5.625  19.729  0.00  0.00    +0.000 C 
ATOM     15  O   UNL     1       6.497   5.201  19.726  0.00  0.00    +0.000 OA
ENDBRANCH   8  15
BRANCH  12  16
ATOM     16  O   UNL     1       2.920   3.430  16.930  0.00  0.00    +0.000 OA
ATOM     17  C   UNL     1       2.721   2.100  17.396  0.00  0.00    +0.000 C 
ENDBRANCH  12  16
ENDBRANCH   1  13
BRANCH   7  18
ATOM     18  C   UNL     1       2.621   6.323  19.111  0.00  0.00    +0.000 C 
BRANCH  18  19
ATOM     19  C   UNL     1       1.982   7.497  19.784  0.00  0.00    +0.000 A 
ATOM     20  C   UNL     1       1.594   7.605  21.105  0.00  0.00    +0.000 A 
ATOM     21  C   UNL     1       0.895   8.822  21.401  0.00  0.00    +0.000 A 
ATOM     22  C   UNL     1       0.354   9.299  22.619  0.00  0.00    +0.000 A 
ATOM     23  C   UNL     1      -0.296  10.536  22.672  0.00  0.00    +0.000 A 
ATOM     24  C   UNL     1      -0.436  11.302  21.524  0.00  0.00    +0.000 A 
ATOM     25  C   UNL     1       0.077  10.851  20.304  0.00  0.00    +0.000 A 
ATOM     26  C   UNL     1       0.750   9.612  20.258  0.00  0.00    +0.000 A 
ATOM     27  S   UNL     1       1.480   8.865  18.885  0.00  0.00    +0.000 S 
ENDBRANCH  18  19
ENDBRANCH   7  18
TORSDOF 5
ENDMDL
MODEL 2
REMARK VINA RESULT:      -8.0      0.167      2.448
REMARK  Name = 
REMARK  7 active torsions:
REMARK  status: ('A' for Active; 'I' for Inactive)
REMARK    1  A    between atoms: C_1  and  O_2
REMARK    2  A    between atoms: O_2  and  C_3
REMARK    3  A    between atoms: C_7  and  O_8
REMARK    4  A    between atoms: O_8  and  C_9
REMARK    5  A    between atoms: C_10  and  C_11
REMARK    6  A    between atoms: N_17  and  C_18
REMARK    7  A    between atoms: C_18  and  C_19
REMARK                            x       y       z     vdW  Elec       q    Type
REMARK                         _______ _______ _______ _____ _____    ______ ____
ROOT
ATOM      1  C   UNL     1       3.807   4.198  19.889  0.00  0.00    +0.000 C 
ATOM      2  C   UNL     1       3.706   2.748  20.387  0.00  0.00    +0.000 C 
ATOM      3  C   UNL     1       2.733   2.654  21.539  0.00  0.00    +0.000 C 
ATOM      4  C   UNL     1       1.377   3.150  21.093  0.00  0.00    +0.000 C 
ATOM      5  C   UNL     1       1.363   4.503  20.402  0.00  0.00    +0.000 C 
ATOM      6  O   UNL     1       0.282   5.088  20.336  0.00  0.00    +0.000 OA
ATOM      7  N   UNL     1       2.527   4.948  19.794  0.00  0.00    +0.000 N 
ENDROOT
BRANCH   1  13
ATOM      8  C   UNL     1       4.114   3.961  17.371  0.00  0.00    +0.000 A 
ATOM      9  C   UNL     1       4.825   4.147  16.180  0.00  0.00    +0.000 A 
ATOM     10  C   UNL     1       6.137   4.591  16.210  0.00  0.00    +0.000 A 
ATOM     11  C   UNL     1       6.739   4.864  17.435  0.00  0.00    +0.000 A 
ATOM     12  C   UNL     1       6.032   4.720  18.639  0.00  0.00    +0.000 A 
ATOM     13  C   UNL     1       4.683   4.294  18.630  0.00  0.00    +0.000 A 
BRANCH   8  15
ATOM     14  C   UNL     1       2.693   2.060  17.349  0.00  0.00    +0.000 C 
ATOM     15  O   UNL     1       2.821   3.482  17.358  0.00  0.00    +0.000 OA
ENDBRANCH   8  15
BRANCH  12  16
ATOM     16  O   UNL     1       6.722   5.200  19.720  0.00  0.00    +0.000 OA
ATOM     17  C   UNL     1       7.986   5.803  19.458  0.00  0.00    +0.000 C 
ENDBRANCH  12  16
ENDBRANCH   1  13
BRANCH   7  18
ATOM     18  C   UNL     1       2.645   6.298  19.193  0.00  0.00    +0.000 C 
BRANCH  18  19
ATOM     19  C   UNL     1       1.993   7.478  19.843  0.00  0.00    +0.000 A 
ATOM     20  C   UNL     1       1.578   7.598  21.154  0.00  0.00    +0.000 A 
ATOM     21  C   UNL     1       0.873   8.817  21.426  0.00  0.00    +0.000 A 
ATOM     22  C   UNL     1       0.308   9.305  22.629  0.00  0.00    +0.000 A 
ATOM     23  C   UNL     1      -0.343  10.541  22.658  0.00  0.00    +0.000 A 
ATOM     24  C   UNL     1      -0.461  11.297  21.500  0.00  0.00    +0.000 A 
ATOM     25  C   UNL     1       0.075  10.835  20.294  0.00  0.00    +0.000 A 
ATOM     26  C   UNL     1       0.750   9.596  20.273  0.00  0.00    +0.000 A 
ATOM     27  S   UNL     1       1.507   8.837  18.921  0.00  0.00    +0.000 S 
ENDBRANCH  18  19
ENDBRANCH   7  18
TORSDOF 5
ENDMDL
MODEL 3
REMARK VINA RESULT:      -7.7      3.640      8.029
REMARK  Name = 
REMARK  7 active torsions:
REMARK  status: ('A' for Active; 'I' for Inactive)
REMARK    1  A    between atoms: C_1  and  O_2
REMARK    2  A    between atoms: O_2  and  C_3
REMARK    3  A    between atoms: C_7  and  O_8
REMARK    4  A    between atoms: O_8  and  C_9
REMARK    5  A    between atoms: C_10  and  C_11
REMARK    6  A    between atoms: N_17  and  C_18
REMARK    7  A    between atoms: C_18  and  C_19
REMARK                            x       y       z     vdW  Elec       q    Type
REMARK                         _______ _______ _______ _____ _____    ______ ____
ROOT
ATOM      1  C   UNL     1       5.536   4.969  17.852  0.00  0.00    +0.000 C 
ATOM      2  C   UNL     1       6.104   4.830  19.273  0.00  0.00    +0.000 C 
ATOM      3  C   UNL     1       7.591   5.097  19.273  0.00  0.00    +0.000 C 
ATOM      4  C   UNL     1       7.853   6.486  18.738  0.00  0.00    +0.000 C 
ATOM      5  C   UNL     1       7.180   6.822  17.417  0.00  0.00    +0.000 C 
ATOM      6  O   UNL     1       7.627   7.781  16.788  0.00  0.00    +0.000 OA
ATOM      7  N   UNL     1       6.047   6.112  17.051  0.00  0.00    +0.000 N 
ENDROOT
BRANCH   1  13
ATOM      8  C   UNL     1       3.426   3.553  17.666  0.00  0.00    +0.000 A 
ATOM      9  C   UNL     1       2.044   3.356  17.777  0.00  0.00    +0.000 A 
ATOM     10  C   UNL     1       1.199   4.431  17.995  0.00  0.00    +0.000 A 
ATOM     11  C   UNL     1       1.735   5.711  18.114  0.00  0.00    +0.000 A 
ATOM     12  C   UNL     1       3.121   5.926  18.043  0.00  0.00    +0.000 A 
ATOM     13  C   UNL     1       4.004   4.839  17.850  0.00  0.00    +0.000 A 
BRANCH   8  15
ATOM     14  C   UNL     1       3.967   1.282  18.094  0.00  0.00    +0.000 C 
ATOM     15  O   UNL     1       4.275   2.498  17.411  0.00  0.00    +0.000 OA
ENDBRANCH   8  15
BRANCH  12  16
ATOM     16  O   UNL     1       3.474   7.210  18.359  0.00  0.00    +0.000 OA
ATOM     17  C   UNL     1       2.723   8.252  17.745  0.00  0.00    +0.000 C 
ENDBRANCH  12  16
ENDBRANCH   1  13
BRANCH   7  18
ATOM     18  C   UNL     1       5.387   6.289  15.735  0.00  0.00    +0.000 C 
BRANCH  18  19
ATOM     19  C   UNL     1       5.705   5.371  14.597  0.00  0.00    +0.000 A 
ATOM     20  C   UNL     1       4.863   4.466  13.981  0.00  0.00    +0.000 A 
ATOM     21  C   UNL     1       5.517   3.646  13.002  0.00  0.00    +0.000 A 
ATOM     22  C   UNL     1       5.003   2.627  12.165  0.00  0.00    +0.000 A 
ATOM     23  C   UNL     1       5.840   1.952  11.272  0.00  0.00    +0.000 A 
ATOM     24  C   UNL     1       7.192   2.262  11.210  0.00  0.00    +0.000 A 
ATOM     25  C   UNL     1       7.730   3.255  12.033  0.00  0.00    +0.000 A 
ATOM     26  C   UNL     1       6.878   3.948  12.919  0.00  0.00    +0.000 A 
ATOM     27  S   UNL     1       7.305   5.217  14.007  0.00  0.00    +0.000 S 
ENDBRANCH  18  19
ENDBRANCH   7  18
TORSDOF 5
ENDMDL
MODEL 4
REMARK VINA RESULT:      -7.6      0.810      1.386
REMARK  Name = 
REMARK  7 active torsions:
REMARK  status: ('A' for Active; 'I' for Inactive)
REMARK    1  A    between atoms: C_1  and  O_2
REMARK    2  A    between atoms: O_2  and  C_3
REMARK    3  A    between atoms: C_7  and  O_8
REMARK    4  A    between atoms: O_8  and  C_9
REMARK    5  A    between atoms: C_10  and  C_11
REMARK    6  A    between atoms: N_17  and  C_18
REMARK    7  A    between atoms: C_18  and  C_19
REMARK                            x       y       z     vdW  Elec       q    Type
REMARK                         _______ _______ _______ _____ _____    ______ ____
ROOT
ATOM      1  C   UNL     1       3.967   4.274  19.759  0.00  0.00    +0.000 C 
ATOM      2  C   UNL     1       3.717   2.820  20.187  0.00  0.00    +0.000 C 
ATOM      3  C   UNL     1       2.816   2.777  21.399  0.00  0.00    +0.000 C 
ATOM      4  C   UNL     1       1.506   3.460  21.077  0.00  0.00    +0.000 C 
ATOM      5  C   UNL     1       1.619   4.843  20.458  0.00  0.00    +0.000 C 
ATOM      6  O   UNL     1       0.618   5.559  20.499  0.00  0.00    +0.000 OA
ATOM      7  N   UNL     1       2.787   5.178  19.793  0.00  0.00    +0.000 N 
ENDROOT
BRANCH   1  13
ATOM      8  C   UNL     1       6.140   4.698  18.499  0.00  0.00    +0.000 A 
ATOM      9  C   UNL     1       6.947   4.653  17.355  0.00  0.00    +0.000 A 
ATOM     10  C   UNL     1       6.399   4.327  16.125  0.00  0.00    +0.000 A 
ATOM     11  C   UNL     1       5.041   4.033  16.037  0.00  0.00    +0.000 A 
ATOM     12  C   UNL     1       4.223   4.035  17.177  0.00  0.00    +0.000 A 
ATOM     13  C   UNL     1       4.766   4.337  18.447  0.00  0.00    +0.000 A 
BRANCH   8  15
ATOM     14  C   UNL     1       7.937   5.704  19.680  0.00  0.00    +0.000 C 
ATOM     15  O   UNL     1       6.664   5.058  19.723  0.00  0.00    +0.000 OA
ENDBRANCH   8  15
BRANCH  12  16
ATOM     16  O   UNL     1       2.966   3.551  16.928  0.00  0.00    +0.000 OA
ATOM     17  C   UNL     1       2.726   2.188  17.261  0.00  0.00    +0.000 C 
ENDBRANCH  12  16
ENDBRANCH   1  13
BRANCH   7  18
ATOM     18  C   UNL     1       3.036   6.537  19.254  0.00  0.00    +0.000 C 
BRANCH  18  19
ATOM     19  C   UNL     1       2.062   7.644  19.510  0.00  0.00    +0.000 A 
ATOM     20  C   UNL     1       1.452   8.465  18.582  0.00  0.00    +0.000 A 
ATOM     21  C   UNL     1       0.666   9.512  19.168  0.00  0.00    +0.000 A 
ATOM     22  C   UNL     1      -0.106  10.531  18.561  0.00  0.00    +0.000 A 
ATOM     23  C   UNL     1      -0.800  11.458  19.344  0.00  0.00    +0.000 A 
ATOM     24  C   UNL     1      -0.724  11.400  20.728  0.00  0.00    +0.000 A 
ATOM     25  C   UNL     1       0.041  10.412  21.355  0.00  0.00    +0.000 A 
ATOM     26  C   UNL     1       0.724   9.466  20.563  0.00  0.00    +0.000 A 
ATOM     27  S   UNL     1       1.703   8.153  21.105  0.00  0.00    +0.000 S 
ENDBRANCH  18  19
ENDBRANCH   7  18
TORSDOF 5
ENDMDL
MODEL 5
REMARK VINA RESULT:      -7.5      3.923      9.259
REMARK  Name = 
REMARK  7 active torsions:
REMARK  status: ('A' for Active; 'I' for Inactive)
REMARK    1  A    between atoms: C_1  and  O_2
REMARK    2  A    between atoms: O_2  and  C_3
REMARK    3  A    between atoms: C_7  and  O_8
REMARK    4  A    between atoms: O_8  and  C_9
REMARK    5  A    between atoms: C_10  and  C_11
REMARK    6  A    between atoms: N_17  and  C_18
REMARK    7  A    between atoms: C_18  and  C_19
REMARK                            x       y       z     vdW  Elec       q    Type
REMARK                         _______ _______ _______ _____ _____    ______ ____
ROOT
ATOM      1  C   UNL     1       1.021  12.778  21.020  0.00  0.00    +0.000 C 
ATOM      2  C   UNL     1       1.729  14.030  21.562  0.00  0.00    +0.000 C 
ATOM      3  C   UNL     1       3.138  14.111  21.023  0.00  0.00    +0.000 C 
ATOM      4  C   UNL     1       3.097  14.145  19.512  0.00  0.00    +0.000 C 
ATOM      5  C   UNL     1       2.260  13.063  18.850  0.00  0.00    +0.000 C 
ATOM      6  O   UNL     1       2.471  12.842  17.657  0.00  0.00    +0.000 OA
ATOM      7  N   UNL     1       1.246  12.469  19.584  0.00  0.00    +0.000 N 
ENDROOT
BRANCH   1  13
ATOM      8  C   UNL     1      -0.865  11.819  22.439  0.00  0.00    +0.000 A 
ATOM      9  C   UNL     1      -2.169  11.829  22.951  0.00  0.00    +0.000 A 
ATOM     10  C   UNL     1      -3.114  12.702  22.438  0.00  0.00    +0.000 A 
ATOM     11  C   UNL     1      -2.756  13.578  21.417  0.00  0.00    +0.000 A 
ATOM     12  C   UNL     1      -1.445  13.610  20.916  0.00  0.00    +0.000 A 
ATOM     13  C   UNL     1      -0.456  12.748  21.443  0.00  0.00    +0.000 A 
BRANCH   8  15
ATOM     14  C   UNL     1      -0.431   9.659  23.324  0.00  0.00    +0.000 C 
ATOM     15  O   UNL     1       0.076  10.930  22.913  0.00  0.00    +0.000 OA
ENDBRANCH   8  15
BRANCH  12  16
ATOM     16  O   UNL     1      -1.235  14.649  20.049  0.00  0.00    +0.000 OA
ATOM     17  C   UNL     1      -1.574  15.951  20.513  0.00  0.00    +0.000 C 
ENDBRANCH  12  16
ENDBRANCH   1  13
BRANCH   7  18
ATOM     18  C   UNL     1       0.450  11.330  19.066  0.00  0.00    +0.000 C 
BRANCH  18  19
ATOM     19  C   UNL     1       1.011   9.943  19.081  0.00  0.00    +0.000 A 
ATOM     20  C   UNL     1       0.968   9.026  20.113  0.00  0.00    +0.000 A 
ATOM     21  C   UNL     1       1.713   7.829  19.849  0.00  0.00    +0.000 A 
ATOM     22  C   UNL     1       1.902   6.670  20.641  0.00  0.00    +0.000 A 
ATOM     23  C   UNL     1       2.681   5.608  20.172  0.00  0.00    +0.000 A 
ATOM     24  C   UNL     1       3.296   5.688  18.930  0.00  0.00    +0.000 A 
ATOM     25  C   UNL     1       3.138   6.825  18.132  0.00  0.00    +0.000 A 
ATOM     26  C   UNL     1       2.335   7.885  18.600  0.00  0.00    +0.000 A 
ATOM     27  S   UNL     1       1.977   9.367  17.791  0.00  0.00    +0.000 S 
ENDBRANCH  18  19
ENDBRANCH   7  18
TORSDOF 5
ENDMDL
MODEL 6
REMARK VINA RESULT:      -7.5      4.063      9.550
REMARK  Name = 
REMARK  7 active torsions:
REMARK  status: ('A' for Active; 'I' for Inactive)
REMARK    1  A    between atoms: C_1  and  O_2
REMARK    2  A    between atoms: O_2  and  C_3
REMARK    3  A    between atoms: C_7  and  O_8
REMARK    4  A    between atoms: O_8  and  C_9
REMARK    5  A    between atoms: C_10  and  C_11
REMARK    6  A    between atoms: N_17  and  C_18
REMARK    7  A    between atoms: C_18  and  C_19
REMARK                            x       y       z     vdW  Elec       q    Type
REMARK                         _______ _______ _______ _____ _____    ______ ____
ROOT
ATOM      1  C   UNL     1       0.784  13.059  21.134  0.00  0.00    +0.000 C 
ATOM      2  C   UNL     1       1.369  14.381  21.652  0.00  0.00    +0.000 C 
ATOM      3  C   UNL     1       2.797  14.542  21.188  0.00  0.00    +0.000 C 
ATOM      4  C   UNL     1       2.842  14.506  19.677  0.00  0.00    +0.000 C 
ATOM      5  C   UNL     1       2.123  13.337  19.023  0.00  0.00    +0.000 C 
ATOM      6  O   UNL     1       2.417  13.080  17.856  0.00  0.00    +0.000 OA
ATOM      7  N   UNL     1       1.112  12.704  19.729  0.00  0.00    +0.000 N 
ENDROOT
BRANCH   1  13
ATOM      8  C   UNL     1      -1.114  11.997  22.463  0.00  0.00    +0.000 A 
ATOM      9  C   UNL     1      -2.441  11.930  22.903  0.00  0.00    +0.000 A 
ATOM     10  C   UNL     1      -3.410  12.735  22.327  0.00  0.00    +0.000 A 
ATOM     11  C   UNL     1      -3.053  13.621  21.315  0.00  0.00    +0.000 A 
ATOM     12  C   UNL     1      -1.721  13.731  20.885  0.00  0.00    +0.000 A 
ATOM     13  C   UNL     1      -0.710  12.939  21.477  0.00  0.00    +0.000 A 
BRANCH   8  15
ATOM     14  C   UNL     1      -0.574   9.850  23.320  0.00  0.00    +0.000 C 
ATOM     15  O   UNL     1      -0.146  11.175  22.999  0.00  0.00    +0.000 OA
ENDBRANCH   8  15
BRANCH  12  16
ATOM     16  O   UNL     1      -1.529  14.771  20.015  0.00  0.00    +0.000 OA
ATOM     17  C   UNL     1      -1.842  16.075  20.495  0.00  0.00    +0.000 C 
ENDBRANCH  12  16
ENDBRANCH   1  13
BRANCH   7  18
ATOM     18  C   UNL     1       0.430  11.488  19.223  0.00  0.00    +0.000 C 
BRANCH  18  19
ATOM     19  C   UNL     1       1.163  10.186  19.139  0.00  0.00    +0.000 A 
ATOM     20  C   UNL     1       1.890   9.693  18.073  0.00  0.00    +0.000 A 
ATOM     21  C   UNL     1       2.364   8.354  18.270  0.00  0.00    +0.000 A 
ATOM     22  C   UNL     1       3.139   7.520  17.429  0.00  0.00    +0.000 A 
ATOM     23  C   UNL     1       3.490   6.230  17.836  0.00  0.00    +0.000 A 
ATOM     24  C   UNL     1       3.064   5.744  19.065  0.00  0.00    +0.000 A 
ATOM     25  C   UNL     1       2.287   6.540  19.911  0.00  0.00    +0.000 A 
ATOM     26  C   UNL     1       1.953   7.849  19.506  0.00  0.00    +0.000 A 
ATOM     27  S   UNL     1       1.031   9.016  20.382  0.00  0.00    +0.000 S 
ENDBRANCH  18  19
ENDBRANCH   7  18
TORSDOF 5
ENDMDL
MODEL 7
REMARK VINA RESULT:      -7.4      9.017     10.937
REMARK  Name = 
REMARK  7 active torsions:
REMARK  status: ('A' for Active; 'I' for Inactive)
REMARK    1  A    between atoms: C_1  and  O_2
REMARK    2  A    between atoms: O_2  and  C_3
REMARK    3  A    between atoms: C_7  and  O_8
REMARK    4  A    between atoms: O_8  and  C_9
REMARK    5  A    between atoms: C_10  and  C_11
REMARK    6  A    between atoms: N_17  and  C_18
REMARK    7  A    between atoms: C_18  and  C_19
REMARK                            x       y       z     vdW  Elec       q    Type
REMARK                         _______ _______ _______ _____ _____    ______ ____
ROOT
ATOM      1  C   UNL     1       8.000  14.187  18.654  0.00  0.00    +0.000 C 
ATOM      2  C   UNL     1       7.038  14.404  17.476  0.00  0.00    +0.000 C 
ATOM      3  C   UNL     1       5.687  14.857  17.978  0.00  0.00    +0.000 C 
ATOM      4  C   UNL     1       5.847  16.138  18.766  0.00  0.00    +0.000 C 
ATOM      5  C   UNL     1       6.916  16.118  19.846  0.00  0.00    +0.000 C 
ATOM      6  O   UNL     1       6.849  16.986  20.717  0.00  0.00    +0.000 OA
ATOM      7  N   UNL     1       7.955  15.208  19.732  0.00  0.00    +0.000 N 
ENDROOT
BRANCH   1  13
ATOM      8  C   UNL     1       9.887  12.521  18.259  0.00  0.00    +0.000 A 
ATOM      9  C   UNL     1      11.120  12.141  17.715  0.00  0.00    +0.000 A 
ATOM     10  C   UNL     1      11.948  13.086  17.132  0.00  0.00    +0.000 A 
ATOM     11  C   UNL     1      11.541  14.416  17.080  0.00  0.00    +0.000 A 
ATOM     12  C   UNL     1      10.292  14.812  17.586  0.00  0.00    +0.000 A 
ATOM     13  C   UNL     1       9.419  13.860  18.160  0.00  0.00    +0.000 A 
BRANCH   8  15
ATOM     14  C   UNL     1       9.697  10.795  19.877  0.00  0.00    +0.000 C 
ATOM     15  O   UNL     1       9.070  11.599  18.877  0.00  0.00    +0.000 OA
ENDBRANCH   8  15
BRANCH  12  16
ATOM     16  O   UNL     1       9.989  16.114  17.289  0.00  0.00    +0.000 OA
ATOM     17  C   UNL     1      10.700  17.118  18.005  0.00  0.00    +0.000 C 
ENDBRANCH  12  16
ENDBRANCH   1  13
BRANCH   7  18
ATOM     18  C   UNL     1       8.982  15.037  20.789  0.00  0.00    +0.000 C 
BRANCH  18  19
ATOM     19  C   UNL     1       8.653  14.312  22.056  0.00  0.00    +0.000 A 
ATOM     20  C   UNL     1       7.943  13.136  22.197  0.00  0.00    +0.000 A 
ATOM     21  C   UNL     1       7.695  12.774  23.562  0.00  0.00    +0.000 A 
ATOM     22  C   UNL     1       7.022  11.655  24.109  0.00  0.00    +0.000 A 
ATOM     23  C   UNL     1       6.900  11.506  25.493  0.00  0.00    +0.000 A 
ATOM     24  C   UNL     1       7.423  12.466  26.349  0.00  0.00    +0.000 A 
ATOM     25  C   UNL     1       8.082  13.587  25.837  0.00  0.00    +0.000 A 
ATOM     26  C   UNL     1       8.221  13.724  24.440  0.00  0.00    +0.000 A 
ATOM     27  S   UNL     1       9.007  14.999  23.584  0.00  0.00    +0.000 S 
ENDBRANCH  18  19
ENDBRANCH   7  18
TORSDOF 5
ENDMDL
MODEL 8
REMARK VINA RESULT:      -7.4      1.615      3.190
REMARK  Name = 
REMARK  7 active torsions:
REMARK  status: ('A' for Active; 'I' for Inactive)
REMARK    1  A    between atoms: C_1  and  O_2
REMARK    2  A    between atoms: O_2  and  C_3
REMARK    3  A    between atoms: C_7  and  O_8
REMARK    4  A    between atoms: O_8  and  C_9
REMARK    5  A    between atoms: C_10  and  C_11
REMARK    6  A    between atoms: N_17  and  C_18
REMARK    7  A    between atoms: C_18  and  C_19
REMARK                            x       y       z     vdW  Elec       q    Type
REMARK                         _______ _______ _______ _____ _____    ______ ____
ROOT
ATOM      1  C   UNL     1       4.781   3.960  18.506  0.00  0.00    +0.000 C 
ATOM      2  C   UNL     1       4.695   2.838  17.460  0.00  0.00    +0.000 C 
ATOM      3  C   UNL     1       3.602   1.861  17.825  0.00  0.00    +0.000 C 
ATOM      4  C   UNL     1       2.283   2.594  17.917  0.00  0.00    +0.000 C 
ATOM      5  C   UNL     1       2.283   3.848  18.776  0.00  0.00    +0.000 C 
ATOM      6  O   UNL     1       1.189   4.269  19.152  0.00  0.00    +0.000 OA
ATOM      7  N   UNL     1       3.485   4.501  18.993  0.00  0.00    +0.000 N 
ENDROOT
BRANCH   1  13
ATOM      8  C   UNL     1       5.648   5.650  16.808  0.00  0.00    +0.000 A 
ATOM      9  C   UNL     1       6.461   6.721  16.420  0.00  0.00    +0.000 A 
ATOM     10  C   UNL     1       7.481   7.161  17.248  0.00  0.00    +0.000 A 
ATOM     11  C   UNL     1       7.683   6.537  18.475  0.00  0.00    +0.000 A 
ATOM     12  C   UNL     1       6.855   5.485  18.900  0.00  0.00    +0.000 A 
ATOM     13  C   UNL     1       5.791   5.039  18.084  0.00  0.00    +0.000 A 
BRANCH   8  15
ATOM     14  C   UNL     1       5.091   4.716  14.698  0.00  0.00    +0.000 C 
ATOM     15  O   UNL     1       4.654   5.176  15.977  0.00  0.00    +0.000 OA
ENDBRANCH   8  15
BRANCH  12  16
ATOM     16  O   UNL     1       7.089   5.118  20.198  0.00  0.00    +0.000 OA
ATOM     17  C   UNL     1       8.429   5.236  20.667  0.00  0.00    +0.000 C 
ENDBRANCH  12  16
ENDBRANCH   1  13
BRANCH   7  18
ATOM     18  C   UNL     1       3.606   5.664  19.905  0.00  0.00    +0.000 C 
BRANCH  18  19
ATOM     19  C   UNL     1       2.767   6.885  19.693  0.00  0.00    +0.000 A 
ATOM     20  C   UNL     1       1.905   7.485  20.590  0.00  0.00    +0.000 A 
ATOM     21  C   UNL     1       1.154   8.571  20.029  0.00  0.00    +0.000 A 
ATOM     22  C   UNL     1       0.194   9.427  20.620  0.00  0.00    +0.000 A 
ATOM     23  C   UNL     1      -0.419  10.433  19.868  0.00  0.00    +0.000 A 
ATOM     24  C   UNL     1      -0.105  10.592  18.525  0.00  0.00    +0.000 A 
ATOM     25  C   UNL     1       0.830   9.753  17.912  0.00  0.00    +0.000 A 
ATOM     26  C   UNL     1       1.461   8.752  18.679  0.00  0.00    +0.000 A 
ATOM     27  S   UNL     1       2.654   7.622  18.152  0.00  0.00    +0.000 S 
ENDBRANCH  18  19
ENDBRANCH   7  18
TORSDOF 5
ENDMDL
MODEL 9
REMARK VINA RESULT:      -7.4      6.310      9.896
REMARK  Name = 
REMARK  7 active torsions:
REMARK  status: ('A' for Active; 'I' for Inactive)
REMARK    1  A    between atoms: C_1  and  O_2
REMARK    2  A    between atoms: O_2  and  C_3
REMARK    3  A    between atoms: C_7  and  O_8
REMARK    4  A    between atoms: O_8  and  C_9
REMARK    5  A    between atoms: C_10  and  C_11
REMARK    6  A    between atoms: N_17  and  C_18
REMARK    7  A    between atoms: C_18  and  C_19
REMARK                            x       y       z     vdW  Elec       q    Type
REMARK                         _______ _______ _______ _____ _____    ______ ____
ROOT
ATOM      1  C   UNL     1      -1.110  11.789  19.719  0.00  0.00    +0.000 C 
ATOM      2  C   UNL     1      -1.459  10.405  19.152  0.00  0.00    +0.000 C 
ATOM      3  C   UNL     1      -0.702  10.157  17.868  0.00  0.00    +0.000 C 
ATOM      4  C   UNL     1       0.783  10.256  18.132  0.00  0.00    +0.000 C 
ATOM      5  C   UNL     1       1.240  11.504  18.869  0.00  0.00    +0.000 C 
ATOM      6  O   UNL     1       2.436  11.788  18.801  0.00  0.00    +0.000 OA
ATOM      7  N   UNL     1       0.323  12.180  19.658  0.00  0.00    +0.000 N 
ENDROOT
BRANCH   1  13
ATOM      8  C   UNL     1      -3.023  12.656  21.162  0.00  0.00    +0.000 A 
ATOM      9  C   UNL     1      -3.717  12.771  22.372  0.00  0.00    +0.000 A 
ATOM     10  C   UNL     1      -3.147  12.320  23.551  0.00  0.00    +0.000 A 
ATOM     11  C   UNL     1      -1.883  11.739  23.522  0.00  0.00    +0.000 A 
ATOM     12  C   UNL     1      -1.186  11.579  22.314  0.00  0.00    +0.000 A 
ATOM     13  C   UNL     1      -1.759  12.007  21.095  0.00  0.00    +0.000 A 
BRANCH   8  15
ATOM     14  C   UNL     1      -4.790  12.532  19.582  0.00  0.00    +0.000 C 
ATOM     15  O   UNL     1      -3.561  13.136  19.986  0.00  0.00    +0.000 OA
ENDBRANCH   8  15
BRANCH  12  16
ATOM     16  O   UNL     1      -0.046  10.832  22.455  0.00  0.00    +0.000 OA
ATOM     17  C   UNL     1      -0.217   9.454  22.768  0.00  0.00    +0.000 C 
ENDBRANCH  12  16
ENDBRANCH   1  13
BRANCH   7  18
ATOM     18  C   UNL     1       0.642  13.465  20.325  0.00  0.00    +0.000 C 
BRANCH  18  19
ATOM     19  C   UNL     1       0.635  14.745  19.550  0.00  0.00    +0.000 A 
ATOM     20  C   UNL     1      -0.456  15.519  19.207  0.00  0.00    +0.000 A 
ATOM     21  C   UNL     1      -0.133  16.622  18.349  0.00  0.00    +0.000 A 
ATOM     22  C   UNL     1      -0.958  17.632  17.798  0.00  0.00    +0.000 A 
ATOM     23  C   UNL     1      -0.415  18.623  16.975  0.00  0.00    +0.000 A 
ATOM     24  C   UNL     1       0.940  18.617  16.675  0.00  0.00    +0.000 A 
ATOM     25  C   UNL     1       1.777  17.626  17.195  0.00  0.00    +0.000 A 
ATOM     26  C   UNL     1       1.229  16.639  18.040  0.00  0.00    +0.000 A 
ATOM     27  S   UNL     1       2.061  15.339  18.813  0.00  0.00    +0.000 S 
ENDBRANCH  18  19
ENDBRANCH   7  18
TORSDOF 5
ENDMDL
