MODEL 1
REMARK VINA RESULT:      -6.3      0.000      0.000
REMARK  Name = 
REMARK  5 active torsions:
REMARK  status: ('A' for Active; 'I' for Inactive)
REMARK    1  A    between atoms: C_1  and  O_2
REMARK    2  A    between atoms: O_2  and  C_3
REMARK    3  A    between atoms: C_7  and  C_8
REMARK    4  A    between atoms: C_10  and  C_11
REMARK    5  A    between atoms: C_17  and  C_18
REMARK                            x       y       z     vdW  Elec       q    Type
REMARK                         _______ _______ _______ _____ _____    ______ ____
ROOT
ATOM      1  C   UNL     1       2.128   6.405  19.830  0.00  0.00    +0.000 A 
ATOM      2  N   UNL     1       1.834   5.472  20.754  0.00  0.00    +0.000 NA
ATOM      3  C   UNL     1       2.545   4.331  20.713  0.00  0.00    +0.000 A 
ATOM      4 CL   UNL     1       2.105   3.263  21.993  0.00  0.00    +0.000 Cl
ATOM      5  C   UNL     1       3.537   4.049  19.776  0.00  0.00    +0.000 A 
ATOM      6  C   UNL     1       3.848   5.028  18.790  0.00  0.00    +0.000 A 
ATOM      7  C   UNL     1       3.105   6.241  18.845  0.00  0.00    +0.000 A 
ENDROOT
BRANCH   6   8
ATOM      8  C   UNL     1       4.925   4.803  17.761  0.00  0.00    +0.000 A 
ATOM      9  C   UNL     1       6.279   5.074  18.033  0.00  0.00    +0.000 A 
ATOM     10  C   UNL     1       7.287   4.815  17.093  0.00  0.00    +0.000 A 
ATOM     11  C   UNL     1       6.957   4.350  15.829  0.00  0.00    +0.000 A 
ATOM     12  C   UNL     1       5.633   4.109  15.514  0.00  0.00    +0.000 A 
ATOM     13  C   UNL     1       4.632   4.302  16.480  0.00  0.00    +0.000 A 
ENDBRANCH   6   8
BRANCH   1  15
ATOM     14  C   UNL     1       1.326   8.161  21.179  0.00  0.00    +0.000 C 
ATOM     15  O   UNL     1       1.433   7.597  19.872  0.00  0.00    +0.000 OA
ENDBRANCH   1  15
BRANCH   5  16
ATOM     16  C   UNL     1       4.195   2.779  19.859  0.00  0.00    +0.000 C 
ATOM     17  N   UNL     1       4.770   1.774  19.900  0.00  0.00    +0.000 NA
ENDBRANCH   5  16
BRANCH   7  18
ATOM     18  C   UNL     1       3.329   7.340  17.948  0.00  0.00    +0.000 C 
ATOM     19  N   UNL     1       3.468   8.220  17.203  0.00  0.00    +0.000 NA
ENDBRANCH   7  18
TORSDOF 4
ENDMDL
MODEL 2
REMARK VINA RESULT:      -6.3      0.040      1.099
REMARK  Name = 
REMARK  5 active torsions:
REMARK  status: ('A' for Active; 'I' for Inactive)
REMARK    1  A    between atoms: C_1  and  O_2
REMARK    2  A    between atoms: O_2  and  C_3
REMARK    3  A    between atoms: C_7  and  C_8
REMARK    4  A    between atoms: C_10  and  C_11
REMARK    5  A    between atoms: C_17  and  C_18
REMARK                            x       y       z     vdW  Elec       q    Type
REMARK                         _______ _______ _______ _____ _____    ______ ____
ROOT
ATOM      1  C   UNL     1       2.149   6.407  19.821  0.00  0.00    +0.000 A 
ATOM      2  N   UNL     1       1.862   5.475  20.748  0.00  0.00    +0.000 NA
ATOM      3  C   UNL     1       2.573   4.335  20.706  0.00  0.00    +0.000 A 
ATOM      4 CL   UNL     1       2.142   3.270  21.991  0.00  0.00    +0.000 Cl
ATOM      5  C   UNL     1       3.560   4.053  19.764  0.00  0.00    +0.000 A 
ATOM      6  C   UNL     1       3.864   5.029  18.773  0.00  0.00    +0.000 A 
ATOM      7  C   UNL     1       3.120   6.242  18.830  0.00  0.00    +0.000 A 
ENDROOT
BRANCH   6   8
ATOM      8  C   UNL     1       4.935   4.803  17.739  0.00  0.00    +0.000 A 
ATOM      9  C   UNL     1       4.635   4.303  16.458  0.00  0.00    +0.000 A 
ATOM     10  C   UNL     1       5.624   4.141  15.477  0.00  0.00    +0.000 A 
ATOM     11  C   UNL     1       6.952   4.403  15.779  0.00  0.00    +0.000 A 
ATOM     12  C   UNL     1       7.289   4.859  17.041  0.00  0.00    +0.000 A 
ATOM     13  C   UNL     1       6.288   5.087  17.998  0.00  0.00    +0.000 A 
ENDBRANCH   6   8
BRANCH   1  15
ATOM     14  C   UNL     1       1.304   8.136  21.177  0.00  0.00    +0.000 C 
ATOM     15  O   UNL     1       1.453   7.598  19.863  0.00  0.00    +0.000 OA
ENDBRANCH   1  15
BRANCH   5  16
ATOM     16  C   UNL     1       4.220   2.783  19.846  0.00  0.00    +0.000 C 
ATOM     17  N   UNL     1       4.731   1.750  19.963  0.00  0.00    +0.000 NA
ENDBRANCH   5  16
BRANCH   7  18
ATOM     18  C   UNL     1       3.337   7.338  17.929  0.00  0.00    +0.000 C 
ATOM     19  N   UNL     1       3.486   8.204  17.169  0.00  0.00    +0.000 NA
ENDBRANCH   7  18
TORSDOF 4
ENDMDL
MODEL 3
REMARK VINA RESULT:      -6.2      1.702      3.828
REMARK  Name = 
REMARK  5 active torsions:
REMARK  status: ('A' for Active; 'I' for Inactive)
REMARK    1  A    between atoms: C_1  and  O_2
REMARK    2  A    between atoms: O_2  and  C_3
REMARK    3  A    between atoms: C_7  and  C_8
REMARK    4  A    between atoms: C_10  and  C_11
REMARK    5  A    between atoms: C_17  and  C_18
REMARK                            x       y       z     vdW  Elec       q    Type
REMARK                         _______ _______ _______ _____ _____    ______ ____
ROOT
ATOM      1  C   UNL     1       2.738   4.057  20.963  0.00  0.00    +0.000 A 
ATOM      2  N   UNL     1       2.011   5.183  21.086  0.00  0.00    +0.000 NA
ATOM      3  C   UNL     1       2.215   6.142  20.165  0.00  0.00    +0.000 A 
ATOM      4 CL   UNL     1       1.169   7.490  20.412  0.00  0.00    +0.000 Cl
ATOM      5  C   UNL     1       3.131   6.054  19.120  0.00  0.00    +0.000 A 
ATOM      6  C   UNL     1       3.911   4.870  18.987  0.00  0.00    +0.000 A 
ATOM      7  C   UNL     1       3.682   3.850  19.954  0.00  0.00    +0.000 A 
ENDROOT
BRANCH   6   8
ATOM      8  C   UNL     1       4.903   4.695  17.868  0.00  0.00    +0.000 A 
ATOM      9  C   UNL     1       4.514   4.231  16.597  0.00  0.00    +0.000 A 
ATOM     10  C   UNL     1       5.429   4.117  15.540  0.00  0.00    +0.000 A 
ATOM     11  C   UNL     1       6.772   4.393  15.750  0.00  0.00    +0.000 A 
ATOM     12  C   UNL     1       7.196   4.814  16.997  0.00  0.00    +0.000 A 
ATOM     13  C   UNL     1       6.267   4.994  18.034  0.00  0.00    +0.000 A 
ENDBRANCH   6   8
BRANCH   1  15
ATOM     14  C   UNL     1       1.230   2.451  21.792  0.00  0.00    +0.000 C 
ATOM     15  O   UNL     1       2.525   3.046  21.878  0.00  0.00    +0.000 OA
ENDBRANCH   1  15
BRANCH   5  16
ATOM     16  C   UNL     1       3.238   7.170  18.228  0.00  0.00    +0.000 C 
ATOM     17  N   UNL     1       3.276   8.059  17.485  0.00  0.00    +0.000 NA
ENDBRANCH   5  16
BRANCH   7  18
ATOM     18  C   UNL     1       4.358   2.583  19.933  0.00  0.00    +0.000 C 
ATOM     19  N   UNL     1       4.879   1.545  19.953  0.00  0.00    +0.000 NA
ENDBRANCH   7  18
TORSDOF 4
ENDMDL
MODEL 4
REMARK VINA RESULT:      -6.2      1.691      3.660
REMARK  Name = 
REMARK  5 active torsions:
REMARK  status: ('A' for Active; 'I' for Inactive)
REMARK    1  A    between atoms: C_1  and  O_2
REMARK    2  A    between atoms: O_2  and  C_3
REMARK    3  A    between atoms: C_7  and  C_8
REMARK    4  A    between atoms: C_10  and  C_11
REMARK    5  A    between atoms: C_17  and  C_18
REMARK                            x       y       z     vdW  Elec       q    Type
REMARK                         _______ _______ _______ _____ _____    ______ ____
ROOT
ATOM      1  C   UNL     1       2.690   4.198  20.986  0.00  0.00    +0.000 A 
ATOM      2  N   UNL     1       1.971   5.330  21.087  0.00  0.00    +0.000 NA
ATOM      3  C   UNL     1       2.181   6.270  20.149  0.00  0.00    +0.000 A 
ATOM      4 CL   UNL     1       1.145   7.630  20.369  0.00  0.00    +0.000 Cl
ATOM      5  C   UNL     1       3.098   6.157  19.106  0.00  0.00    +0.000 A 
ATOM      6  C   UNL     1       3.870   4.965  18.997  0.00  0.00    +0.000 A 
ATOM      7  C   UNL     1       3.634   3.965  19.983  0.00  0.00    +0.000 A 
ENDROOT
BRANCH   6   8
ATOM      8  C   UNL     1       4.863   4.762  17.883  0.00  0.00    +0.000 A 
ATOM      9  C   UNL     1       6.231   5.051  18.046  0.00  0.00    +0.000 A 
ATOM     10  C   UNL     1       7.162   4.814  17.025  0.00  0.00    +0.000 A 
ATOM     11  C   UNL     1       6.737   4.352  15.788  0.00  0.00    +0.000 A 
ATOM     12  C   UNL     1       5.395   4.094  15.580  0.00  0.00    +0.000 A 
ATOM     13  C   UNL     1       4.474   4.266  16.626  0.00  0.00    +0.000 A 
ENDBRANCH   6   8
BRANCH   1  15
ATOM     14  C   UNL     1       1.241   2.502  21.738  0.00  0.00    +0.000 C 
ATOM     15  O   UNL     1       2.469   3.205  21.920  0.00  0.00    +0.000 OA
ENDBRANCH   1  15
BRANCH   5  16
ATOM     16  C   UNL     1       3.214   7.255  18.194  0.00  0.00    +0.000 C 
ATOM     17  N   UNL     1       3.269   8.171  17.486  0.00  0.00    +0.000 NA
ENDBRANCH   5  16
BRANCH   7  18
ATOM     18  C   UNL     1       4.301   2.694  19.986  0.00  0.00    +0.000 C 
ATOM     19  N   UNL     1       4.879   1.686  20.006  0.00  0.00    +0.000 NA
ENDBRANCH   7  18
TORSDOF 4
ENDMDL
MODEL 5
REMARK VINA RESULT:      -5.6      2.428      5.018
REMARK  Name = 
REMARK  5 active torsions:
REMARK  status: ('A' for Active; 'I' for Inactive)
REMARK    1  A    between atoms: C_1  and  O_2
REMARK    2  A    between atoms: O_2  and  C_3
REMARK    3  A    between atoms: C_7  and  C_8
REMARK    4  A    between atoms: C_10  and  C_11
REMARK    5  A    between atoms: C_17  and  C_18
REMARK                            x       y       z     vdW  Elec       q    Type
REMARK                         _______ _______ _______ _____ _____    ______ ____
ROOT
ATOM      1  C   UNL     1       5.222   4.303  17.147  0.00  0.00    +0.000 A 
ATOM      2  N   UNL     1       4.703   3.095  17.429  0.00  0.00    +0.000 NA
ATOM      3  C   UNL     1       3.530   3.075  18.086  0.00  0.00    +0.000 A 
ATOM      4 CL   UNL     1       2.959   1.465  18.317  0.00  0.00    +0.000 Cl
ATOM      5  C   UNL     1       2.838   4.209  18.505  0.00  0.00    +0.000 A 
ATOM      6  C   UNL     1       3.384   5.492  18.218  0.00  0.00    +0.000 A 
ATOM      7  C   UNL     1       4.619   5.510  17.509  0.00  0.00    +0.000 A 
ENDROOT
BRANCH   6   8
ATOM      8  C   UNL     1       2.680   6.761  18.619  0.00  0.00    +0.000 A 
ATOM      9  C   UNL     1       2.307   7.734  17.672  0.00  0.00    +0.000 A 
ATOM     10  C   UNL     1       1.606   8.891  18.039  0.00  0.00    +0.000 A 
ATOM     11  C   UNL     1       1.326   9.142  19.374  0.00  0.00    +0.000 A 
ATOM     12  C   UNL     1       1.712   8.227  20.336  0.00  0.00    +0.000 A 
ATOM     13  C   UNL     1       2.353   7.035  19.959  0.00  0.00    +0.000 A 
ENDBRANCH   6   8
BRANCH   1  15
ATOM     14  C   UNL     1       6.302   3.907  15.093  0.00  0.00    +0.000 C 
ATOM     15  O   UNL     1       6.410   4.350  16.445  0.00  0.00    +0.000 OA
ENDBRANCH   1  15
BRANCH   5  16
ATOM     16  C   UNL     1       1.604   4.018  19.208  0.00  0.00    +0.000 C 
ATOM     17  N   UNL     1       0.631   3.826  19.807  0.00  0.00    +0.000 NA
ENDBRANCH   5  16
BRANCH   7  18
ATOM     18  C   UNL     1       5.276   6.722  17.109  0.00  0.00    +0.000 C 
ATOM     19  N   UNL     1       5.842   7.678  16.766  0.00  0.00    +0.000 NA
ENDBRANCH   7  18
TORSDOF 4
ENDMDL
MODEL 6
REMARK VINA RESULT:      -5.6      2.902      5.563
REMARK  Name = 
REMARK  5 active torsions:
REMARK  status: ('A' for Active; 'I' for Inactive)
REMARK    1  A    between atoms: C_1  and  O_2
REMARK    2  A    between atoms: O_2  and  C_3
REMARK    3  A    between atoms: C_7  and  C_8
REMARK    4  A    between atoms: C_10  and  C_11
REMARK    5  A    between atoms: C_17  and  C_18
REMARK                            x       y       z     vdW  Elec       q    Type
REMARK                         _______ _______ _______ _____ _____    ______ ____
ROOT
ATOM      1  C   UNL     1       3.742   3.165  17.513  0.00  0.00    +0.000 A 
ATOM      2  N   UNL     1       4.967   3.265  16.967  0.00  0.00    +0.000 NA
ATOM      3  C   UNL     1       5.500   4.497  16.892  0.00  0.00    +0.000 A 
ATOM      4 CL   UNL     1       7.094   4.460  16.234  0.00  0.00    +0.000 Cl
ATOM      5  C   UNL     1       4.866   5.662  17.317  0.00  0.00    +0.000 A 
ATOM      6  C   UNL     1       3.565   5.566  17.889  0.00  0.00    +0.000 A 
ATOM      7  C   UNL     1       3.009   4.258  17.981  0.00  0.00    +0.000 A 
ENDROOT
BRANCH   6   8
ATOM      8  C   UNL     1       2.829   6.779  18.392  0.00  0.00    +0.000 A 
ATOM      9  C   UNL     1       2.463   7.834  17.535  0.00  0.00    +0.000 A 
ATOM     10  C   UNL     1       1.733   8.940  17.994  0.00  0.00    +0.000 A 
ATOM     11  C   UNL     1       1.415   9.054  19.339  0.00  0.00    +0.000 A 
ATOM     12  C   UNL     1       1.791   8.054  20.217  0.00  0.00    +0.000 A 
ATOM     13  C   UNL     1       2.462   6.915  19.743  0.00  0.00    +0.000 A 
ENDBRANCH   6   8
BRANCH   1  15
ATOM     14  C   UNL     1       3.787   1.100  18.644  0.00  0.00    +0.000 C 
ATOM     15  O   UNL     1       3.186   1.906  17.630  0.00  0.00    +0.000 OA
ENDBRANCH   1  15
BRANCH   5  16
ATOM     16  C   UNL     1       5.565   6.902  17.156  0.00  0.00    +0.000 C 
ATOM     17  N   UNL     1       6.177   7.877  17.030  0.00  0.00    +0.000 NA
ENDBRANCH   5  16
BRANCH   7  18
ATOM     18  C   UNL     1       1.727   3.991  18.569  0.00  0.00    +0.000 C 
ATOM     19  N   UNL     1       0.708   3.737  19.066  0.00  0.00    +0.000 NA
ENDBRANCH   7  18
TORSDOF 4
ENDMDL
MODEL 7
REMARK VINA RESULT:      -5.6      2.393      4.931
REMARK  Name = 
REMARK  5 active torsions:
REMARK  status: ('A' for Active; 'I' for Inactive)
REMARK    1  A    between atoms: C_1  and  O_2
REMARK    2  A    between atoms: O_2  and  C_3
REMARK    3  A    between atoms: C_7  and  C_8
REMARK    4  A    between atoms: C_10  and  C_11
REMARK    5  A    between atoms: C_17  and  C_18
REMARK                            x       y       z     vdW  Elec       q    Type
REMARK                         _______ _______ _______ _____ _____    ______ ____
ROOT
ATOM      1  C   UNL     1       5.257   4.310  17.288  0.00  0.00    +0.000 A 
ATOM      2  N   UNL     1       4.738   3.101  17.572  0.00  0.00    +0.000 NA
ATOM      3  C   UNL     1       3.549   3.082  18.199  0.00  0.00    +0.000 A 
ATOM      4 CL   UNL     1       2.982   1.471  18.435  0.00  0.00    +0.000 Cl
ATOM      5  C   UNL     1       2.839   4.216  18.586  0.00  0.00    +0.000 A 
ATOM      6  C   UNL     1       3.385   5.500  18.297  0.00  0.00    +0.000 A 
ATOM      7  C   UNL     1       4.637   5.517  17.620  0.00  0.00    +0.000 A 
ENDROOT
BRANCH   6   8
ATOM      8  C   UNL     1       2.663   6.769  18.665  0.00  0.00    +0.000 A 
ATOM      9  C   UNL     1       2.309   7.063  19.995  0.00  0.00    +0.000 A 
ATOM     10  C   UNL     1       1.683   8.269  20.344  0.00  0.00    +0.000 A 
ATOM     11  C   UNL     1       1.327   9.178  19.359  0.00  0.00    +0.000 A 
ATOM     12  C   UNL     1       1.625   8.904  18.036  0.00  0.00    +0.000 A 
ATOM     13  C   UNL     1       2.314   7.729  17.698  0.00  0.00    +0.000 A 
ENDBRANCH   6   8
BRANCH   1  15
ATOM     14  C   UNL     1       6.380   3.953  15.250  0.00  0.00    +0.000 C 
ATOM     15  O   UNL     1       6.462   4.355  16.617  0.00  0.00    +0.000 OA
ENDBRANCH   1  15
BRANCH   5  16
ATOM     16  C   UNL     1       1.589   4.027  19.259  0.00  0.00    +0.000 C 
ATOM     17  N   UNL     1       0.603   3.836  19.836  0.00  0.00    +0.000 NA
ENDBRANCH   5  16
BRANCH   7  18
ATOM     18  C   UNL     1       5.297   6.729  17.222  0.00  0.00    +0.000 C 
ATOM     19  N   UNL     1       5.836   7.691  16.857  0.00  0.00    +0.000 NA
ENDBRANCH   7  18
TORSDOF 4
ENDMDL
MODEL 8
REMARK VINA RESULT:      -5.5      2.880      5.498
REMARK  Name = 
REMARK  5 active torsions:
REMARK  status: ('A' for Active; 'I' for Inactive)
REMARK    1  A    between atoms: C_1  and  O_2
REMARK    2  A    between atoms: O_2  and  C_3
REMARK    3  A    between atoms: C_7  and  C_8
REMARK    4  A    between atoms: C_10  and  C_11
REMARK    5  A    between atoms: C_17  and  C_18
REMARK                            x       y       z     vdW  Elec       q    Type
REMARK                         _______ _______ _______ _____ _____    ______ ____
ROOT
ATOM      1  C   UNL     1       3.673   3.095  17.596  0.00  0.00    +0.000 A 
ATOM      2  N   UNL     1       4.886   3.186  17.023  0.00  0.00    +0.000 NA
ATOM      3  C   UNL     1       5.416   4.418  16.913  0.00  0.00    +0.000 A 
ATOM      4 CL   UNL     1       6.995   4.371  16.223  0.00  0.00    +0.000 Cl
ATOM      5  C   UNL     1       4.788   5.589  17.330  0.00  0.00    +0.000 A 
ATOM      6  C   UNL     1       3.500   5.502  17.931  0.00  0.00    +0.000 A 
ATOM      7  C   UNL     1       2.949   4.195  18.059  0.00  0.00    +0.000 A 
ENDROOT
BRANCH   6   8
ATOM      8  C   UNL     1       2.772   6.723  18.428  0.00  0.00    +0.000 A 
ATOM      9  C   UNL     1       2.428   6.881  19.783  0.00  0.00    +0.000 A 
ATOM     10  C   UNL     1       1.796   8.041  20.255  0.00  0.00    +0.000 A 
ATOM     11  C   UNL     1       1.425   9.041  19.367  0.00  0.00    +0.000 A 
ATOM     12  C   UNL     1       1.713   8.902  18.022  0.00  0.00    +0.000 A 
ATOM     13  C   UNL     1       2.408   7.771  17.563  0.00  0.00    +0.000 A 
ENDBRANCH   6   8
BRANCH   1  15
ATOM     14  C   UNL     1       3.751   1.048  18.758  0.00  0.00    +0.000 C 
ATOM     15  O   UNL     1       3.123   1.837  17.748  0.00  0.00    +0.000 OA
ENDBRANCH   1  15
BRANCH   5  16
ATOM     16  C   UNL     1       5.481   6.827  17.131  0.00  0.00    +0.000 C 
ATOM     17  N   UNL     1       6.085   7.807  16.996  0.00  0.00    +0.000 NA
ENDBRANCH   5  16
BRANCH   7  18
ATOM     18  C   UNL     1       1.680   3.937  18.679  0.00  0.00    +0.000 C 
ATOM     19  N   UNL     1       0.663   3.682  19.181  0.00  0.00    +0.000 NA
ENDBRANCH   7  18
TORSDOF 4
ENDMDL
MODEL 9
REMARK VINA RESULT:      -5.3      2.629      4.602
REMARK  Name = 
REMARK  5 active torsions:
REMARK  status: ('A' for Active; 'I' for Inactive)
REMARK    1  A    between atoms: C_1  and  O_2
REMARK    2  A    between atoms: O_2  and  C_3
REMARK    3  A    between atoms: C_7  and  C_8
REMARK    4  A    between atoms: C_10  and  C_11
REMARK    5  A    between atoms: C_17  and  C_18
REMARK                            x       y       z     vdW  Elec       q    Type
REMARK                         _______ _______ _______ _____ _____    ______ ____
ROOT
ATOM      1  C   UNL     1       2.949   8.139  18.264  0.00  0.00    +0.000 A 
ATOM      2  N   UNL     1       3.766   7.895  17.224  0.00  0.00    +0.000 NA
ATOM      3  C   UNL     1       4.095   6.611  16.997  0.00  0.00    +0.000 A 
ATOM      4 CL   UNL     1       5.088   6.447  15.597  0.00  0.00    +0.000 Cl
ATOM      5  C   UNL     1       3.667   5.535  17.772  0.00  0.00    +0.000 A 
ATOM      6  C   UNL     1       2.809   5.786  18.881  0.00  0.00    +0.000 A 
ATOM      7  C   UNL     1       2.450   7.145  19.109  0.00  0.00    +0.000 A 
ENDROOT
BRANCH   6   8
ATOM      8  C   UNL     1       2.288   4.670  19.748  0.00  0.00    +0.000 A 
ATOM      9  C   UNL     1       2.866   4.368  20.995  0.00  0.00    +0.000 A 
ATOM     10  C   UNL     1       2.348   3.364  21.826  0.00  0.00    +0.000 A 
ATOM     11  C   UNL     1       1.285   2.585  21.395  0.00  0.00    +0.000 A 
ATOM     12  C   UNL     1       0.717   2.828  20.158  0.00  0.00    +0.000 A 
ATOM     13  C   UNL     1       1.192   3.880  19.359  0.00  0.00    +0.000 A 
ENDBRANCH   6   8
BRANCH   1  15
ATOM     14  C   UNL     1       1.417   9.856  17.767  0.00  0.00    +0.000 C 
ATOM     15  O   UNL     1       2.572   9.447  18.498  0.00  0.00    +0.000 OA
ENDBRANCH   1  15
BRANCH   5  16
ATOM     16  C   UNL     1       4.118   4.225  17.406  0.00  0.00    +0.000 C 
ATOM     17  N   UNL     1       4.442   3.165  17.073  0.00  0.00    +0.000 NA
ENDBRANCH   5  16
BRANCH   7  18
ATOM     18  C   UNL     1       1.562   7.555  20.159  0.00  0.00    +0.000 C 
ATOM     19  N   UNL     1       0.864   7.857  21.038  0.00  0.00    +0.000 NA
ENDBRANCH   7  18
TORSDOF 4
ENDMDL
