MODEL 1
REMARK VINA RESULT:      -7.5      0.000      0.000
REMARK  Name = 
REMARK  8 active torsions:
REMARK  status: ('A' for Active; 'I' for Inactive)
REMARK    1  A    between atoms: C_1  and  N_2
REMARK    2  A    between atoms: N_5  and  C_6
REMARK    3  A    between atoms: C_6  and  C_7
REMARK    4  A    between atoms: C_7  and  C_8
REMARK    5  A    between atoms: C_7  and  C_9
REMARK    6  A    between atoms: C_7  and  C_10
REMARK    7  A    between atoms: C_14  and  C_15
REMARK    8  A    between atoms: C_20  and  C_21
REMARK                            x       y       z     vdW  Elec       q    Type
REMARK                         _______ _______ _______ _____ _____    ______ ____
ROOT
ATOM      1  C   UNL     1       1.939   4.705  21.125  0.00  0.00    +0.000 C 
ATOM      2  N   UNL     1       2.705   5.179  20.009  0.00  0.00    +0.000 N 
ATOM      3  C   UNL     1       3.739   4.483  19.367  0.00  0.00    +0.000 A 
ATOM      4  O   UNL     1       4.169   3.373  19.646  0.00  0.00    +0.000 OA
ATOM      5  N   UNL     1       4.202   5.325  18.331  0.00  0.00    +0.000 N 
ATOM      6  C   UNL     1       3.468   6.515  18.379  0.00  0.00    +0.000 A 
ATOM      7  C   UNL     1       3.548   7.652  17.618  0.00  0.00    +0.000 A 
ATOM      8  C   UNL     1       2.624   8.654  17.902  0.00  0.00    +0.000 A 
ATOM      9  C   UNL     1       1.683   8.500  18.947  0.00  0.00    +0.000 A 
ATOM     10  N   UNL     1       1.640   7.386  19.727  0.00  0.00    +0.000 NA
ATOM     11  C   UNL     1       2.530   6.428  19.407  0.00  0.00    +0.000 A 
ENDROOT
BRANCH   9  12
ATOM     12  C   UNL     1       0.678   9.562  19.194  0.00  0.00    +0.000 A 
ATOM     13  C   UNL     1      -0.124  10.014  18.118  0.00  0.00    +0.000 A 
ATOM     14  C   UNL     1      -1.207  10.876  18.309  0.00  0.00    +0.000 A 
ATOM     15  C   UNL     1      -1.494  11.350  19.580  0.00  0.00    +0.000 A 
ATOM     16  C   UNL     1      -0.683  10.978  20.652  0.00  0.00    +0.000 A 
ATOM     17  C   UNL     1       0.398  10.092  20.471  0.00  0.00    +0.000 A 
BRANCH  17  18
ATOM     18  C   UNL     1       1.141   9.716  21.644  0.00  0.00    +0.000 C 
ATOM     19  N   UNL     1       1.705   9.343  22.587  0.00  0.00    +0.000 NA
ENDBRANCH  17  18
ENDBRANCH   9  12
BRANCH   5  20
ATOM     20  C   UNL     1       5.280   5.005  17.429  0.00  0.00    +0.000 C 
BRANCH  20  21
ATOM     21  C   UNL     1       6.696   5.485  17.858  0.00  0.00    +0.000 C 
ATOM     22  C   UNL     1       6.826   5.531  19.389  0.00  0.00    +0.000 C 
ATOM     23  C   UNL     1       7.720   4.478  17.294  0.00  0.00    +0.000 C 
ATOM     24  C   UNL     1       7.040   6.876  17.298  0.00  0.00    +0.000 C 
ENDBRANCH  20  21
ENDBRANCH   5  20
TORSDOF 4
ENDMDL
MODEL 2
REMARK VINA RESULT:      -7.1      1.370      2.230
REMARK  Name = 
REMARK  8 active torsions:
REMARK  status: ('A' for Active; 'I' for Inactive)
REMARK    1  A    between atoms: C_1  and  N_2
REMARK    2  A    between atoms: N_5  and  C_6
REMARK    3  A    between atoms: C_6  and  C_7
REMARK    4  A    between atoms: C_7  and  C_8
REMARK    5  A    between atoms: C_7  and  C_9
REMARK    6  A    between atoms: C_7  and  C_10
REMARK    7  A    between atoms: C_14  and  C_15
REMARK    8  A    between atoms: C_20  and  C_21
REMARK                            x       y       z     vdW  Elec       q    Type
REMARK                         _______ _______ _______ _____ _____    ______ ____
ROOT
ATOM      1  C   UNL     1       1.865   3.626  21.338  0.00  0.00    +0.000 C 
ATOM      2  N   UNL     1       2.387   4.362  20.223  0.00  0.00    +0.000 N 
ATOM      3  C   UNL     1       3.185   3.840  19.196  0.00  0.00    +0.000 A 
ATOM      4  O   UNL     1       3.580   2.689  19.075  0.00  0.00    +0.000 OA
ATOM      5  N   UNL     1       3.460   4.916  18.321  0.00  0.00    +0.000 N 
ATOM      6  C   UNL     1       2.854   6.064  18.842  0.00  0.00    +0.000 A 
ATOM      7  C   UNL     1       2.844   7.358  18.392  0.00  0.00    +0.000 A 
ATOM      8  C   UNL     1       2.093   8.267  19.134  0.00  0.00    +0.000 A 
ATOM      9  C   UNL     1       1.411   7.860  20.304  0.00  0.00    +0.000 A 
ATOM     10  N   UNL     1       1.462   6.582  20.768  0.00  0.00    +0.000 NA
ATOM     11  C   UNL     1       2.175   5.727  20.012  0.00  0.00    +0.000 A 
ENDROOT
BRANCH   9  12
ATOM     12  C   UNL     1       0.578   8.837  21.046  0.00  0.00    +0.000 A 
ATOM     13  C   UNL     1       0.614   8.838  22.462  0.00  0.00    +0.000 A 
ATOM     14  C   UNL     1       0.001   9.838  23.221  0.00  0.00    +0.000 A 
ATOM     15  C   UNL     1      -0.708  10.847  22.587  0.00  0.00    +0.000 A 
ATOM     16  C   UNL     1      -0.821  10.838  21.196  0.00  0.00    +0.000 A 
ATOM     17  C   UNL     1      -0.187   9.845  20.423  0.00  0.00    +0.000 A 
BRANCH  17  18
ATOM     18  C   UNL     1      -0.307   9.952  18.993  0.00  0.00    +0.000 C 
ATOM     19  N   UNL     1      -0.443  10.106  17.851  0.00  0.00    +0.000 NA
ENDBRANCH  17  18
ENDBRANCH   9  12
BRANCH   5  20
ATOM     20  C   UNL     1       4.272   4.825  17.132  0.00  0.00    +0.000 C 
BRANCH  20  21
ATOM     21  C   UNL     1       5.745   5.303  17.272  0.00  0.00    +0.000 C 
ATOM     22  C   UNL     1       6.231   5.187  18.726  0.00  0.00    +0.000 C 
ATOM     23  C   UNL     1       6.615   4.398  16.374  0.00  0.00    +0.000 C 
ATOM     24  C   UNL     1       5.937   6.757  16.809  0.00  0.00    +0.000 C 
ENDBRANCH  20  21
ENDBRANCH   5  20
TORSDOF 4
ENDMDL
MODEL 3
REMARK VINA RESULT:      -6.7      0.833      1.429
REMARK  Name = 
REMARK  8 active torsions:
REMARK  status: ('A' for Active; 'I' for Inactive)
REMARK    1  A    between atoms: C_1  and  N_2
REMARK    2  A    between atoms: N_5  and  C_6
REMARK    3  A    between atoms: C_6  and  C_7
REMARK    4  A    between atoms: C_7  and  C_8
REMARK    5  A    between atoms: C_7  and  C_9
REMARK    6  A    between atoms: C_7  and  C_10
REMARK    7  A    between atoms: C_14  and  C_15
REMARK    8  A    between atoms: C_20  and  C_21
REMARK                            x       y       z     vdW  Elec       q    Type
REMARK                         _______ _______ _______ _____ _____    ______ ____
ROOT
ATOM      1  C   UNL     1       2.063   4.701  21.106  0.00  0.00    +0.000 C 
ATOM      2  N   UNL     1       2.884   5.225  20.053  0.00  0.00    +0.000 N 
ATOM      3  C   UNL     1       4.002   4.594  19.492  0.00  0.00    +0.000 A 
ATOM      4  O   UNL     1       4.474   3.509  19.800  0.00  0.00    +0.000 OA
ATOM      5  N   UNL     1       4.494   5.467  18.495  0.00  0.00    +0.000 N 
ATOM      6  C   UNL     1       3.691   6.613  18.489  0.00  0.00    +0.000 A 
ATOM      7  C   UNL     1       3.763   7.757  17.739  0.00  0.00    +0.000 A 
ATOM      8  C   UNL     1       2.764   8.703  17.952  0.00  0.00    +0.000 A 
ATOM      9  C   UNL     1       1.756   8.488  18.922  0.00  0.00    +0.000 A 
ATOM     10  N   UNL     1       1.718   7.369  19.694  0.00  0.00    +0.000 NA
ATOM     11  C   UNL     1       2.684   6.466  19.441  0.00  0.00    +0.000 A 
ENDROOT
BRANCH   9  12
ATOM     12  C   UNL     1       0.676   9.489  19.093  0.00  0.00    +0.000 A 
ATOM     13  C   UNL     1      -0.117   9.844  17.974  0.00  0.00    +0.000 A 
ATOM     14  C   UNL     1      -1.260  10.639  18.095  0.00  0.00    +0.000 A 
ATOM     15  C   UNL     1      -1.621  11.142  19.335  0.00  0.00    +0.000 A 
ATOM     16  C   UNL     1      -0.824  10.868  20.447  0.00  0.00    +0.000 A 
ATOM     17  C   UNL     1       0.318  10.049  20.337  0.00  0.00    +0.000 A 
BRANCH  17  18
ATOM     18  C   UNL     1       1.043   9.771  21.548  0.00  0.00    +0.000 C 
ATOM     19  N   UNL     1       1.569   9.499  22.546  0.00  0.00    +0.000 NA
ENDBRANCH  17  18
ENDBRANCH   9  12
BRANCH   5  20
ATOM     20  C   UNL     1       5.655   5.215  17.678  0.00  0.00    +0.000 C 
BRANCH  20  21
ATOM     21  C   UNL     1       5.378   4.723  16.230  0.00  0.00    +0.000 C 
ATOM     22  C   UNL     1       5.229   5.907  15.260  0.00  0.00    +0.000 C 
ATOM     23  C   UNL     1       6.581   3.861  15.793  0.00  0.00    +0.000 C 
ATOM     24  C   UNL     1       4.112   3.854  16.136  0.00  0.00    +0.000 C 
ENDBRANCH  20  21
ENDBRANCH   5  20
TORSDOF 4
ENDMDL
MODEL 4
REMARK VINA RESULT:      -6.6      2.428      7.222
REMARK  Name = 
REMARK  8 active torsions:
REMARK  status: ('A' for Active; 'I' for Inactive)
REMARK    1  A    between atoms: C_1  and  N_2
REMARK    2  A    between atoms: N_5  and  C_6
REMARK    3  A    between atoms: C_6  and  C_7
REMARK    4  A    between atoms: C_7  and  C_8
REMARK    5  A    between atoms: C_7  and  C_9
REMARK    6  A    between atoms: C_7  and  C_10
REMARK    7  A    between atoms: C_14  and  C_15
REMARK    8  A    between atoms: C_20  and  C_21
REMARK                            x       y       z     vdW  Elec       q    Type
REMARK                         _______ _______ _______ _____ _____    ______ ____
ROOT
ATOM      1  C   UNL     1       1.047   9.126  22.516  0.00  0.00    +0.000 C 
ATOM      2  N   UNL     1       0.800   9.528  21.162  0.00  0.00    +0.000 N 
ATOM      3  C   UNL     1       0.015  10.618  20.758  0.00  0.00    +0.000 A 
ATOM      4  O   UNL     1      -0.595  11.397  21.476  0.00  0.00    +0.000 OA
ATOM      5  N   UNL     1       0.055  10.635  19.346  0.00  0.00    +0.000 N 
ATOM      6  C   UNL     1       0.832   9.552  18.920  0.00  0.00    +0.000 A 
ATOM      7  C   UNL     1       1.152   9.114  17.662  0.00  0.00    +0.000 A 
ATOM      8  C   UNL     1       1.998   8.011  17.586  0.00  0.00    +0.000 A 
ATOM      9  C   UNL     1       2.464   7.371  18.758  0.00  0.00    +0.000 A 
ATOM     10  N   UNL     1       2.105   7.785  20.004  0.00  0.00    +0.000 NA
ATOM     11  C   UNL     1       1.308   8.869  20.039  0.00  0.00    +0.000 A 
ENDROOT
BRANCH   9  12
ATOM     12  C   UNL     1       3.405   6.230  18.648  0.00  0.00    +0.000 A 
ATOM     13  C   UNL     1       4.663   6.432  18.030  0.00  0.00    +0.000 A 
ATOM     14  C   UNL     1       5.666   5.460  18.050  0.00  0.00    +0.000 A 
ATOM     15  C   UNL     1       5.425   4.234  18.651  0.00  0.00    +0.000 A 
ATOM     16  C   UNL     1       4.173   3.977  19.210  0.00  0.00    +0.000 A 
ATOM     17  C   UNL     1       3.164   4.960  19.213  0.00  0.00    +0.000 A 
BRANCH  17  18
ATOM     18  C   UNL     1       1.926   4.627  19.867  0.00  0.00    +0.000 C 
ATOM     19  N   UNL     1       0.965   4.368  20.463  0.00  0.00    +0.000 NA
ENDBRANCH  17  18
ENDBRANCH   9  12
BRANCH   5  20
ATOM     20  C   UNL     1      -0.637  11.588  18.513  0.00  0.00    +0.000 C 
BRANCH  20  21
ATOM     21  C   UNL     1      -2.095  11.218  18.119  0.00  0.00    +0.000 C 
ATOM     22  C   UNL     1      -3.115  12.001  18.962  0.00  0.00    +0.000 C 
ATOM     23  C   UNL     1      -2.282  11.583  16.631  0.00  0.00    +0.000 C 
ATOM     24  C   UNL     1      -2.384   9.715  18.278  0.00  0.00    +0.000 C 
ENDBRANCH  20  21
ENDBRANCH   5  20
TORSDOF 4
ENDMDL
MODEL 5
REMARK VINA RESULT:      -6.6      1.208      2.027
REMARK  Name = 
REMARK  8 active torsions:
REMARK  status: ('A' for Active; 'I' for Inactive)
REMARK    1  A    between atoms: C_1  and  N_2
REMARK    2  A    between atoms: N_5  and  C_6
REMARK    3  A    between atoms: C_6  and  C_7
REMARK    4  A    between atoms: C_7  and  C_8
REMARK    5  A    between atoms: C_7  and  C_9
REMARK    6  A    between atoms: C_7  and  C_10
REMARK    7  A    between atoms: C_14  and  C_15
REMARK    8  A    between atoms: C_20  and  C_21
REMARK                            x       y       z     vdW  Elec       q    Type
REMARK                         _______ _______ _______ _____ _____    ______ ____
ROOT
ATOM      1  C   UNL     1       1.937   4.587  21.157  0.00  0.00    +0.000 C 
ATOM      2  N   UNL     1       2.514   5.216  20.005  0.00  0.00    +0.000 N 
ATOM      3  C   UNL     1       3.407   4.619  19.104  0.00  0.00    +0.000 A 
ATOM      4  O   UNL     1       3.852   3.481  19.145  0.00  0.00    +0.000 OA
ATOM      5  N   UNL     1       3.707   5.601  18.132  0.00  0.00    +0.000 N 
ATOM      6  C   UNL     1       3.021   6.772  18.473  0.00  0.00    +0.000 A 
ATOM      7  C   UNL     1       2.998   8.005  17.878  0.00  0.00    +0.000 A 
ATOM      8  C   UNL     1       2.160   8.956  18.454  0.00  0.00    +0.000 A 
ATOM      9  C   UNL     1       1.407   8.654  19.613  0.00  0.00    +0.000 A 
ATOM     10  N   UNL     1       1.470   7.440  20.224  0.00  0.00    +0.000 NA
ATOM     11  C   UNL     1       2.269   6.538  19.624  0.00  0.00    +0.000 A 
ENDROOT
BRANCH   9  12
ATOM     12  C   UNL     1       0.484   9.669  20.176  0.00  0.00    +0.000 A 
ATOM     13  C   UNL     1       0.705  10.145  21.492  0.00  0.00    +0.000 A 
ATOM     14  C   UNL     1      -0.008  11.223  22.021  0.00  0.00    +0.000 A 
ATOM     15  C   UNL     1      -0.997  11.834  21.266  0.00  0.00    +0.000 A 
ATOM     16  C   UNL     1      -1.286  11.346  19.991  0.00  0.00    +0.000 A 
ATOM     17  C   UNL     1      -0.557  10.273  19.441  0.00  0.00    +0.000 A 
BRANCH  17  18
ATOM     18  C   UNL     1      -0.884   9.879  18.097  0.00  0.00    +0.000 C 
ATOM     19  N   UNL     1      -1.166   9.637  16.997  0.00  0.00    +0.000 NA
ENDBRANCH  17  18
ENDBRANCH   9  12
BRANCH   5  20
ATOM     20  C   UNL     1       4.609   5.414  17.023  0.00  0.00    +0.000 C 
BRANCH  20  21
ATOM     21  C   UNL     1       6.104   5.746  17.293  0.00  0.00    +0.000 C 
ATOM     22  C   UNL     1       6.491   5.421  18.745  0.00  0.00    +0.000 C 
ATOM     23  C   UNL     1       6.953   4.881  16.338  0.00  0.00    +0.000 C 
ATOM     24  C   UNL     1       6.437   7.222  17.019  0.00  0.00    +0.000 C 
ENDBRANCH  20  21
ENDBRANCH   5  20
TORSDOF 4
ENDMDL
MODEL 6
REMARK VINA RESULT:      -6.5      2.938      7.003
REMARK  Name = 
REMARK  8 active torsions:
REMARK  status: ('A' for Active; 'I' for Inactive)
REMARK    1  A    between atoms: C_1  and  N_2
REMARK    2  A    between atoms: N_5  and  C_6
REMARK    3  A    between atoms: C_6  and  C_7
REMARK    4  A    between atoms: C_7  and  C_8
REMARK    5  A    between atoms: C_7  and  C_9
REMARK    6  A    between atoms: C_7  and  C_10
REMARK    7  A    between atoms: C_14  and  C_15
REMARK    8  A    between atoms: C_20  and  C_21
REMARK                            x       y       z     vdW  Elec       q    Type
REMARK                         _______ _______ _______ _____ _____    ______ ____
ROOT
ATOM      1  C   UNL     1       0.057   9.470  23.211  0.00  0.00    +0.000 C 
ATOM      2  N   UNL     1       0.338   9.939  21.886  0.00  0.00    +0.000 N 
ATOM      3  C   UNL     1       0.071  11.225  21.396  0.00  0.00    +0.000 A 
ATOM      4  O   UNL     1      -0.448  12.155  21.998  0.00  0.00    +0.000 OA
ATOM      5  N   UNL     1       0.511  11.239  20.053  0.00  0.00    +0.000 N 
ATOM      6  C   UNL     1       1.006   9.967  19.746  0.00  0.00    +0.000 A 
ATOM      7  C   UNL     1       1.519   9.459  18.582  0.00  0.00    +0.000 A 
ATOM      8  C   UNL     1       1.973   8.143  18.627  0.00  0.00    +0.000 A 
ATOM      9  C   UNL     1       1.870   7.379  19.813  0.00  0.00    +0.000 A 
ATOM     10  N   UNL     1       1.318   7.877  20.953  0.00  0.00    +0.000 NA
ATOM     11  C   UNL     1       0.915   9.160  20.880  0.00  0.00    +0.000 A 
ENDROOT
BRANCH   9  12
ATOM     12  C   UNL     1       2.407   5.997  19.847  0.00  0.00    +0.000 A 
ATOM     13  C   UNL     1       1.802   5.044  20.702  0.00  0.00    +0.000 A 
ATOM     14  C   UNL     1       2.134   3.688  20.656  0.00  0.00    +0.000 A 
ATOM     15  C   UNL     1       3.116   3.248  19.782  0.00  0.00    +0.000 A 
ATOM     16  C   UNL     1       3.780   4.171  18.973  0.00  0.00    +0.000 A 
ATOM     17  C   UNL     1       3.436   5.537  18.998  0.00  0.00    +0.000 A 
BRANCH  17  18
ATOM     18  C   UNL     1       4.131   6.405  18.085  0.00  0.00    +0.000 C 
ATOM     19  N   UNL     1       4.719   7.040  17.312  0.00  0.00    +0.000 NA
ENDBRANCH  17  18
ENDBRANCH   9  12
BRANCH   5  20
ATOM     20  C   UNL     1       0.407  12.369  19.163  0.00  0.00    +0.000 C 
BRANCH  20  21
ATOM     21  C   UNL     1       1.638  13.318  19.117  0.00  0.00    +0.000 C 
ATOM     22  C   UNL     1       2.620  12.903  18.010  0.00  0.00    +0.000 C 
ATOM     23  C   UNL     1       1.117  14.741  18.823  0.00  0.00    +0.000 C 
ATOM     24  C   UNL     1       2.400  13.358  20.453  0.00  0.00    +0.000 C 
ENDBRANCH  20  21
ENDBRANCH   5  20
TORSDOF 4
ENDMDL
MODEL 7
REMARK VINA RESULT:      -6.5      2.108      4.006
REMARK  Name = 
REMARK  8 active torsions:
REMARK  status: ('A' for Active; 'I' for Inactive)
REMARK    1  A    between atoms: C_1  and  N_2
REMARK    2  A    between atoms: N_5  and  C_6
REMARK    3  A    between atoms: C_6  and  C_7
REMARK    4  A    between atoms: C_7  and  C_8
REMARK    5  A    between atoms: C_7  and  C_9
REMARK    6  A    between atoms: C_7  and  C_10
REMARK    7  A    between atoms: C_14  and  C_15
REMARK    8  A    between atoms: C_20  and  C_21
REMARK                            x       y       z     vdW  Elec       q    Type
REMARK                         _______ _______ _______ _____ _____    ______ ____
ROOT
ATOM      1  C   UNL     1       3.725   7.620  16.909  0.00  0.00    +0.000 C 
ATOM      2  N   UNL     1       3.203   7.116  18.145  0.00  0.00    +0.000 N 
ATOM      3  C   UNL     1       3.481   5.860  18.703  0.00  0.00    +0.000 A 
ATOM      4  O   UNL     1       4.196   4.985  18.239  0.00  0.00    +0.000 OA
ATOM      5  N   UNL     1       2.757   5.795  19.916  0.00  0.00    +0.000 N 
ATOM      6  C   UNL     1       2.039   6.988  20.057  0.00  0.00    +0.000 A 
ATOM      7  C   UNL     1       1.173   7.405  21.033  0.00  0.00    +0.000 A 
ATOM      8  C   UNL     1       0.654   8.690  20.893  0.00  0.00    +0.000 A 
ATOM      9  C   UNL     1       0.990   9.491  19.777  0.00  0.00    +0.000 A 
ATOM     10  N   UNL     1       1.817   9.052  18.789  0.00  0.00    +0.000 NA
ATOM     11  C   UNL     1       2.320   7.817  18.972  0.00  0.00    +0.000 A 
ENDROOT
BRANCH   9  12
ATOM     12  C   UNL     1       0.463  10.874  19.679  0.00  0.00    +0.000 A 
ATOM     13  C   UNL     1       1.040  11.889  20.481  0.00  0.00    +0.000 A 
ATOM     14  C   UNL     1       0.722  13.239  20.315  0.00  0.00    +0.000 A 
ATOM     15  C   UNL     1      -0.221  13.613  19.370  0.00  0.00    +0.000 A 
ATOM     16  C   UNL     1      -0.859  12.632  18.610  0.00  0.00    +0.000 A 
ATOM     17  C   UNL     1      -0.526  11.270  18.756  0.00  0.00    +0.000 A 
BRANCH  17  18
ATOM     18  C   UNL     1      -1.191  10.337  17.886  0.00  0.00    +0.000 C 
ATOM     19  N   UNL     1      -1.669   9.532  17.200  0.00  0.00    +0.000 NA
ENDBRANCH  17  18
ENDBRANCH   9  12
BRANCH   5  20
ATOM     20  C   UNL     1       2.742   4.661  20.807  0.00  0.00    +0.000 C 
BRANCH  20  21
ATOM     21  C   UNL     1       2.000   3.396  20.291  0.00  0.00    +0.000 C 
ATOM     22  C   UNL     1       2.986   2.376  19.698  0.00  0.00    +0.000 C 
ATOM     23  C   UNL     1       1.276   2.758  21.494  0.00  0.00    +0.000 C 
ATOM     24  C   UNL     1       0.944   3.729  19.223  0.00  0.00    +0.000 C 
ENDBRANCH  20  21
ENDBRANCH   5  20
TORSDOF 4
ENDMDL
MODEL 8
REMARK VINA RESULT:      -6.5      1.354      2.316
REMARK  Name = 
REMARK  8 active torsions:
REMARK  status: ('A' for Active; 'I' for Inactive)
REMARK    1  A    between atoms: C_1  and  N_2
REMARK    2  A    between atoms: N_5  and  C_6
REMARK    3  A    between atoms: C_6  and  C_7
REMARK    4  A    between atoms: C_7  and  C_8
REMARK    5  A    between atoms: C_7  and  C_9
REMARK    6  A    between atoms: C_7  and  C_10
REMARK    7  A    between atoms: C_14  and  C_15
REMARK    8  A    between atoms: C_20  and  C_21
REMARK                            x       y       z     vdW  Elec       q    Type
REMARK                         _______ _______ _______ _____ _____    ______ ____
ROOT
ATOM      1  C   UNL     1       1.658   5.209  21.059  0.00  0.00    +0.000 C 
ATOM      2  N   UNL     1       2.297   5.761  19.900  0.00  0.00    +0.000 N 
ATOM      3  C   UNL     1       3.192   5.087  19.057  0.00  0.00    +0.000 A 
ATOM      4  O   UNL     1       3.586   3.935  19.164  0.00  0.00    +0.000 OA
ATOM      5  N   UNL     1       3.565   6.011  18.054  0.00  0.00    +0.000 N 
ATOM      6  C   UNL     1       2.919   7.223  18.319  0.00  0.00    +0.000 A 
ATOM      7  C   UNL     1       2.967   8.428  17.670  0.00  0.00    +0.000 A 
ATOM      8  C   UNL     1       2.153   9.438  18.175  0.00  0.00    +0.000 A 
ATOM      9  C   UNL     1       1.351   9.220  19.320  0.00  0.00    +0.000 A 
ATOM     10  N   UNL     1       1.342   8.033  19.985  0.00  0.00    +0.000 NA
ATOM     11  C   UNL     1       2.121   7.073  19.453  0.00  0.00    +0.000 A 
ENDROOT
BRANCH   9  12
ATOM     12  C   UNL     1       0.455  10.297  19.806  0.00  0.00    +0.000 A 
ATOM     13  C   UNL     1       0.794  10.990  20.994  0.00  0.00    +0.000 A 
ATOM     14  C   UNL     1       0.101  12.128  21.415  0.00  0.00    +0.000 A 
ATOM     15  C   UNL     1      -0.983  12.584  20.681  0.00  0.00    +0.000 A 
ATOM     16  C   UNL     1      -1.386  11.886  19.543  0.00  0.00    +0.000 A 
ATOM     17  C   UNL     1      -0.679  10.750  19.100  0.00  0.00    +0.000 A 
BRANCH  17  18
ATOM     18  C   UNL     1      -1.129  10.131  17.882  0.00  0.00    +0.000 C 
ATOM     19  N   UNL     1      -1.561   9.620  16.934  0.00  0.00    +0.000 NA
ENDBRANCH  17  18
ENDBRANCH   9  12
BRANCH   5  20
ATOM     20  C   UNL     1       4.493   5.736  16.985  0.00  0.00    +0.000 C 
BRANCH  20  21
ATOM     21  C   UNL     1       6.001   5.810  17.353  0.00  0.00    +0.000 C 
ATOM     22  C   UNL     1       6.837   4.873  16.465  0.00  0.00    +0.000 C 
ATOM     23  C   UNL     1       6.464   7.265  17.129  0.00  0.00    +0.000 C 
ATOM     24  C   UNL     1       6.266   5.449  18.825  0.00  0.00    +0.000 C 
ENDBRANCH  20  21
ENDBRANCH   5  20
TORSDOF 4
ENDMDL
MODEL 9
REMARK VINA RESULT:      -6.4      2.802      7.008
REMARK  Name = 
REMARK  8 active torsions:
REMARK  status: ('A' for Active; 'I' for Inactive)
REMARK    1  A    between atoms: C_1  and  N_2
REMARK    2  A    between atoms: N_5  and  C_6
REMARK    3  A    between atoms: C_6  and  C_7
REMARK    4  A    between atoms: C_7  and  C_8
REMARK    5  A    between atoms: C_7  and  C_9
REMARK    6  A    between atoms: C_7  and  C_10
REMARK    7  A    between atoms: C_14  and  C_15
REMARK    8  A    between atoms: C_20  and  C_21
REMARK                            x       y       z     vdW  Elec       q    Type
REMARK                         _______ _______ _______ _____ _____    ______ ____
ROOT
ATOM      1  C   UNL     1       0.143   8.190  22.145  0.00  0.00    +0.000 C 
ATOM      2  N   UNL     1       0.442   8.939  20.959  0.00  0.00    +0.000 N 
ATOM      3  C   UNL     1      -0.073  10.201  20.633  0.00  0.00    +0.000 A 
ATOM      4  O   UNL     1      -0.861  10.871  21.285  0.00  0.00    +0.000 OA
ATOM      5  N   UNL     1       0.490  10.551  19.385  0.00  0.00    +0.000 N 
ATOM      6  C   UNL     1       1.307   9.494  18.967  0.00  0.00    +0.000 A 
ATOM      7  C   UNL     1       2.048   9.327  17.827  0.00  0.00    +0.000 A 
ATOM      8  C   UNL     1       2.797   8.156  17.741  0.00  0.00    +0.000 A 
ATOM      9  C   UNL     1       2.756   7.189  18.772  0.00  0.00    +0.000 A 
ATOM     10  N   UNL     1       1.983   7.343  19.882  0.00  0.00    +0.000 NA
ATOM     11  C   UNL     1       1.293   8.497  19.943  0.00  0.00    +0.000 A 
ENDROOT
BRANCH   9  12
ATOM     12  C   UNL     1       3.604   5.976  18.677  0.00  0.00    +0.000 A 
ATOM     13  C   UNL     1       4.938   6.030  19.149  0.00  0.00    +0.000 A 
ATOM     14  C   UNL     1       5.735   4.888  19.258  0.00  0.00    +0.000 A 
ATOM     15  C   UNL     1       5.236   3.659  18.855  0.00  0.00    +0.000 A 
ATOM     16  C   UNL     1       3.949   3.581  18.321  0.00  0.00    +0.000 A 
ATOM     17  C   UNL     1       3.131   4.726  18.229  0.00  0.00    +0.000 A 
BRANCH  17  18
ATOM     18  C   UNL     1       1.798   4.538  17.723  0.00  0.00    +0.000 C 
ATOM     19  N   UNL     1       0.749   4.404  17.244  0.00  0.00    +0.000 NA
ENDBRANCH  17  18
ENDBRANCH   9  12
BRANCH   5  20
ATOM     20  C   UNL     1       0.213  11.770  18.668  0.00  0.00    +0.000 C 
BRANCH  20  21
ATOM     21  C   UNL     1       1.168  12.964  18.953  0.00  0.00    +0.000 C 
ATOM     22  C   UNL     1       2.343  12.984  17.962  0.00  0.00    +0.000 C 
ATOM     23  C   UNL     1       0.350  14.262  18.793  0.00  0.00    +0.000 C 
ATOM     24  C   UNL     1       1.736  12.933  20.382  0.00  0.00    +0.000 C 
ENDBRANCH  20  21
ENDBRANCH   5  20
TORSDOF 4
ENDMDL
