MODEL 1
REMARK VINA RESULT:      -8.1      0.000      0.000
REMARK  Name = 
REMARK  7 active torsions:
REMARK  status: ('A' for Active; 'I' for Inactive)
REMARK    1  A    between atoms: C_1  and  C_2
REMARK    2  A    between atoms: C_2  and  C_4
REMARK    3  A    between atoms: N_6  and  C_7
REMARK    4  A    between atoms: C_7  and  C_8
REMARK    5  A    between atoms: C_11  and  C_12
REMARK    6  A    between atoms: N_14  and  C_15
REMARK    7  A    between atoms: C_15  and  C_16
REMARK                            x       y       z     vdW  Elec       q    Type
REMARK                         _______ _______ _______ _____ _____    ______ ____
ROOT
ATOM      1  C   UNL     1       1.391   9.045  18.289  0.00  0.00    +0.000 C 
ATOM      2  O   UNL     1       0.597   9.134  17.347  0.00  0.00    +0.000 OA
ATOM      3  N   UNL     1       1.019   9.390  19.572  0.00  0.00    +0.000 N 
ATOM      4  C   UNL     1      -0.381   9.752  19.941  0.00  0.00    +0.000 C 
ATOM      5  C   UNL     1      -0.256  10.152  21.440  0.00  0.00    +0.000 C 
ATOM      6  C   UNL     1       0.943   9.413  21.963  0.00  0.00    +0.000 C 
ATOM      7  C   UNL     1       1.172   7.952  21.707  0.00  0.00    +0.000 C 
ATOM      8  C   UNL     1       1.733   8.991  20.764  0.00  0.00    +0.000 C 
ENDROOT
BRANCH   4   9
ATOM      9  C   UNL     1      -1.094  10.891  19.185  0.00  0.00    +0.000 C 
ATOM     10  O   UNL     1      -0.713  12.058  19.216  0.00  0.00    +0.000 OA
ATOM     11  N   UNL     1      -2.231  10.500  18.491  0.00  0.00    +0.000 N 
ATOM     12  H   UNL     1      -2.196   9.568  18.089  0.00  0.00    +0.000 HD
BRANCH  11  13
ATOM     13  C   UNL     1      -2.993  11.496  17.759  0.00  0.00    +0.000 C 
BRANCH  13  14
ATOM     14  C   UNL     1      -4.390  11.691  18.292  0.00  0.00    +0.000 A 
ATOM     15  C   UNL     1      -5.501  11.117  17.653  0.00  0.00    +0.000 A 
ATOM     16  C   UNL     1      -6.779  11.210  18.217  0.00  0.00    +0.000 A 
ATOM     17  C   UNL     1      -6.964  11.877  19.429  0.00  0.00    +0.000 A 
ATOM     18  C   UNL     1      -5.871  12.455  20.072  0.00  0.00    +0.000 A 
ATOM     19 CL   UNL     1      -6.106  13.266  21.573  0.00  0.00    +0.000 Cl
ATOM     20  C   UNL     1      -4.597  12.358  19.508  0.00  0.00    +0.000 A 
ATOM     21  F   UNL     1      -3.542  12.891  20.147  0.00  0.00    +0.000 F 
ENDBRANCH  13  14
ENDBRANCH  11  13
ENDBRANCH   4   9
BRANCH   1  22
ATOM     22  C   UNL     1       2.798   8.512  18.076  0.00  0.00    +0.000 C 
BRANCH  22  25
ATOM     23  C   UNL     1       2.274   5.041  18.331  0.00  0.00    +0.000 A 
ATOM     24  N   UNL     1       1.968   6.316  18.641  0.00  0.00    +0.000 NA
ATOM     25  N   UNL     1       2.935   7.058  18.039  0.00  0.00    +0.000 N 
ATOM     26  C   UNL     1       3.860   6.301  17.367  0.00  0.00    +0.000 A 
ATOM     27  C   UNL     1       4.995   6.622  16.630  0.00  0.00    +0.000 A 
ATOM     28  N   UNL     1       5.713   5.626  16.060  0.00  0.00    +0.000 NA
ATOM     29  C   UNL     1       5.317   4.345  16.217  0.00  0.00    +0.000 A 
ATOM     30  C   UNL     1       4.203   3.952  16.939  0.00  0.00    +0.000 A 
ATOM     31  C   UNL     1       3.452   4.981  17.537  0.00  0.00    +0.000 A 
BRANCH  23  33
ATOM     32  C   UNL     1       0.971   3.880  20.207  0.00  0.00    +0.000 C 
ATOM     33  C   UNL     1       1.450   3.904  18.775  0.00  0.00    +0.000 C 
ATOM     34  O   UNL     1       1.155   2.975  18.018  0.00  0.00    +0.000 OA
ENDBRANCH  23  33
ENDBRANCH  22  25
ENDBRANCH   1  22
TORSDOF 6
ENDMDL
MODEL 2
REMARK VINA RESULT:      -8.0      4.840      9.114
REMARK  Name = 
REMARK  7 active torsions:
REMARK  status: ('A' for Active; 'I' for Inactive)
REMARK    1  A    between atoms: C_1  and  C_2
REMARK    2  A    between atoms: C_2  and  C_4
REMARK    3  A    between atoms: N_6  and  C_7
REMARK    4  A    between atoms: C_7  and  C_8
REMARK    5  A    between atoms: C_11  and  C_12
REMARK    6  A    between atoms: N_14  and  C_15
REMARK    7  A    between atoms: C_15  and  C_16
REMARK                            x       y       z     vdW  Elec       q    Type
REMARK                         _______ _______ _______ _____ _____    ______ ____
ROOT
ATOM      1  C   UNL     1       0.748  11.937  20.441  0.00  0.00    +0.000 C 
ATOM      2  O   UNL     1       1.460  11.126  21.041  0.00  0.00    +0.000 OA
ATOM      3  N   UNL     1      -0.027  11.549  19.368  0.00  0.00    +0.000 N 
ATOM      4  C   UNL     1      -0.176  10.126  18.946  0.00  0.00    +0.000 C 
ATOM      5  C   UNL     1      -1.042  10.229  17.657  0.00  0.00    +0.000 C 
ATOM      6  C   UNL     1      -1.829  11.502  17.794  0.00  0.00    +0.000 C 
ATOM      7  C   UNL     1      -2.565  11.871  19.048  0.00  0.00    +0.000 C 
ATOM      8  C   UNL     1      -1.136  12.315  18.843  0.00  0.00    +0.000 C 
ENDROOT
BRANCH   4   9
ATOM      9  C   UNL     1       1.083   9.293  18.628  0.00  0.00    +0.000 C 
ATOM     10  O   UNL     1       1.753   9.454  17.611  0.00  0.00    +0.000 OA
ATOM     11  N   UNL     1       1.382   8.316  19.567  0.00  0.00    +0.000 N 
ATOM     12  H   UNL     1       1.162   8.556  20.530  0.00  0.00    +0.000 HD
BRANCH  11  13
ATOM     13  C   UNL     1       2.536   7.460  19.357  0.00  0.00    +0.000 C 
BRANCH  13  14
ATOM     14  C   UNL     1       2.174   6.016  19.118  0.00  0.00    +0.000 A 
ATOM     15  C   UNL     1       2.255   5.447  17.837  0.00  0.00    +0.000 A 
ATOM     16  C   UNL     1       2.024   4.078  17.646  0.00  0.00    +0.000 A 
ATOM     17  C   UNL     1       1.710   3.261  18.732  0.00  0.00    +0.000 A 
ATOM     18  C   UNL     1       1.622   3.815  20.009  0.00  0.00    +0.000 A 
ATOM     19 CL   UNL     1       1.246   2.796  21.346  0.00  0.00    +0.000 Cl
ATOM     20  C   UNL     1       1.856   5.179  20.197  0.00  0.00    +0.000 A 
ATOM     21  F   UNL     1       1.799   5.701  21.433  0.00  0.00    +0.000 F 
ENDBRANCH  13  14
ENDBRANCH  11  13
ENDBRANCH   4   9
BRANCH   1  22
ATOM     22  C   UNL     1       0.667  13.387  20.889  0.00  0.00    +0.000 C 
BRANCH  22  25
ATOM     23  C   UNL     1       3.307  15.020  19.231  0.00  0.00    +0.000 A 
ATOM     24  N   UNL     1       2.830  14.080  20.071  0.00  0.00    +0.000 NA
ATOM     25  N   UNL     1       1.497  14.335  20.150  0.00  0.00    +0.000 N 
ATOM     26  C   UNL     1       1.105  15.414  19.401  0.00  0.00    +0.000 A 
ATOM     27  C   UNL     1      -0.125  16.026  19.189  0.00  0.00    +0.000 A 
ATOM     28  N   UNL     1      -0.195  17.094  18.360  0.00  0.00    +0.000 NA
ATOM     29  C   UNL     1       0.925  17.544  17.757  0.00  0.00    +0.000 A 
ATOM     30  C   UNL     1       2.182  16.989  17.925  0.00  0.00    +0.000 A 
ATOM     31  C   UNL     1       2.265  15.879  18.787  0.00  0.00    +0.000 A 
BRANCH  23  33
ATOM     32  C   UNL     1       5.736  15.476  19.905  0.00  0.00    +0.000 C 
ATOM     33  C   UNL     1       4.728  15.087  18.850  0.00  0.00    +0.000 C 
ATOM     34  O   UNL     1       5.109  14.847  17.701  0.00  0.00    +0.000 OA
ENDBRANCH  23  33
ENDBRANCH  22  25
ENDBRANCH   1  22
TORSDOF 6
ENDMDL
MODEL 3
REMARK VINA RESULT:      -8.0      5.442     10.204
REMARK  Name = 
REMARK  7 active torsions:
REMARK  status: ('A' for Active; 'I' for Inactive)
REMARK    1  A    between atoms: C_1  and  C_2
REMARK    2  A    between atoms: C_2  and  C_4
REMARK    3  A    between atoms: N_6  and  C_7
REMARK    4  A    between atoms: C_7  and  C_8
REMARK    5  A    between atoms: C_11  and  C_12
REMARK    6  A    between atoms: N_14  and  C_15
REMARK    7  A    between atoms: C_15  and  C_16
REMARK                            x       y       z     vdW  Elec       q    Type
REMARK                         _______ _______ _______ _____ _____    ______ ____
ROOT
ATOM      1  C   UNL     1       3.377   6.822  17.899  0.00  0.00    +0.000 C 
ATOM      2  O   UNL     1       4.444   7.344  18.239  0.00  0.00    +0.000 OA
ATOM      3  N   UNL     1       3.210   5.454  17.929  0.00  0.00    +0.000 N 
ATOM      4  C   UNL     1       4.229   4.524  18.497  0.00  0.00    +0.000 C 
ATOM      5  C   UNL     1       3.627   3.119  18.202  0.00  0.00    +0.000 C 
ATOM      6  C   UNL     1       2.140   3.321  18.114  0.00  0.00    +0.000 C 
ATOM      7  C   UNL     1       1.366   4.109  19.130  0.00  0.00    +0.000 C 
ATOM      8  C   UNL     1       1.926   4.787  17.902  0.00  0.00    +0.000 C 
ENDROOT
BRANCH   4   9
ATOM      9  C   UNL     1       5.674   4.563  17.961  0.00  0.00    +0.000 C 
ATOM     10  O   UNL     1       6.659   4.402  18.676  0.00  0.00    +0.000 OA
ATOM     11  N   UNL     1       5.780   4.833  16.604  0.00  0.00    +0.000 N 
ATOM     12  H   UNL     1       5.034   4.455  16.025  0.00  0.00    +0.000 HD
BRANCH  11  13
ATOM     13  C   UNL     1       7.096   4.912  15.996  0.00  0.00    +0.000 C 
BRANCH  13  14
ATOM     14  C   UNL     1       7.068   4.799  14.493  0.00  0.00    +0.000 A 
ATOM     15  C   UNL     1       7.890   5.604  13.686  0.00  0.00    +0.000 A 
ATOM     16  C   UNL     1       7.938   5.414  12.299  0.00  0.00    +0.000 A 
ATOM     17  C   UNL     1       7.167   4.417  11.700  0.00  0.00    +0.000 A 
ATOM     18  C   UNL     1       6.344   3.614  12.489  0.00  0.00    +0.000 A 
ATOM     19 CL   UNL     1       5.406   2.378  11.743  0.00  0.00    +0.000 Cl
ATOM     20  C   UNL     1       6.301   3.804  13.872  0.00  0.00    +0.000 A 
ATOM     21  F   UNL     1       5.528   3.008  14.630  0.00  0.00    +0.000 F 
ENDBRANCH  13  14
ENDBRANCH  11  13
ENDBRANCH   4   9
BRANCH   1  22
ATOM     22  C   UNL     1       2.192   7.674  17.474  0.00  0.00    +0.000 C 
BRANCH  22  25
ATOM     23  C   UNL     1       1.474  10.900  18.686  0.00  0.00    +0.000 A 
ATOM     24  N   UNL     1       1.906  10.058  17.726  0.00  0.00    +0.000 NA
ATOM     25  N   UNL     1       1.901   8.833  18.315  0.00  0.00    +0.000 N 
ATOM     26  C   UNL     1       1.495   8.862  19.624  0.00  0.00    +0.000 A 
ATOM     27  C   UNL     1       1.344   7.875  20.592  0.00  0.00    +0.000 A 
ATOM     28  N   UNL     1       0.898   8.224  21.822  0.00  0.00    +0.000 NA
ATOM     29  C   UNL     1       0.611   9.516  22.086  0.00  0.00    +0.000 A 
ATOM     30  C   UNL     1       0.742  10.549  21.174  0.00  0.00    +0.000 A 
ATOM     31  C   UNL     1       1.206  10.197  19.893  0.00  0.00    +0.000 A 
BRANCH  23  33
ATOM     32  C   UNL     1       2.548  13.201  18.357  0.00  0.00    +0.000 C 
ATOM     33  C   UNL     1       1.309  12.344  18.452  0.00  0.00    +0.000 C 
ATOM     34  O   UNL     1       0.196  12.866  18.343  0.00  0.00    +0.000 OA
ENDBRANCH  23  33
ENDBRANCH  22  25
ENDBRANCH   1  22
TORSDOF 6
ENDMDL
MODEL 4
REMARK VINA RESULT:      -8.0      3.558      9.027
REMARK  Name = 
REMARK  7 active torsions:
REMARK  status: ('A' for Active; 'I' for Inactive)
REMARK    1  A    between atoms: C_1  and  C_2
REMARK    2  A    between atoms: C_2  and  C_4
REMARK    3  A    between atoms: N_6  and  C_7
REMARK    4  A    between atoms: C_7  and  C_8
REMARK    5  A    between atoms: C_11  and  C_12
REMARK    6  A    between atoms: N_14  and  C_15
REMARK    7  A    between atoms: C_15  and  C_16
REMARK                            x       y       z     vdW  Elec       q    Type
REMARK                         _______ _______ _______ _____ _____    ______ ____
ROOT
ATOM      1  C   UNL     1       0.098  11.606  19.742  0.00  0.00    +0.000 C 
ATOM      2  O   UNL     1       1.014  11.827  18.943  0.00  0.00    +0.000 OA
ATOM      3  N   UNL     1       0.021  10.412  20.428  0.00  0.00    +0.000 N 
ATOM      4  C   UNL     1       1.089   9.373  20.370  0.00  0.00    +0.000 C 
ATOM      5  C   UNL     1       0.490   8.205  21.207  0.00  0.00    +0.000 C 
ATOM      6  C   UNL     1      -0.479   8.843  22.163  0.00  0.00    +0.000 C 
ATOM      7  C   UNL     1      -0.137  10.057  22.977  0.00  0.00    +0.000 C 
ATOM      8  C   UNL     1      -0.777  10.204  21.616  0.00  0.00    +0.000 C 
ENDROOT
BRANCH   4   9
ATOM      9  C   UNL     1       1.536   8.819  19.002  0.00  0.00    +0.000 C 
ATOM     10  O   UNL     1       1.000   9.135  17.943  0.00  0.00    +0.000 OA
ATOM     11  N   UNL     1       2.574   7.900  19.062  0.00  0.00    +0.000 N 
ATOM     12  H   UNL     1       3.262   8.067  19.790  0.00  0.00    +0.000 HD
BRANCH  11  13
ATOM     13  C   UNL     1       3.061   7.299  17.833  0.00  0.00    +0.000 C 
BRANCH  13  14
ATOM     14  C   UNL     1       3.558   5.886  18.014  0.00  0.00    +0.000 A 
ATOM     15  C   UNL     1       4.879   5.623  18.409  0.00  0.00    +0.000 A 
ATOM     16  C   UNL     1       5.298   4.314  18.682  0.00  0.00    +0.000 A 
ATOM     17  C   UNL     1       4.401   3.252  18.566  0.00  0.00    +0.000 A 
ATOM     18  C   UNL     1       3.087   3.499  18.170  0.00  0.00    +0.000 A 
ATOM     19 CL   UNL     1       1.983   2.183  18.041  0.00  0.00    +0.000 Cl
ATOM     20  C   UNL     1       2.672   4.806  17.902  0.00  0.00    +0.000 A 
ATOM     21  F   UNL     1       1.397   5.041  17.550  0.00  0.00    +0.000 F 
ENDBRANCH  13  14
ENDBRANCH  11  13
ENDBRANCH   4   9
BRANCH   1  22
ATOM     22  C   UNL     1      -0.956  12.662  20.031  0.00  0.00    +0.000 C 
BRANCH  22  25
ATOM     23  C   UNL     1      -4.456  12.330  19.865  0.00  0.00    +0.000 A 
ATOM     24  N   UNL     1      -3.318  12.612  20.529  0.00  0.00    +0.000 NA
ATOM     25  N   UNL     1      -2.325  12.325  19.647  0.00  0.00    +0.000 N 
ATOM     26  C   UNL     1      -2.786  11.853  18.444  0.00  0.00    +0.000 A 
ATOM     27  C   UNL     1      -2.148  11.441  17.280  0.00  0.00    +0.000 A 
ATOM     28  N   UNL     1      -2.898  11.033  16.229  0.00  0.00    +0.000 NA
ATOM     29  C   UNL     1      -4.244  11.034  16.330  0.00  0.00    +0.000 A 
ATOM     30  C   UNL     1      -4.945  11.427  17.457  0.00  0.00    +0.000 A 
ATOM     31  C   UNL     1      -4.173  11.850  18.556  0.00  0.00    +0.000 A 
BRANCH  23  33
ATOM     32  C   UNL     1      -6.654  13.643  19.933  0.00  0.00    +0.000 C 
ATOM     33  C   UNL     1      -5.787  12.526  20.463  0.00  0.00    +0.000 C 
ATOM     34  O   UNL     1      -6.200  11.817  21.385  0.00  0.00    +0.000 OA
ENDBRANCH  23  33
ENDBRANCH  22  25
ENDBRANCH   1  22
TORSDOF 6
ENDMDL
MODEL 5
REMARK VINA RESULT:      -8.0      5.004      9.198
REMARK  Name = 
REMARK  7 active torsions:
REMARK  status: ('A' for Active; 'I' for Inactive)
REMARK    1  A    between atoms: C_1  and  C_2
REMARK    2  A    between atoms: C_2  and  C_4
REMARK    3  A    between atoms: N_6  and  C_7
REMARK    4  A    between atoms: C_7  and  C_8
REMARK    5  A    between atoms: C_11  and  C_12
REMARK    6  A    between atoms: N_14  and  C_15
REMARK    7  A    between atoms: C_15  and  C_16
REMARK                            x       y       z     vdW  Elec       q    Type
REMARK                         _______ _______ _______ _____ _____    ______ ____
ROOT
ATOM      1  C   UNL     1       0.674  11.930  20.506  0.00  0.00    +0.000 C 
ATOM      2  O   UNL     1       1.369  11.129  21.140  0.00  0.00    +0.000 OA
ATOM      3  N   UNL     1      -0.073  11.523  19.421  0.00  0.00    +0.000 N 
ATOM      4  C   UNL     1      -0.214  10.093  19.022  0.00  0.00    +0.000 C 
ATOM      5  C   UNL     1      -1.046  10.174  17.709  0.00  0.00    +0.000 C 
ATOM      6  C   UNL     1      -1.833  11.451  17.802  0.00  0.00    +0.000 C 
ATOM      7  C   UNL     1      -2.602  11.845  19.029  0.00  0.00    +0.000 C 
ATOM      8  C   UNL     1      -1.166  12.282  18.853  0.00  0.00    +0.000 C 
ENDROOT
BRANCH   4   9
ATOM      9  C   UNL     1       1.050   9.252  18.752  0.00  0.00    +0.000 C 
ATOM     10  O   UNL     1       1.684   9.313  17.702  0.00  0.00    +0.000 OA
ATOM     11  N   UNL     1       1.400   8.388  19.780  0.00  0.00    +0.000 N 
ATOM     12  H   UNL     1       1.206   8.727  20.718  0.00  0.00    +0.000 HD
BRANCH  11  13
ATOM     13  C   UNL     1       2.563   7.534  19.625  0.00  0.00    +0.000 C 
BRANCH  13  14
ATOM     14  C   UNL     1       2.230   6.063  19.624  0.00  0.00    +0.000 A 
ATOM     15  C   UNL     1       1.505   5.480  20.676  0.00  0.00    +0.000 A 
ATOM     16  C   UNL     1       1.105   4.139  20.612  0.00  0.00    +0.000 A 
ATOM     17  C   UNL     1       1.422   3.364  19.497  0.00  0.00    +0.000 A 
ATOM     18  C   UNL     1       2.146   3.930  18.448  0.00  0.00    +0.000 A 
ATOM     19 CL   UNL     1       2.523   2.969  17.069  0.00  0.00    +0.000 Cl
ATOM     20  C   UNL     1       2.541   5.268  18.512  0.00  0.00    +0.000 A 
ATOM     21  F   UNL     1       3.212   5.816  17.486  0.00  0.00    +0.000 F 
ENDBRANCH  13  14
ENDBRANCH  11  13
ENDBRANCH   4   9
BRANCH   1  22
ATOM     22  C   UNL     1       0.586  13.388  20.925  0.00  0.00    +0.000 C 
BRANCH  22  25
ATOM     23  C   UNL     1       3.272  14.960  19.281  0.00  0.00    +0.000 A 
ATOM     24  N   UNL     1       2.768  14.026  20.112  0.00  0.00    +0.000 NA
ATOM     25  N   UNL     1       1.443  14.319  20.195  0.00  0.00    +0.000 N 
ATOM     26  C   UNL     1       1.083  15.419  19.460  0.00  0.00    +0.000 A 
ATOM     27  C   UNL     1      -0.129  16.069  19.257  0.00  0.00    +0.000 A 
ATOM     28  N   UNL     1      -0.168  17.149  18.440  0.00  0.00    +0.000 NA
ATOM     29  C   UNL     1       0.965  17.572  17.841  0.00  0.00    +0.000 A 
ATOM     30  C   UNL     1       2.205  16.977  18.000  0.00  0.00    +0.000 A 
ATOM     31  C   UNL     1       2.255  15.856  18.849  0.00  0.00    +0.000 A 
BRANCH  23  33
ATOM     32  C   UNL     1       5.711  15.360  19.951  0.00  0.00    +0.000 C 
ATOM     33  C   UNL     1       4.694  14.989  18.900  0.00  0.00    +0.000 C 
ATOM     34  O   UNL     1       5.068  14.732  17.752  0.00  0.00    +0.000 OA
ENDBRANCH  23  33
ENDBRANCH  22  25
ENDBRANCH   1  22
TORSDOF 6
ENDMDL
MODEL 6
REMARK VINA RESULT:      -7.9      3.900      8.905
REMARK  Name = 
REMARK  7 active torsions:
REMARK  status: ('A' for Active; 'I' for Inactive)
REMARK    1  A    between atoms: C_1  and  C_2
REMARK    2  A    between atoms: C_2  and  C_4
REMARK    3  A    between atoms: N_6  and  C_7
REMARK    4  A    between atoms: C_7  and  C_8
REMARK    5  A    between atoms: C_11  and  C_12
REMARK    6  A    between atoms: N_14  and  C_15
REMARK    7  A    between atoms: C_15  and  C_16
REMARK                            x       y       z     vdW  Elec       q    Type
REMARK                         _______ _______ _______ _____ _____    ______ ____
ROOT
ATOM      1  C   UNL     1       0.179  11.466  19.627  0.00  0.00    +0.000 C 
ATOM      2  O   UNL     1       1.116  11.582  18.831  0.00  0.00    +0.000 OA
ATOM      3  N   UNL     1       0.060  10.354  20.433  0.00  0.00    +0.000 N 
ATOM      4  C   UNL     1       1.106   9.293  20.512  0.00  0.00    +0.000 C 
ATOM      5  C   UNL     1       0.463   8.234  21.454  0.00  0.00    +0.000 C 
ATOM      6  C   UNL     1      -0.512   8.989  22.313  0.00  0.00    +0.000 C 
ATOM      7  C   UNL     1      -0.161  10.275  23.001  0.00  0.00    +0.000 C 
ATOM      8  C   UNL     1      -0.768  10.289  21.618  0.00  0.00    +0.000 C 
ENDROOT
BRANCH   4   9
ATOM      9  C   UNL     1       1.570   8.588  19.221  0.00  0.00    +0.000 C 
ATOM     10  O   UNL     1       1.269   8.981  18.098  0.00  0.00    +0.000 OA
ATOM     11  N   UNL     1       2.328   7.444  19.428  0.00  0.00    +0.000 N 
ATOM     12  H   UNL     1       2.938   7.467  20.241  0.00  0.00    +0.000 HD
BRANCH  11  13
ATOM     13  C   UNL     1       2.801   6.690  18.282  0.00  0.00    +0.000 C 
BRANCH  13  14
ATOM     14  C   UNL     1       2.642   5.198  18.441  0.00  0.00    +0.000 A 
ATOM     15  C   UNL     1       1.645   4.494  17.747  0.00  0.00    +0.000 A 
ATOM     16  C   UNL     1       1.577   3.096  17.815  0.00  0.00    +0.000 A 
ATOM     17  C   UNL     1       2.505   2.385  18.576  0.00  0.00    +0.000 A 
ATOM     18  C   UNL     1       3.497   3.072  19.273  0.00  0.00    +0.000 A 
ATOM     19 CL   UNL     1       4.646   2.185  20.200  0.00  0.00    +0.000 Cl
ATOM     20  C   UNL     1       3.565   4.466  19.201  0.00  0.00    +0.000 A 
ATOM     21  F   UNL     1       4.541   5.120  19.851  0.00  0.00    +0.000 F 
ENDBRANCH  13  14
ENDBRANCH  11  13
ENDBRANCH   4   9
BRANCH   1  22
ATOM     22  C   UNL     1      -0.858  12.568  19.777  0.00  0.00    +0.000 C 
BRANCH  22  25
ATOM     23  C   UNL     1      -4.356  12.221  19.590  0.00  0.00    +0.000 A 
ATOM     24  N   UNL     1      -3.223  12.512  20.260  0.00  0.00    +0.000 NA
ATOM     25  N   UNL     1      -2.223  12.222  19.387  0.00  0.00    +0.000 N 
ATOM     26  C   UNL     1      -2.674  11.740  18.185  0.00  0.00    +0.000 A 
ATOM     27  C   UNL     1      -2.028  11.321  17.027  0.00  0.00    +0.000 A 
ATOM     28  N   UNL     1      -2.769  10.903  15.974  0.00  0.00    +0.000 NA
ATOM     29  C   UNL     1      -4.116  10.899  16.067  0.00  0.00    +0.000 A 
ATOM     30  C   UNL     1      -4.825  11.298  17.187  0.00  0.00    +0.000 A 
ATOM     31  C   UNL     1      -4.063  11.732  18.287  0.00  0.00    +0.000 A 
BRANCH  23  33
ATOM     32  C   UNL     1      -6.399  13.727  19.932  0.00  0.00    +0.000 C 
ATOM     33  C   UNL     1      -5.691  12.417  20.179  0.00  0.00    +0.000 C 
ATOM     34  O   UNL     1      -6.234  11.551  20.870  0.00  0.00    +0.000 OA
ENDBRANCH  23  33
ENDBRANCH  22  25
ENDBRANCH   1  22
TORSDOF 6
ENDMDL
MODEL 7
REMARK VINA RESULT:      -7.9      3.630      5.285
REMARK  Name = 
REMARK  7 active torsions:
REMARK  status: ('A' for Active; 'I' for Inactive)
REMARK    1  A    between atoms: C_1  and  C_2
REMARK    2  A    between atoms: C_2  and  C_4
REMARK    3  A    between atoms: N_6  and  C_7
REMARK    4  A    between atoms: C_7  and  C_8
REMARK    5  A    between atoms: C_11  and  C_12
REMARK    6  A    between atoms: N_14  and  C_15
REMARK    7  A    between atoms: C_15  and  C_16
REMARK                            x       y       z     vdW  Elec       q    Type
REMARK                         _______ _______ _______ _____ _____    ______ ____
ROOT
ATOM      1  C   UNL     1       1.443   8.681  19.402  0.00  0.00    +0.000 C 
ATOM      2  O   UNL     1       1.242   8.889  18.201  0.00  0.00    +0.000 OA
ATOM      3  N   UNL     1       0.922   9.516  20.368  0.00  0.00    +0.000 N 
ATOM      4  C   UNL     1      -0.022  10.628  20.057  0.00  0.00    +0.000 C 
ATOM      5  C   UNL     1      -0.223  11.316  21.439  0.00  0.00    +0.000 C 
ATOM      6  C   UNL     1       0.042  10.253  22.467  0.00  0.00    +0.000 C 
ATOM      7  C   UNL     1      -0.551   8.877  22.386  0.00  0.00    +0.000 C 
ATOM      8  C   UNL     1       0.796   9.167  21.766  0.00  0.00    +0.000 C 
ENDROOT
BRANCH   4   9
ATOM      9  C   UNL     1       0.383  11.701  19.026  0.00  0.00    +0.000 C 
ATOM     10  O   UNL     1      -0.405  12.183  18.217  0.00  0.00    +0.000 OA
ATOM     11  N   UNL     1       1.724  12.056  19.059  0.00  0.00    +0.000 N 
ATOM     12  H   UNL     1       2.154  12.049  19.979  0.00  0.00    +0.000 HD
BRANCH  11  13
ATOM     13  C   UNL     1       2.219  13.045  18.118  0.00  0.00    +0.000 C 
BRANCH  13  14
ATOM     14  C   UNL     1       2.584  14.357  18.766  0.00  0.00    +0.000 A 
ATOM     15  C   UNL     1       3.906  14.638  19.147  0.00  0.00    +0.000 A 
ATOM     16  C   UNL     1       4.254  15.900  19.645  0.00  0.00    +0.000 A 
ATOM     17  C   UNL     1       3.286  16.898  19.768  0.00  0.00    +0.000 A 
ATOM     18  C   UNL     1       1.969  16.630  19.397  0.00  0.00    +0.000 A 
ATOM     19 CL   UNL     1       0.783  17.871  19.539  0.00  0.00    +0.000 Cl
ATOM     20  C   UNL     1       1.626  15.371  18.897  0.00  0.00    +0.000 A 
ATOM     21  F   UNL     1       0.361  15.128  18.514  0.00  0.00    +0.000 F 
ENDBRANCH  13  14
ENDBRANCH  11  13
ENDBRANCH   4   9
BRANCH   1  22
ATOM     22  C   UNL     1       2.238   7.470  19.861  0.00  0.00    +0.000 C 
BRANCH  22  25
ATOM     23  C   UNL     1       4.315   6.206  17.316  0.00  0.00    +0.000 A 
ATOM     24  N   UNL     1       3.873   7.205  18.105  0.00  0.00    +0.000 NA
ATOM     25  N   UNL     1       2.844   6.661  18.806  0.00  0.00    +0.000 N 
ATOM     26  C   UNL     1       2.599   5.351  18.483  0.00  0.00    +0.000 A 
ATOM     27  C   UNL     1       1.668   4.421  18.930  0.00  0.00    +0.000 A 
ATOM     28  N   UNL     1       1.690   3.169  18.417  0.00  0.00    +0.000 NA
ATOM     29  C   UNL     1       2.610   2.847  17.484  0.00  0.00    +0.000 A 
ATOM     30  C   UNL     1       3.563   3.720  16.990  0.00  0.00    +0.000 A 
ATOM     31  C   UNL     1       3.547   5.026  17.516  0.00  0.00    +0.000 A 
BRANCH  23  33
ATOM     32  C   UNL     1       6.851   6.315  16.972  0.00  0.00    +0.000 C 
ATOM     33  C   UNL     1       5.455   6.372  16.399  0.00  0.00    +0.000 C 
ATOM     34  O   UNL     1       5.299   6.565  15.190  0.00  0.00    +0.000 OA
ENDBRANCH  23  33
ENDBRANCH  22  25
ENDBRANCH   1  22
TORSDOF 6
ENDMDL
MODEL 8
REMARK VINA RESULT:      -7.8      3.962      9.140
REMARK  Name = 
REMARK  7 active torsions:
REMARK  status: ('A' for Active; 'I' for Inactive)
REMARK    1  A    between atoms: C_1  and  C_2
REMARK    2  A    between atoms: C_2  and  C_4
REMARK    3  A    between atoms: N_6  and  C_7
REMARK    4  A    between atoms: C_7  and  C_8
REMARK    5  A    between atoms: C_11  and  C_12
REMARK    6  A    between atoms: N_14  and  C_15
REMARK    7  A    between atoms: C_15  and  C_16
REMARK                            x       y       z     vdW  Elec       q    Type
REMARK                         _______ _______ _______ _____ _____    ______ ____
ROOT
ATOM      1  C   UNL     1      -0.040  11.649  19.885  0.00  0.00    +0.000 C 
ATOM      2  O   UNL     1       0.843  11.972  19.084  0.00  0.00    +0.000 OA
ATOM      3  N   UNL     1      -0.042  10.408  20.484  0.00  0.00    +0.000 N 
ATOM      4  C   UNL     1       1.074   9.430  20.329  0.00  0.00    +0.000 C 
ATOM      5  C   UNL     1       0.554   8.178  21.093  0.00  0.00    +0.000 C 
ATOM      6  C   UNL     1      -0.420   8.696  22.113  0.00  0.00    +0.000 C 
ATOM      7  C   UNL     1      -0.118   9.865  23.004  0.00  0.00    +0.000 C 
ATOM      8  C   UNL     1      -0.798  10.076  21.672  0.00  0.00    +0.000 C 
ENDROOT
BRANCH   4   9
ATOM      9  C   UNL     1       1.512   8.997  18.915  0.00  0.00    +0.000 C 
ATOM     10  O   UNL     1       0.933   9.357  17.894  0.00  0.00    +0.000 OA
ATOM     11  N   UNL     1       2.598   8.133  18.886  0.00  0.00    +0.000 N 
ATOM     12  H   UNL     1       3.296   8.286  19.608  0.00  0.00    +0.000 HD
BRANCH  11  13
ATOM     13  C   UNL     1       3.083   7.646  17.607  0.00  0.00    +0.000 C 
BRANCH  13  14
ATOM     14  C   UNL     1       3.377   6.167  17.602  0.00  0.00    +0.000 A 
ATOM     15  C   UNL     1       2.528   5.254  18.249  0.00  0.00    +0.000 A 
ATOM     16  C   UNL     1       2.748   3.874  18.145  0.00  0.00    +0.000 A 
ATOM     17  C   UNL     1       3.818   3.389  17.392  0.00  0.00    +0.000 A 
ATOM     18  C   UNL     1       4.671   4.286  16.749  0.00  0.00    +0.000 A 
ATOM     19 CL   UNL     1       5.982   3.678  15.812  0.00  0.00    +0.000 Cl
ATOM     20  C   UNL     1       4.447   5.660  16.852  0.00  0.00    +0.000 A 
ATOM     21  F   UNL     1       5.254   6.518  16.206  0.00  0.00    +0.000 F 
ENDBRANCH  13  14
ENDBRANCH  11  13
ENDBRANCH   4   9
BRANCH   1  22
ATOM     22  C   UNL     1      -1.137  12.628  20.272  0.00  0.00    +0.000 C 
BRANCH  22  25
ATOM     23  C   UNL     1      -4.624  12.298  19.919  0.00  0.00    +0.000 A 
ATOM     24  N   UNL     1      -3.522  12.568  20.646  0.00  0.00    +0.000 NA
ATOM     25  N   UNL     1      -2.484  12.297  19.811  0.00  0.00    +0.000 N 
ATOM     26  C   UNL     1      -2.882  11.847  18.578  0.00  0.00    +0.000 A 
ATOM     27  C   UNL     1      -2.185  11.456  17.441  0.00  0.00    +0.000 A 
ATOM     28  N   UNL     1      -2.879  11.067  16.345  0.00  0.00    +0.000 NA
ATOM     29  C   UNL     1      -4.228  11.066  16.377  0.00  0.00    +0.000 A 
ATOM     30  C   UNL     1      -4.986  11.438  17.474  0.00  0.00    +0.000 A 
ATOM     31  C   UNL     1      -4.273  11.842  18.618  0.00  0.00    +0.000 A 
BRANCH  23  33
ATOM     32  C   UNL     1      -6.904  13.451  19.747  0.00  0.00    +0.000 C 
ATOM     33  C   UNL     1      -5.984  12.484  20.451  0.00  0.00    +0.000 C 
ATOM     34  O   UNL     1      -6.381  11.885  21.454  0.00  0.00    +0.000 OA
ENDBRANCH  23  33
ENDBRANCH  22  25
ENDBRANCH   1  22
TORSDOF 6
ENDMDL
MODEL 9
REMARK VINA RESULT:      -7.8      4.135      5.608
REMARK  Name = 
REMARK  7 active torsions:
REMARK  status: ('A' for Active; 'I' for Inactive)
REMARK    1  A    between atoms: C_1  and  C_2
REMARK    2  A    between atoms: C_2  and  C_4
REMARK    3  A    between atoms: N_6  and  C_7
REMARK    4  A    between atoms: C_7  and  C_8
REMARK    5  A    between atoms: C_11  and  C_12
REMARK    6  A    between atoms: N_14  and  C_15
REMARK    7  A    between atoms: C_15  and  C_16
REMARK                            x       y       z     vdW  Elec       q    Type
REMARK                         _______ _______ _______ _____ _____    ______ ____
ROOT
ATOM      1  C   UNL     1       1.420   8.708  19.396  0.00  0.00    +0.000 C 
ATOM      2  O   UNL     1       1.217   8.910  18.195  0.00  0.00    +0.000 OA
ATOM      3  N   UNL     1       0.910   9.555  20.358  0.00  0.00    +0.000 N 
ATOM      4  C   UNL     1      -0.026  10.673  20.042  0.00  0.00    +0.000 C 
ATOM      5  C   UNL     1      -0.215  11.373  21.419  0.00  0.00    +0.000 C 
ATOM      6  C   UNL     1       0.043  10.315  22.455  0.00  0.00    +0.000 C 
ATOM      7  C   UNL     1      -0.563   8.944  22.385  0.00  0.00    +0.000 C 
ATOM      8  C   UNL     1       0.785   9.217  21.759  0.00  0.00    +0.000 C 
ENDROOT
BRANCH   4   9
ATOM      9  C   UNL     1       0.386  11.735  19.003  0.00  0.00    +0.000 C 
ATOM     10  O   UNL     1      -0.402  12.226  18.198  0.00  0.00    +0.000 OA
ATOM     11  N   UNL     1       1.733  12.069  19.020  0.00  0.00    +0.000 N 
ATOM     12  H   UNL     1       2.172  12.060  19.937  0.00  0.00    +0.000 HD
BRANCH  11  13
ATOM     13  C   UNL     1       2.234  13.046  18.070  0.00  0.00    +0.000 C 
BRANCH  13  14
ATOM     14  C   UNL     1       2.486  14.401  18.682  0.00  0.00    +0.000 A 
ATOM     15  C   UNL     1       1.544  15.003  19.531  0.00  0.00    +0.000 A 
ATOM     16  C   UNL     1       1.836  16.209  20.182  0.00  0.00    +0.000 A 
ATOM     17  C   UNL     1       3.072  16.827  19.995  0.00  0.00    +0.000 A 
ATOM     18  C   UNL     1       4.015  16.241  19.151  0.00  0.00    +0.000 A 
ATOM     19 CL   UNL     1       5.543  17.005  18.934  0.00  0.00    +0.000 Cl
ATOM     20  C   UNL     1       3.723  15.038  18.505  0.00  0.00    +0.000 A 
ATOM     21  F   UNL     1       4.646  14.463  17.717  0.00  0.00    +0.000 F 
ENDBRANCH  13  14
ENDBRANCH  11  13
ENDBRANCH   4   9
BRANCH   1  22
ATOM     22  C   UNL     1       2.206   7.493  19.862  0.00  0.00    +0.000 C 
BRANCH  22  25
ATOM     23  C   UNL     1       4.310   6.234  17.337  0.00  0.00    +0.000 A 
ATOM     24  N   UNL     1       3.859   7.232  18.123  0.00  0.00    +0.000 NA
ATOM     25  N   UNL     1       2.823   6.686  18.812  0.00  0.00    +0.000 N 
ATOM     26  C   UNL     1       2.582   5.377  18.484  0.00  0.00    +0.000 A 
ATOM     27  C   UNL     1       1.646   4.446  18.920  0.00  0.00    +0.000 A 
ATOM     28  N   UNL     1       1.674   3.194  18.406  0.00  0.00    +0.000 NA
ATOM     29  C   UNL     1       2.604   2.874  17.482  0.00  0.00    +0.000 A 
ATOM     30  C   UNL     1       3.562   3.749  16.999  0.00  0.00    +0.000 A 
ATOM     31  C   UNL     1       3.540   5.053  17.527  0.00  0.00    +0.000 A 
BRANCH  23  33
ATOM     32  C   UNL     1       6.841   6.476  17.035  0.00  0.00    +0.000 C 
ATOM     33  C   UNL     1       5.459   6.401  16.432  0.00  0.00    +0.000 C 
ATOM     34  O   UNL     1       5.321   6.492  15.210  0.00  0.00    +0.000 OA
ENDBRANCH  23  33
ENDBRANCH  22  25
ENDBRANCH   1  22
TORSDOF 6
ENDMDL
