MODEL 1
REMARK VINA RESULT:      -7.7      0.000      0.000
REMARK  Name = 
REMARK  8 active torsions:
REMARK  status: ('A' for Active; 'I' for Inactive)
REMARK    1  A    between atoms: C_2  and  C_3
REMARK    2  A    between atoms: C_3  and  O_4
REMARK    3  A    between atoms: O_4  and  C_5
REMARK    4  A    between atoms: C_5  and  C_6
REMARK    5  A    between atoms: N_8  and  C_9
REMARK    6  A    between atoms: C_15  and  C_16
REMARK    7  A    between atoms: C_16  and  O_18
REMARK    8  A    between atoms: N_19  and  C_20
REMARK                            x       y       z     vdW  Elec       q    Type
REMARK                         _______ _______ _______ _____ _____    ______ ____
ROOT
ATOM      1  C   UNL     1       1.740   4.837  20.690  0.00  0.00    +0.000 C 
ATOM      2  O   UNL     1       0.615   4.671  20.222  0.00  0.00    +0.000 OA
ATOM      3  N   UNL     1       2.433   6.034  20.750  0.00  0.00    +0.000 N 
ATOM      4  H   UNL     1       3.434   5.946  20.955  0.00  0.00    +0.000 HD
ENDROOT
BRANCH   3   5
ATOM      5  C   UNL     1       1.961   7.289  20.290  0.00  0.00    +0.000 A 
ATOM      6  C   UNL     1       1.250   8.145  21.144  0.00  0.00    +0.000 A 
ATOM      7  C   UNL     1       0.704   9.345  20.684  0.00  0.00    +0.000 A 
ATOM      8  C   UNL     1       0.863   9.707  19.355  0.00  0.00    +0.000 A 
ATOM      9 CL   UNL     1       0.146  11.158  18.777  0.00  0.00    +0.000 Cl
ATOM     10  C   UNL     1       1.602   8.904  18.491  0.00  0.00    +0.000 A 
ATOM     11  C   UNL     1       2.184   7.712  18.961  0.00  0.00    +0.000 A 
BRANCH  11  12
ATOM     12  C   UNL     1       2.977   6.878  18.019  0.00  0.00    +0.000 C 
ATOM     13  O   UNL     1       4.038   7.244  17.541  0.00  0.00    +0.000 OA
BRANCH  12  14
ATOM     14  O   UNL     1       2.391   5.706  17.691  0.00  0.00    +0.000 OA
ATOM     15  H   UNL     1       2.036   5.641  16.784  0.00  0.00    +0.000 HD
ENDBRANCH  12  14
ENDBRANCH  11  12
ENDBRANCH   3   5
BRANCH   1  16
ATOM     16  C   UNL     1       2.502   3.639  21.246  0.00  0.00    +0.000 C 
BRANCH  16  17
ATOM     17  O   UNL     1       2.429   2.467  20.438  0.00  0.00    +0.000 OA
BRANCH  17  18
ATOM     18  C   UNL     1       3.719   2.120  19.936  0.00  0.00    +0.000 C 
BRANCH  18  20
ATOM     19  O   UNL     1       3.595   3.294  17.841  0.00  0.00    +0.000 OA
ATOM     20  C   UNL     1       4.244   3.076  18.860  0.00  0.00    +0.000 C 
ATOM     21  N   UNL     1       5.476   3.619  19.187  0.00  0.00    +0.000 N 
ATOM     22  H   UNL     1       5.951   3.220  19.994  0.00  0.00    +0.000 HD
BRANCH  21  23
ATOM     23  C   UNL     1       6.182   4.585  18.443  0.00  0.00    +0.000 A 
ATOM     24  C   UNL     1       6.854   5.662  19.033  0.00  0.00    +0.000 A 
ATOM     25  C   UNL     1       7.496   6.622  18.244  0.00  0.00    +0.000 A 
ATOM     26  C   UNL     1       7.471   6.511  16.859  0.00  0.00    +0.000 A 
ATOM     27  C   UNL     1       6.836   5.421  16.277  0.00  0.00    +0.000 A 
ATOM     28  F   UNL     1       6.812   5.310  14.942  0.00  0.00    +0.000 F 
ATOM     29  C   UNL     1       6.208   4.449  17.053  0.00  0.00    +0.000 A 
ENDBRANCH  21  23
ENDBRANCH  18  20
ENDBRANCH  17  18
ENDBRANCH  16  17
ENDBRANCH   1  16
TORSDOF 8
ENDMDL
MODEL 2
REMARK VINA RESULT:      -7.3      1.248      1.626
REMARK  Name = 
REMARK  8 active torsions:
REMARK  status: ('A' for Active; 'I' for Inactive)
REMARK    1  A    between atoms: C_2  and  C_3
REMARK    2  A    between atoms: C_3  and  O_4
REMARK    3  A    between atoms: O_4  and  C_5
REMARK    4  A    between atoms: C_5  and  C_6
REMARK    5  A    between atoms: N_8  and  C_9
REMARK    6  A    between atoms: C_15  and  C_16
REMARK    7  A    between atoms: C_16  and  O_18
REMARK    8  A    between atoms: N_19  and  C_20
REMARK                            x       y       z     vdW  Elec       q    Type
REMARK                         _______ _______ _______ _____ _____    ______ ____
ROOT
ATOM      1  C   UNL     1       1.615   4.911  20.852  0.00  0.00    +0.000 C 
ATOM      2  O   UNL     1       0.444   4.784  20.503  0.00  0.00    +0.000 OA
ATOM      3  N   UNL     1       2.363   6.075  20.801  0.00  0.00    +0.000 N 
ATOM      4  H   UNL     1       3.374   5.946  20.910  0.00  0.00    +0.000 HD
ENDROOT
BRANCH   3   5
ATOM      5  C   UNL     1       1.902   7.336  20.346  0.00  0.00    +0.000 A 
ATOM      6  C   UNL     1       1.227   8.208  21.213  0.00  0.00    +0.000 A 
ATOM      7  C   UNL     1       0.692   9.416  20.760  0.00  0.00    +0.000 A 
ATOM      8  C   UNL     1       0.825   9.770  19.426  0.00  0.00    +0.000 A 
ATOM      9 CL   UNL     1       0.121  11.231  18.858  0.00  0.00    +0.000 Cl
ATOM     10  C   UNL     1       1.529   8.950  18.549  0.00  0.00    +0.000 A 
ATOM     11  C   UNL     1       2.101   7.749  19.011  0.00  0.00    +0.000 A 
BRANCH  11  12
ATOM     12  C   UNL     1       2.856   6.897  18.054  0.00  0.00    +0.000 C 
ATOM     13  O   UNL     1       3.935   7.222  17.585  0.00  0.00    +0.000 OA
BRANCH  12  14
ATOM     14  O   UNL     1       2.216   5.761  17.702  0.00  0.00    +0.000 OA
ATOM     15  H   UNL     1       1.634   5.819  16.921  0.00  0.00    +0.000 HD
ENDBRANCH  12  14
ENDBRANCH  11  12
ENDBRANCH   3   5
BRANCH   1  16
ATOM     16  C   UNL     1       2.376   3.695  21.372  0.00  0.00    +0.000 C 
BRANCH  16  17
ATOM     17  O   UNL     1       1.874   2.443  20.911  0.00  0.00    +0.000 OA
BRANCH  17  18
ATOM     18  C   UNL     1       2.187   2.252  19.533  0.00  0.00    +0.000 C 
BRANCH  18  20
ATOM     19  O   UNL     1       4.560   1.939  19.755  0.00  0.00    +0.000 OA
ATOM     20  C   UNL     1       3.652   2.534  19.183  0.00  0.00    +0.000 C 
ATOM     21  N   UNL     1       3.787   3.496  18.196  0.00  0.00    +0.000 N 
ATOM     22  H   UNL     1       2.944   4.003  17.934  0.00  0.00    +0.000 HD
BRANCH  21  23
ATOM     23  C   UNL     1       4.995   3.917  17.606  0.00  0.00    +0.000 A 
ATOM     24  C   UNL     1       5.259   3.800  16.237  0.00  0.00    +0.000 A 
ATOM     25  C   UNL     1       6.495   4.187  15.711  0.00  0.00    +0.000 A 
ATOM     26  C   UNL     1       7.479   4.694  16.552  0.00  0.00    +0.000 A 
ATOM     27  C   UNL     1       7.202   4.844  17.905  0.00  0.00    +0.000 A 
ATOM     28  F   UNL     1       8.147   5.335  18.718  0.00  0.00    +0.000 F 
ATOM     29  C   UNL     1       5.968   4.479  18.438  0.00  0.00    +0.000 A 
ENDBRANCH  21  23
ENDBRANCH  18  20
ENDBRANCH  17  18
ENDBRANCH  16  17
ENDBRANCH   1  16
TORSDOF 8
ENDMDL
MODEL 3
REMARK VINA RESULT:      -7.1      4.614      7.892
REMARK  Name = 
REMARK  8 active torsions:
REMARK  status: ('A' for Active; 'I' for Inactive)
REMARK    1  A    between atoms: C_2  and  C_3
REMARK    2  A    between atoms: C_3  and  O_4
REMARK    3  A    between atoms: O_4  and  C_5
REMARK    4  A    between atoms: C_5  and  C_6
REMARK    5  A    between atoms: N_8  and  C_9
REMARK    6  A    between atoms: C_15  and  C_16
REMARK    7  A    between atoms: C_16  and  O_18
REMARK    8  A    between atoms: N_19  and  C_20
REMARK                            x       y       z     vdW  Elec       q    Type
REMARK                         _______ _______ _______ _____ _____    ______ ____
ROOT
ATOM      1  C   UNL     1       0.911   8.375  21.415  0.00  0.00    +0.000 C 
ATOM      2  O   UNL     1      -0.268   8.051  21.281  0.00  0.00    +0.000 OA
ATOM      3  N   UNL     1       2.008   7.700  20.908  0.00  0.00    +0.000 N 
ATOM      4  H   UNL     1       2.910   7.977  21.309  0.00  0.00    +0.000 HD
ENDROOT
BRANCH   3   5
ATOM      5  C   UNL     1       1.966   6.516  20.130  0.00  0.00    +0.000 A 
ATOM      6  C   UNL     1       1.653   5.282  20.718  0.00  0.00    +0.000 A 
ATOM      7  C   UNL     1       1.691   4.094  19.985  0.00  0.00    +0.000 A 
ATOM      8  C   UNL     1       2.044   4.125  18.644  0.00  0.00    +0.000 A 
ATOM      9 CL   UNL     1       2.142   2.658  17.755  0.00  0.00    +0.000 Cl
ATOM     10  C   UNL     1       2.315   5.338  18.017  0.00  0.00    +0.000 A 
ATOM     11  C   UNL     1       2.242   6.541  18.745  0.00  0.00    +0.000 A 
BRANCH  11  12
ATOM     12  C   UNL     1       2.527   7.822  18.048  0.00  0.00    +0.000 C 
ATOM     13  O   UNL     1       1.770   8.779  18.081  0.00  0.00    +0.000 OA
BRANCH  12  14
ATOM     14  O   UNL     1       3.668   7.816  17.324  0.00  0.00    +0.000 OA
ATOM     15  H   UNL     1       4.021   8.689  17.068  0.00  0.00    +0.000 HD
ENDBRANCH  12  14
ENDBRANCH  11  12
ENDBRANCH   3   5
BRANCH   1  16
ATOM     16  C   UNL     1       1.256   9.615  22.233  0.00  0.00    +0.000 C 
BRANCH  16  17
ATOM     17  O   UNL     1       0.581  10.801  21.820  0.00  0.00    +0.000 OA
BRANCH  17  18
ATOM     18  C   UNL     1       1.208  11.362  20.668  0.00  0.00    +0.000 C 
BRANCH  18  20
ATOM     19  O   UNL     1       0.372  12.671  18.833  0.00  0.00    +0.000 OA
ATOM     20  C   UNL     1       0.241  11.661  19.518  0.00  0.00    +0.000 C 
ATOM     21  N   UNL     1      -0.736  10.688  19.378  0.00  0.00    +0.000 N 
ATOM     22  H   UNL     1      -0.799   9.995  20.120  0.00  0.00    +0.000 HD
BRANCH  21  23
ATOM     23  C   UNL     1      -1.720  10.638  18.370  0.00  0.00    +0.000 A 
ATOM     24  C   UNL     1      -1.598   9.847  17.223  0.00  0.00    +0.000 A 
ATOM     25  C   UNL     1      -2.580   9.874  16.228  0.00  0.00    +0.000 A 
ATOM     26  C   UNL     1      -3.694  10.693  16.375  0.00  0.00    +0.000 A 
ATOM     27  C   UNL     1      -3.831  11.449  17.532  0.00  0.00    +0.000 A 
ATOM     28  F   UNL     1      -4.905  12.237  17.678  0.00  0.00    +0.000 F 
ATOM     29  C   UNL     1      -2.868  11.417  18.538  0.00  0.00    +0.000 A 
ENDBRANCH  21  23
ENDBRANCH  18  20
ENDBRANCH  17  18
ENDBRANCH  16  17
ENDBRANCH   1  16
TORSDOF 8
ENDMDL
MODEL 4
REMARK VINA RESULT:      -7.0      3.353      6.268
REMARK  Name = 
REMARK  8 active torsions:
REMARK  status: ('A' for Active; 'I' for Inactive)
REMARK    1  A    between atoms: C_2  and  C_3
REMARK    2  A    between atoms: C_3  and  O_4
REMARK    3  A    between atoms: O_4  and  C_5
REMARK    4  A    between atoms: C_5  and  C_6
REMARK    5  A    between atoms: N_8  and  C_9
REMARK    6  A    between atoms: C_15  and  C_16
REMARK    7  A    between atoms: C_16  and  O_18
REMARK    8  A    between atoms: N_19  and  C_20
REMARK                            x       y       z     vdW  Elec       q    Type
REMARK                         _______ _______ _______ _____ _____    ______ ____
ROOT
ATOM      1  C   UNL     1       4.222   2.583  18.805  0.00  0.00    +0.000 C 
ATOM      2  O   UNL     1       3.735   1.834  17.960  0.00  0.00    +0.000 OA
ATOM      3  N   UNL     1       5.078   3.643  18.563  0.00  0.00    +0.000 N 
ATOM      4  H   UNL     1       5.564   4.006  19.390  0.00  0.00    +0.000 HD
ENDROOT
BRANCH   3   5
ATOM      5  C   UNL     1       5.536   4.064  17.289  0.00  0.00    +0.000 A 
ATOM      6  C   UNL     1       4.687   4.031  16.174  0.00  0.00    +0.000 A 
ATOM      7  C   UNL     1       5.147   4.359  14.897  0.00  0.00    +0.000 A 
ATOM      8  C   UNL     1       6.471   4.727  14.717  0.00  0.00    +0.000 A 
ATOM      9 CL   UNL     1       7.050   5.081  13.138  0.00  0.00    +0.000 Cl
ATOM     10  C   UNL     1       7.330   4.816  15.809  0.00  0.00    +0.000 A 
ATOM     11  C   UNL     1       6.860   4.520  17.102  0.00  0.00    +0.000 A 
BRANCH  11  12
ATOM     12  C   UNL     1       7.796   4.633  18.251  0.00  0.00    +0.000 C 
ATOM     13  O   UNL     1       7.561   5.315  19.235  0.00  0.00    +0.000 OA
BRANCH  12  14
ATOM     14  O   UNL     1       8.957   3.963  18.085  0.00  0.00    +0.000 OA
ATOM     15  H   UNL     1       9.324   3.532  18.881  0.00  0.00    +0.000 HD
ENDBRANCH  12  14
ENDBRANCH  11  12
ENDBRANCH   3   5
BRANCH   1  16
ATOM     16  C   UNL     1       3.910   2.348  20.279  0.00  0.00    +0.000 C 
BRANCH  16  17
ATOM     17  O   UNL     1       2.594   2.732  20.672  0.00  0.00    +0.000 OA
BRANCH  17  18
ATOM     18  C   UNL     1       2.603   4.032  21.257  0.00  0.00    +0.000 C 
BRANCH  18  20
ATOM     19  O   UNL     1       0.798   4.825  19.880  0.00  0.00    +0.000 OA
ATOM     20  C   UNL     1       1.862   5.090  20.432  0.00  0.00    +0.000 C 
ATOM     21  N   UNL     1       2.529   6.304  20.403  0.00  0.00    +0.000 N 
ATOM     22  H   UNL     1       3.473   6.315  20.782  0.00  0.00    +0.000 HD
BRANCH  21  23
ATOM     23  C   UNL     1       2.069   7.489  19.796  0.00  0.00    +0.000 A 
ATOM     24  C   UNL     1       2.393   7.850  18.483  0.00  0.00    +0.000 A 
ATOM     25  C   UNL     1       1.952   9.063  17.945  0.00  0.00    +0.000 A 
ATOM     26  C   UNL     1       1.182   9.926  18.718  0.00  0.00    +0.000 A 
ATOM     27  C   UNL     1       0.831   9.549  20.008  0.00  0.00    +0.000 A 
ATOM     28  F   UNL     1       0.087  10.377  20.754  0.00  0.00    +0.000 F 
ATOM     29  C   UNL     1       1.249   8.335  20.548  0.00  0.00    +0.000 A 
ENDBRANCH  21  23
ENDBRANCH  18  20
ENDBRANCH  17  18
ENDBRANCH  16  17
ENDBRANCH   1  16
TORSDOF 8
ENDMDL
MODEL 5
REMARK VINA RESULT:      -7.0      4.407      7.344
REMARK  Name = 
REMARK  8 active torsions:
REMARK  status: ('A' for Active; 'I' for Inactive)
REMARK    1  A    between atoms: C_2  and  C_3
REMARK    2  A    between atoms: C_3  and  O_4
REMARK    3  A    between atoms: O_4  and  C_5
REMARK    4  A    between atoms: C_5  and  C_6
REMARK    5  A    between atoms: N_8  and  C_9
REMARK    6  A    between atoms: C_15  and  C_16
REMARK    7  A    between atoms: C_16  and  O_18
REMARK    8  A    between atoms: N_19  and  C_20
REMARK                            x       y       z     vdW  Elec       q    Type
REMARK                         _______ _______ _______ _____ _____    ______ ____
ROOT
ATOM      1  C   UNL     1       6.550   6.557  16.318  0.00  0.00    +0.000 C 
ATOM      2  O   UNL     1       5.381   6.901  16.154  0.00  0.00    +0.000 OA
ATOM      3  N   UNL     1       7.231   5.600  15.586  0.00  0.00    +0.000 N 
ATOM      4  H   UNL     1       8.111   5.279  16.004  0.00  0.00    +0.000 HD
ENDROOT
BRANCH   3   5
ATOM      5  C   UNL     1       6.702   4.852  14.504  0.00  0.00    +0.000 A 
ATOM      6  C   UNL     1       5.611   3.992  14.693  0.00  0.00    +0.000 A 
ATOM      7  C   UNL     1       5.132   3.184  13.659  0.00  0.00    +0.000 A 
ATOM      8  C   UNL     1       5.742   3.227  12.415  0.00  0.00    +0.000 A 
ATOM      9 CL   UNL     1       5.186   2.195  11.158  0.00  0.00    +0.000 Cl
ATOM     10  C   UNL     1       6.798   4.103  12.179  0.00  0.00    +0.000 A 
ATOM     11  C   UNL     1       7.259   4.945  13.210  0.00  0.00    +0.000 A 
BRANCH  11  12
ATOM     12  C   UNL     1       8.381   5.878  12.928  0.00  0.00    +0.000 C 
ATOM     13  O   UNL     1       9.308   6.055  13.702  0.00  0.00    +0.000 OA
BRANCH  12  14
ATOM     14  O   UNL     1       8.255   6.559  11.768  0.00  0.00    +0.000 OA
ATOM     15  H   UNL     1       8.576   7.481  11.773  0.00  0.00    +0.000 HD
ENDBRANCH  12  14
ENDBRANCH  11  12
ENDBRANCH   3   5
BRANCH   1  16
ATOM     16  C   UNL     1       7.365   7.192  17.439  0.00  0.00    +0.000 C 
BRANCH  16  17
ATOM     17  O   UNL     1       8.003   6.258  18.307  0.00  0.00    +0.000 OA
BRANCH  17  18
ATOM     18  C   UNL     1       7.135   5.891  19.378  0.00  0.00    +0.000 C 
BRANCH  18  20
ATOM     19  O   UNL     1       6.216   3.924  18.345  0.00  0.00    +0.000 OA
ATOM     20  C   UNL     1       5.990   4.963  18.959  0.00  0.00    +0.000 C 
ATOM     21  N   UNL     1       4.749   5.440  19.349  0.00  0.00    +0.000 N 
ATOM     22  H   UNL     1       4.720   6.389  19.713  0.00  0.00    +0.000 HD
BRANCH  21  23
ATOM     23  C   UNL     1       3.516   4.780  19.180  0.00  0.00    +0.000 A 
ATOM     24  C   UNL     1       2.882   4.653  17.939  0.00  0.00    +0.000 A 
ATOM     25  C   UNL     1       1.632   4.033  17.835  0.00  0.00    +0.000 A 
ATOM     26  C   UNL     1       1.008   3.535  18.973  0.00  0.00    +0.000 A 
ATOM     27  C   UNL     1       1.656   3.630  20.198  0.00  0.00    +0.000 A 
ATOM     28  F   UNL     1       1.058   3.149  21.296  0.00  0.00    +0.000 F 
ATOM     29  C   UNL     1       2.908   4.229  20.311  0.00  0.00    +0.000 A 
ENDBRANCH  21  23
ENDBRANCH  18  20
ENDBRANCH  17  18
ENDBRANCH  16  17
ENDBRANCH   1  16
TORSDOF 8
ENDMDL
MODEL 6
REMARK VINA RESULT:      -6.9      2.046      2.973
REMARK  Name = 
REMARK  8 active torsions:
REMARK  status: ('A' for Active; 'I' for Inactive)
REMARK    1  A    between atoms: C_2  and  C_3
REMARK    2  A    between atoms: C_3  and  O_4
REMARK    3  A    between atoms: O_4  and  C_5
REMARK    4  A    between atoms: C_5  and  C_6
REMARK    5  A    between atoms: N_8  and  C_9
REMARK    6  A    between atoms: C_15  and  C_16
REMARK    7  A    between atoms: C_16  and  O_18
REMARK    8  A    between atoms: N_19  and  C_20
REMARK                            x       y       z     vdW  Elec       q    Type
REMARK                         _______ _______ _______ _____ _____    ______ ____
ROOT
ATOM      1  C   UNL     1       2.096   6.393  20.280  0.00  0.00    +0.000 C 
ATOM      2  O   UNL     1       2.916   6.581  19.384  0.00  0.00    +0.000 OA
ATOM      3  N   UNL     1       1.215   7.330  20.793  0.00  0.00    +0.000 N 
ATOM      4  H   UNL     1       0.775   7.071  21.682  0.00  0.00    +0.000 HD
ENDROOT
BRANCH   3   5
ATOM      5  C   UNL     1       1.095   8.676  20.363  0.00  0.00    +0.000 A 
ATOM      6  C   UNL     1       1.449   9.046  19.058  0.00  0.00    +0.000 A 
ATOM      7  C   UNL     1       1.418  10.380  18.645  0.00  0.00    +0.000 A 
ATOM      8  C   UNL     1       1.029  11.367  19.537  0.00  0.00    +0.000 A 
ATOM      9 CL   UNL     1       1.040  13.013  19.044  0.00  0.00    +0.000 Cl
ATOM     10  C   UNL     1       0.625  11.030  20.826  0.00  0.00    +0.000 A 
ATOM     11  C   UNL     1       0.622   9.682  21.234  0.00  0.00    +0.000 A 
BRANCH  11  12
ATOM     12  C   UNL     1       0.177   9.349  22.613  0.00  0.00    +0.000 C 
ATOM     13  O   UNL     1       0.757   9.745  23.611  0.00  0.00    +0.000 OA
BRANCH  12  14
ATOM     14  O   UNL     1      -0.888   8.520  22.665  0.00  0.00    +0.000 OA
ATOM     15  H   UNL     1      -1.136   8.083  21.828  0.00  0.00    +0.000 HD
ENDBRANCH  12  14
ENDBRANCH  11  12
ENDBRANCH   3   5
BRANCH   1  16
ATOM     16  C   UNL     1       2.018   5.024  20.948  0.00  0.00    +0.000 C 
BRANCH  16  17
ATOM     17  O   UNL     1       1.734   3.948  20.056  0.00  0.00    +0.000 OA
BRANCH  17  18
ATOM     18  C   UNL     1       2.697   2.906  20.201  0.00  0.00    +0.000 C 
BRANCH  18  20
ATOM     19  O   UNL     1       3.748   1.715  18.396  0.00  0.00    +0.000 OA
ATOM     20  C   UNL     1       3.653   2.773  19.011  0.00  0.00    +0.000 C 
ATOM     21  N   UNL     1       4.346   3.944  18.753  0.00  0.00    +0.000 N 
ATOM     22  H   UNL     1       4.268   4.683  19.448  0.00  0.00    +0.000 HD
BRANCH  21  23
ATOM     23  C   UNL     1       5.237   4.163  17.683  0.00  0.00    +0.000 A 
ATOM     24  C   UNL     1       6.585   4.492  17.867  0.00  0.00    +0.000 A 
ATOM     25  C   UNL     1       7.414   4.750  16.771  0.00  0.00    +0.000 A 
ATOM     26  C   UNL     1       6.901   4.679  15.481  0.00  0.00    +0.000 A 
ATOM     27  C   UNL     1       5.572   4.315  15.299  0.00  0.00    +0.000 A 
ATOM     28  F   UNL     1       5.075   4.243  14.057  0.00  0.00    +0.000 F 
ATOM     29  C   UNL     1       4.741   4.039  16.382  0.00  0.00    +0.000 A 
ENDBRANCH  21  23
ENDBRANCH  18  20
ENDBRANCH  17  18
ENDBRANCH  16  17
ENDBRANCH   1  16
TORSDOF 8
ENDMDL
MODEL 7
REMARK VINA RESULT:      -6.9      6.291      8.331
REMARK  Name = 
REMARK  8 active torsions:
REMARK  status: ('A' for Active; 'I' for Inactive)
REMARK    1  A    between atoms: C_2  and  C_3
REMARK    2  A    between atoms: C_3  and  O_4
REMARK    3  A    between atoms: O_4  and  C_5
REMARK    4  A    between atoms: C_5  and  C_6
REMARK    5  A    between atoms: N_8  and  C_9
REMARK    6  A    between atoms: C_15  and  C_16
REMARK    7  A    between atoms: C_16  and  O_18
REMARK    8  A    between atoms: N_19  and  C_20
REMARK                            x       y       z     vdW  Elec       q    Type
REMARK                         _______ _______ _______ _____ _____    ______ ____
ROOT
ATOM      1  C   UNL     1       7.378   7.460  17.909  0.00  0.00    +0.000 C 
ATOM      2  O   UNL     1       7.787   6.625  18.713  0.00  0.00    +0.000 OA
ATOM      3  N   UNL     1       6.253   7.346  17.110  0.00  0.00    +0.000 N 
ATOM      4  H   UNL     1       6.196   8.023  16.343  0.00  0.00    +0.000 HD
ENDROOT
BRANCH   3   5
ATOM      5  C   UNL     1       5.362   6.244  17.088  0.00  0.00    +0.000 A 
ATOM      6  C   UNL     1       4.057   6.367  17.588  0.00  0.00    +0.000 A 
ATOM      7  C   UNL     1       3.195   5.270  17.653  0.00  0.00    +0.000 A 
ATOM      8  C   UNL     1       3.629   4.028  17.215  0.00  0.00    +0.000 A 
ATOM      9 CL   UNL     1       2.586   2.668  17.343  0.00  0.00    +0.000 Cl
ATOM     10  C   UNL     1       4.901   3.880  16.669  0.00  0.00    +0.000 A 
ATOM     11  C   UNL     1       5.759   4.992  16.570  0.00  0.00    +0.000 A 
BRANCH  11  12
ATOM     12  C   UNL     1       7.109   4.808  15.974  0.00  0.00    +0.000 C 
ATOM     13  O   UNL     1       7.398   5.195  14.854  0.00  0.00    +0.000 OA
BRANCH  12  14
ATOM     14  O   UNL     1       7.969   4.119  16.757  0.00  0.00    +0.000 OA
ATOM     15  H   UNL     1       7.772   4.115  17.713  0.00  0.00    +0.000 HD
ENDBRANCH  12  14
ENDBRANCH  11  12
ENDBRANCH   3   5
BRANCH   1  16
ATOM     16  C   UNL     1       8.164   8.752  17.710  0.00  0.00    +0.000 C 
BRANCH  16  17
ATOM     17  O   UNL     1       9.171   8.987  18.692  0.00  0.00    +0.000 OA
BRANCH  17  18
ATOM     18  C   UNL     1       8.907  10.194  19.405  0.00  0.00    +0.000 C 
BRANCH  18  20
ATOM     19  O   UNL     1      11.040  11.302  19.343  0.00  0.00    +0.000 OA
ATOM     20  C   UNL     1       9.850  11.347  19.045  0.00  0.00    +0.000 C 
ATOM     21  N   UNL     1       9.202  12.376  18.380  0.00  0.00    +0.000 N 
ATOM     22  H   UNL     1       8.187  12.328  18.347  0.00  0.00    +0.000 HD
BRANCH  21  23
ATOM     23  C   UNL     1       9.807  13.534  17.853  0.00  0.00    +0.000 A 
ATOM     24  C   UNL     1      10.983  13.503  17.095  0.00  0.00    +0.000 A 
ATOM     25  C   UNL     1      11.570  14.687  16.638  0.00  0.00    +0.000 A 
ATOM     26  C   UNL     1      10.983  15.912  16.936  0.00  0.00    +0.000 A 
ATOM     27  C   UNL     1       9.796  15.938  17.656  0.00  0.00    +0.000 A 
ATOM     28  F   UNL     1       9.227  17.117  17.943  0.00  0.00    +0.000 F 
ATOM     29  C   UNL     1       9.193  14.764  18.102  0.00  0.00    +0.000 A 
ENDBRANCH  21  23
ENDBRANCH  18  20
ENDBRANCH  17  18
ENDBRANCH  16  17
ENDBRANCH   1  16
TORSDOF 8
ENDMDL
MODEL 8
REMARK VINA RESULT:      -6.8      6.157      8.225
REMARK  Name = 
REMARK  8 active torsions:
REMARK  status: ('A' for Active; 'I' for Inactive)
REMARK    1  A    between atoms: C_2  and  C_3
REMARK    2  A    between atoms: C_3  and  O_4
REMARK    3  A    between atoms: O_4  and  C_5
REMARK    4  A    between atoms: C_5  and  C_6
REMARK    5  A    between atoms: N_8  and  C_9
REMARK    6  A    between atoms: C_15  and  C_16
REMARK    7  A    between atoms: C_16  and  O_18
REMARK    8  A    between atoms: N_19  and  C_20
REMARK                            x       y       z     vdW  Elec       q    Type
REMARK                         _______ _______ _______ _____ _____    ______ ____
ROOT
ATOM      1  C   UNL     1       8.919  10.218  18.721  0.00  0.00    +0.000 C 
ATOM      2  O   UNL     1       9.404   9.750  19.749  0.00  0.00    +0.000 OA
ATOM      3  N   UNL     1       8.955  11.546  18.330  0.00  0.00    +0.000 N 
ATOM      4  H   UNL     1       8.308  11.793  17.574  0.00  0.00    +0.000 HD
ENDROOT
BRANCH   3   5
ATOM      5  C   UNL     1       9.573  12.603  19.044  0.00  0.00    +0.000 A 
ATOM      6  C   UNL     1       9.029  13.067  20.250  0.00  0.00    +0.000 A 
ATOM      7  C   UNL     1       9.575  14.163  20.922  0.00  0.00    +0.000 A 
ATOM      8  C   UNL     1      10.679  14.813  20.393  0.00  0.00    +0.000 A 
ATOM      9 CL   UNL     1      11.318  16.194  21.192  0.00  0.00    +0.000 Cl
ATOM     10  C   UNL     1      11.273  14.350  19.222  0.00  0.00    +0.000 A 
ATOM     11  C   UNL     1      10.746  13.224  18.562  0.00  0.00    +0.000 A 
BRANCH  11  12
ATOM     12  C   UNL     1      11.406  12.745  17.319  0.00  0.00    +0.000 C 
ATOM     13  O   UNL     1      11.430  13.397  16.287  0.00  0.00    +0.000 OA
BRANCH  12  14
ATOM     14  O   UNL     1      11.923  11.500  17.411  0.00  0.00    +0.000 OA
ATOM     15  H   UNL     1      11.728  10.896  16.670  0.00  0.00    +0.000 HD
ENDBRANCH  12  14
ENDBRANCH  11  12
ENDBRANCH   3   5
BRANCH   1  16
ATOM     16  C   UNL     1       8.169   9.299  17.762  0.00  0.00    +0.000 C 
BRANCH  16  17
ATOM     17  O   UNL     1       7.984   7.969  18.244  0.00  0.00    +0.000 OA
BRANCH  17  18
ATOM     18  C   UNL     1       7.249   7.191  17.302  0.00  0.00    +0.000 C 
BRANCH  18  20
ATOM     19  O   UNL     1       6.516   5.729  19.065  0.00  0.00    +0.000 OA
ATOM     20  C   UNL     1       6.296   6.177  17.943  0.00  0.00    +0.000 C 
ATOM     21  N   UNL     1       5.224   5.863  17.124  0.00  0.00    +0.000 N 
ATOM     22  H   UNL     1       5.268   6.201  16.166  0.00  0.00    +0.000 HD
BRANCH  21  23
ATOM     23  C   UNL     1       4.141   5.025  17.458  0.00  0.00    +0.000 A 
ATOM     24  C   UNL     1       2.900   5.513  17.882  0.00  0.00    +0.000 A 
ATOM     25  C   UNL     1       1.875   4.636  18.251  0.00  0.00    +0.000 A 
ATOM     26  C   UNL     1       2.084   3.263  18.196  0.00  0.00    +0.000 A 
ATOM     27  C   UNL     1       3.304   2.780  17.739  0.00  0.00    +0.000 A 
ATOM     28  F   UNL     1       3.507   1.457  17.684  0.00  0.00    +0.000 F 
ATOM     29  C   UNL     1       4.326   3.644  17.353  0.00  0.00    +0.000 A 
ENDBRANCH  21  23
ENDBRANCH  18  20
ENDBRANCH  17  18
ENDBRANCH  16  17
ENDBRANCH   1  16
TORSDOF 8
ENDMDL
MODEL 9
REMARK VINA RESULT:      -6.8      1.099      1.640
REMARK  Name = 
REMARK  8 active torsions:
REMARK  status: ('A' for Active; 'I' for Inactive)
REMARK    1  A    between atoms: C_2  and  C_3
REMARK    2  A    between atoms: C_3  and  O_4
REMARK    3  A    between atoms: O_4  and  C_5
REMARK    4  A    between atoms: C_5  and  C_6
REMARK    5  A    between atoms: N_8  and  C_9
REMARK    6  A    between atoms: C_15  and  C_16
REMARK    7  A    between atoms: C_16  and  O_18
REMARK    8  A    between atoms: N_19  and  C_20
REMARK                            x       y       z     vdW  Elec       q    Type
REMARK                         _______ _______ _______ _____ _____    ______ ____
ROOT
ATOM      1  C   UNL     1       1.601   4.512  20.768  0.00  0.00    +0.000 C 
ATOM      2  O   UNL     1       0.521   4.384  20.194  0.00  0.00    +0.000 OA
ATOM      3  N   UNL     1       2.290   5.697  20.961  0.00  0.00    +0.000 N 
ATOM      4  H   UNL     1       3.269   5.588  21.247  0.00  0.00    +0.000 HD
ENDROOT
BRANCH   3   5
ATOM      5  C   UNL     1       1.864   6.981  20.539  0.00  0.00    +0.000 A 
ATOM      6  C   UNL     1       0.981   7.737  21.323  0.00  0.00    +0.000 A 
ATOM      7  C   UNL     1       0.484   8.966  20.883  0.00  0.00    +0.000 A 
ATOM      8  C   UNL     1       0.867   9.458  19.645  0.00  0.00    +0.000 A 
ATOM      9 CL   UNL     1       0.215  10.945  19.081  0.00  0.00    +0.000 Cl
ATOM     10  C   UNL     1       1.779   8.756  18.861  0.00  0.00    +0.000 A 
ATOM     11  C   UNL     1       2.309   7.535  19.319  0.00  0.00    +0.000 A 
BRANCH  11  12
ATOM     12  C   UNL     1       3.288   6.811  18.465  0.00  0.00    +0.000 C 
ATOM     13  O   UNL     1       3.303   6.903  17.249  0.00  0.00    +0.000 OA
BRANCH  12  14
ATOM     14  O   UNL     1       4.119   5.995  19.149  0.00  0.00    +0.000 OA
ATOM     15  H   UNL     1       4.765   6.432  19.736  0.00  0.00    +0.000 HD
ENDBRANCH  12  14
ENDBRANCH  11  12
ENDBRANCH   3   5
BRANCH   1  16
ATOM     16  C   UNL     1       2.307   3.275  21.314  0.00  0.00    +0.000 C 
BRANCH  16  17
ATOM     17  O   UNL     1       3.448   2.867  20.562  0.00  0.00    +0.000 OA
BRANCH  17  18
ATOM     18  C   UNL     1       3.051   2.269  19.330  0.00  0.00    +0.000 C 
BRANCH  18  20
ATOM     19  O   UNL     1       2.615   3.610  17.382  0.00  0.00    +0.000 OA
ATOM     20  C   UNL     1       3.461   3.070  18.089  0.00  0.00    +0.000 C 
ATOM     21  N   UNL     1       4.833   3.090  17.899  0.00  0.00    +0.000 N 
ATOM     22  H   UNL     1       5.384   2.467  18.485  0.00  0.00    +0.000 HD
BRANCH  21  23
ATOM     23  C   UNL     1       5.522   3.801  16.896  0.00  0.00    +0.000 A 
ATOM     24  C   UNL     1       5.503   3.431  15.547  0.00  0.00    +0.000 A 
ATOM     25  C   UNL     1       6.246   4.142  14.600  0.00  0.00    +0.000 A 
ATOM     26  C   UNL     1       7.014   5.231  14.996  0.00  0.00    +0.000 A 
ATOM     27  C   UNL     1       7.002   5.620  16.330  0.00  0.00    +0.000 A 
ATOM     28  F   UNL     1       7.739   6.670  16.714  0.00  0.00    +0.000 F 
ATOM     29  C   UNL     1       6.252   4.930  17.279  0.00  0.00    +0.000 A 
ENDBRANCH  21  23
ENDBRANCH  18  20
ENDBRANCH  17  18
ENDBRANCH  16  17
ENDBRANCH   1  16
TORSDOF 8
ENDMDL
