MODEL 1
REMARK VINA RESULT:      -7.8      0.000      0.000
REMARK  Name = 
REMARK  7 active torsions:
REMARK  status: ('A' for Active; 'I' for Inactive)
REMARK    1  A    between atoms: C_1  and  C_2
REMARK    2  A    between atoms: C_2  and  CA_3
REMARK    3  A    between atoms: CA_3  and  C_4
REMARK    4  A    between atoms: CA_3  and  N_7
REMARK    5  A    between atoms: C_4  and  OXT_6
REMARK    6  A    between atoms: C_11  and  C_12
REMARK    7  A    between atoms: C_15  and  C_16
REMARK                            x       y       z     vdW  Elec       q    Type
REMARK                         _______ _______ _______ _____ _____    ______ ____
ROOT
ATOM      1  N   UNL     1       3.319   5.017  18.766  0.00  0.00    +0.000 N 
ATOM      2  C   UNL     1       2.539   6.147  18.862  0.00  0.00    +0.000 C 
ATOM      3  O   UNL     1       1.491   6.243  19.480  0.00  0.00    +0.000 OA
ATOM      4  CA  UNL     1       3.163   7.149  17.946  0.00  0.00    +0.000 C 
ATOM      5  C   UNL     1       2.790   8.412  17.721  0.00  0.00    +0.000 C 
ATOM      6  N   UNL     1       4.224   6.517  17.362  0.00  0.00    +0.000 N 
ATOM      7  C   UNL     1       4.343   5.223  17.856  0.00  0.00    +0.000 C 
ATOM      8  S   UNL     1       5.565   4.209  17.385  0.00  0.00    +0.000 S 
ATOM      9  H   UNL     1       4.863   6.919  16.689  0.00  0.00    +0.000 HD
ENDROOT
BRANCH   5  10
ATOM     10  C   UNL     1       1.724   9.006  18.442  0.00  0.00    +0.000 A 
ATOM     11  C   UNL     1       1.625   9.307  19.793  0.00  0.00    +0.000 A 
ATOM     12  C   UNL     1       0.362   9.913  20.005  0.00  0.00    +0.000 A 
ATOM     13  C   UNL     1      -0.255   9.976  18.774  0.00  0.00    +0.000 A 
ATOM     14  O   UNL     1       0.557   9.406  17.836  0.00  0.00    +0.000 OA
BRANCH  13  15
ATOM     15  C   UNL     1      -1.518  10.533  18.290  0.00  0.00    +0.000 A 
ATOM     16  C   UNL     1      -2.303  11.372  19.094  0.00  0.00    +0.000 A 
ATOM     17  C   UNL     1      -3.535  11.860  18.641  0.00  0.00    +0.000 A 
ATOM     18  C   UNL     1      -4.002  11.514  17.371  0.00  0.00    +0.000 A 
ATOM     19 CL   UNL     1      -5.545  12.120  16.885  0.00  0.00    +0.000 Cl
ATOM     20  C   UNL     1      -3.226  10.692  16.553  0.00  0.00    +0.000 A 
ATOM     21 CL   UNL     1      -3.732  10.214  14.970  0.00  0.00    +0.000 Cl
ATOM     22  C   UNL     1      -1.991  10.211  17.010  0.00  0.00    +0.000 A 
ENDBRANCH  13  15
ENDBRANCH   5  10
BRANCH   1  23
ATOM     23  CA  UNL     1       2.974   3.765  19.457  0.00  0.00    +0.000 C 
BRANCH  23  25
ATOM     24  C   UNL     1       2.005   2.651  21.548  0.00  0.00    +0.000 C 
ATOM     25  C   UNL     1       2.234   3.951  20.793  0.00  0.00    +0.000 C 
ENDBRANCH  23  25
BRANCH  23  26
ATOM     26  C   UNL     1       2.148   2.877  18.518  0.00  0.00    +0.000 C 
ATOM     27  O   UNL     1       1.097   3.242  18.007  0.00  0.00    +0.000 OA
BRANCH  26  28
ATOM     28  OXT UNL     1       2.665   1.654  18.256  0.00  0.00    +0.000 OA
ATOM     29  HXT UNL     1       3.606   1.521  18.534  0.00  0.00    +0.000 HD
ENDBRANCH  26  28
ENDBRANCH  23  26
ENDBRANCH   1  23
TORSDOF 6
ENDMDL
MODEL 2
REMARK VINA RESULT:      -7.6      4.610      8.498
REMARK  Name = 
REMARK  7 active torsions:
REMARK  status: ('A' for Active; 'I' for Inactive)
REMARK    1  A    between atoms: C_1  and  C_2
REMARK    2  A    between atoms: C_2  and  CA_3
REMARK    3  A    between atoms: CA_3  and  C_4
REMARK    4  A    between atoms: CA_3  and  N_7
REMARK    5  A    between atoms: C_4  and  OXT_6
REMARK    6  A    between atoms: C_11  and  C_12
REMARK    7  A    between atoms: C_15  and  C_16
REMARK                            x       y       z     vdW  Elec       q    Type
REMARK                         _______ _______ _______ _____ _____    ______ ____
ROOT
ATOM      1  N   UNL     1       1.266   8.749  19.378  0.00  0.00    +0.000 N 
ATOM      2  C   UNL     1       1.715   7.537  18.902  0.00  0.00    +0.000 C 
ATOM      3  O   UNL     1       1.665   7.160  17.742  0.00  0.00    +0.000 OA
ATOM      4  CA  UNL     1       2.124   6.755  20.109  0.00  0.00    +0.000 C 
ATOM      5  C   UNL     1       2.657   5.532  20.161  0.00  0.00    +0.000 C 
ATOM      6  N   UNL     1       1.845   7.549  21.185  0.00  0.00    +0.000 N 
ATOM      7  C   UNL     1       1.334   8.770  20.762  0.00  0.00    +0.000 C 
ATOM      8  S   UNL     1       0.942   9.978  21.825  0.00  0.00    +0.000 S 
ATOM      9  H   UNL     1       2.006   7.317  22.156  0.00  0.00    +0.000 HD
ENDROOT
BRANCH   5  10
ATOM     10  C   UNL     1       2.989   4.820  18.981  0.00  0.00    +0.000 A 
ATOM     11  C   UNL     1       2.341   3.754  18.374  0.00  0.00    +0.000 A 
ATOM     12  C   UNL     1       3.066   3.422  17.203  0.00  0.00    +0.000 A 
ATOM     13  C   UNL     1       4.119   4.309  17.129  0.00  0.00    +0.000 A 
ATOM     14  O   UNL     1       4.086   5.136  18.214  0.00  0.00    +0.000 OA
BRANCH  13  15
ATOM     15  C   UNL     1       5.183   4.554  16.156  0.00  0.00    +0.000 A 
ATOM     16  C   UNL     1       6.232   5.445  16.428  0.00  0.00    +0.000 A 
ATOM     17  C   UNL     1       7.219   5.710  15.471  0.00  0.00    +0.000 A 
ATOM     18  C   UNL     1       7.172   5.088  14.222  0.00  0.00    +0.000 A 
ATOM     19 CL   UNL     1       8.398   5.486  13.073  0.00  0.00    +0.000 Cl
ATOM     20  C   UNL     1       6.142   4.188  13.941  0.00  0.00    +0.000 A 
ATOM     21 CL   UNL     1       6.008   3.379  12.419  0.00  0.00    +0.000 Cl
ATOM     22  C   UNL     1       5.159   3.922  14.905  0.00  0.00    +0.000 A 
ENDBRANCH  13  15
ENDBRANCH   5  10
BRANCH   1  23
ATOM     23  CA  UNL     1       0.687   9.772  18.494  0.00  0.00    +0.000 C 
BRANCH  23  25
ATOM     24  C   UNL     1      -1.658  10.489  17.758  0.00  0.00    +0.000 C 
ATOM     25  C   UNL     1      -0.699  10.282  18.921  0.00  0.00    +0.000 C 
ENDBRANCH  23  25
BRANCH  23  26
ATOM     26  C   UNL     1       1.664  10.948  18.370  0.00  0.00    +0.000 C 
ATOM     27  O   UNL     1       1.647  11.912  19.125  0.00  0.00    +0.000 OA
BRANCH  26  28
ATOM     28  OXT UNL     1       2.583  10.851  17.381  0.00  0.00    +0.000 OA
ATOM     29  HXT UNL     1       2.373  11.352  16.554  0.00  0.00    +0.000 HD
ENDBRANCH  26  28
ENDBRANCH  23  26
ENDBRANCH   1  23
TORSDOF 6
ENDMDL
MODEL 3
REMARK VINA RESULT:      -7.6      6.394      8.530
REMARK  Name = 
REMARK  7 active torsions:
REMARK  status: ('A' for Active; 'I' for Inactive)
REMARK    1  A    between atoms: C_1  and  C_2
REMARK    2  A    between atoms: C_2  and  CA_3
REMARK    3  A    between atoms: CA_3  and  C_4
REMARK    4  A    between atoms: CA_3  and  N_7
REMARK    5  A    between atoms: C_4  and  OXT_6
REMARK    6  A    between atoms: C_11  and  C_12
REMARK    7  A    between atoms: C_15  and  C_16
REMARK                            x       y       z     vdW  Elec       q    Type
REMARK                         _______ _______ _______ _____ _____    ______ ____
ROOT
ATOM      1  N   UNL     1       3.932   4.840  19.063  0.00  0.00    +0.000 N 
ATOM      2  C   UNL     1       4.882   5.730  18.614  0.00  0.00    +0.000 C 
ATOM      3  O   UNL     1       4.662   6.771  18.016  0.00  0.00    +0.000 OA
ATOM      4  CA  UNL     1       6.202   5.081  18.880  0.00  0.00    +0.000 C 
ATOM      5  C   UNL     1       7.425   5.567  18.651  0.00  0.00    +0.000 C 
ATOM      6  N   UNL     1       5.920   3.858  19.420  0.00  0.00    +0.000 N 
ATOM      7  C   UNL     1       4.545   3.697  19.551  0.00  0.00    +0.000 C 
ATOM      8  S   UNL     1       3.877   2.339  20.222  0.00  0.00    +0.000 S 
ATOM      9  H   UNL     1       6.594   3.166  19.718  0.00  0.00    +0.000 HD
ENDROOT
BRANCH   5  10
ATOM     10  C   UNL     1       7.616   6.885  18.166  0.00  0.00    +0.000 A 
ATOM     11  C   UNL     1       7.084   7.505  17.045  0.00  0.00    +0.000 A 
ATOM     12  C   UNL     1       7.570   8.835  17.020  0.00  0.00    +0.000 A 
ATOM     13  C   UNL     1       8.366   8.983  18.135  0.00  0.00    +0.000 A 
ATOM     14  O   UNL     1       8.413   7.800  18.813  0.00  0.00    +0.000 OA
BRANCH  13  15
ATOM     15  C   UNL     1       9.100  10.102  18.727  0.00  0.00    +0.000 A 
ATOM     16  C   UNL     1       9.124  10.309  20.114  0.00  0.00    +0.000 A 
ATOM     17  C   UNL     1       9.787  11.411  20.667  0.00  0.00    +0.000 A 
ATOM     18  C   UNL     1      10.438  12.327  19.839  0.00  0.00    +0.000 A 
ATOM     19 CL   UNL     1      11.207  13.684  20.581  0.00  0.00    +0.000 Cl
ATOM     20  C   UNL     1      10.436  12.127  18.457  0.00  0.00    +0.000 A 
ATOM     21 CL   UNL     1      11.215  13.215  17.361  0.00  0.00    +0.000 Cl
ATOM     22  C   UNL     1       9.775  11.019  17.909  0.00  0.00    +0.000 A 
ENDBRANCH  13  15
ENDBRANCH   5  10
BRANCH   1  23
ATOM     23  CA  UNL     1       2.491   5.080  18.893  0.00  0.00    +0.000 C 
BRANCH  23  25
ATOM     24  C   UNL     1       2.764   3.459  16.930  0.00  0.00    +0.000 C 
ATOM     25  C   UNL     1       1.799   4.153  17.880  0.00  0.00    +0.000 C 
ENDBRANCH  23  25
BRANCH  23  26
ATOM     26  C   UNL     1       1.795   4.981  20.257  0.00  0.00    +0.000 C 
ATOM     27  O   UNL     1       0.872   4.207  20.480  0.00  0.00    +0.000 OA
BRANCH  26  28
ATOM     28  OXT UNL     1       2.281   5.788  21.228  0.00  0.00    +0.000 OA
ATOM     29  HXT UNL     1       2.767   6.589  20.911  0.00  0.00    +0.000 HD
ENDBRANCH  26  28
ENDBRANCH  23  26
ENDBRANCH   1  23
TORSDOF 6
ENDMDL
MODEL 4
REMARK VINA RESULT:      -7.6      3.417      5.170
REMARK  Name = 
REMARK  7 active torsions:
REMARK  status: ('A' for Active; 'I' for Inactive)
REMARK    1  A    between atoms: C_1  and  C_2
REMARK    2  A    between atoms: C_2  and  CA_3
REMARK    3  A    between atoms: CA_3  and  C_4
REMARK    4  A    between atoms: CA_3  and  N_7
REMARK    5  A    between atoms: C_4  and  OXT_6
REMARK    6  A    between atoms: C_11  and  C_12
REMARK    7  A    between atoms: C_15  and  C_16
REMARK                            x       y       z     vdW  Elec       q    Type
REMARK                         _______ _______ _______ _____ _____    ______ ____
ROOT
ATOM      1  N   UNL     1       5.840   5.324  16.982  0.00  0.00    +0.000 N 
ATOM      2  C   UNL     1       4.818   5.344  17.904  0.00  0.00    +0.000 C 
ATOM      3  O   UNL     1       4.864   5.856  19.012  0.00  0.00    +0.000 OA
ATOM      4  CA  UNL     1       3.732   4.497  17.324  0.00  0.00    +0.000 C 
ATOM      5  C   UNL     1       2.524   4.239  17.830  0.00  0.00    +0.000 C 
ATOM      6  N   UNL     1       4.218   4.021  16.139  0.00  0.00    +0.000 N 
ATOM      7  C   UNL     1       5.494   4.521  15.907  0.00  0.00    +0.000 C 
ATOM      8  S   UNL     1       6.340   4.172  14.527  0.00  0.00    +0.000 S 
ATOM      9  H   UNL     1       3.729   3.416  15.493  0.00  0.00    +0.000 HD
ENDROOT
BRANCH   5  10
ATOM     10  C   UNL     1       2.079   4.852  19.028  0.00  0.00    +0.000 A 
ATOM     11  C   UNL     1       1.878   4.302  20.286  0.00  0.00    +0.000 A 
ATOM     12  C   UNL     1       1.449   5.343  21.145  0.00  0.00    +0.000 A 
ATOM     13  C   UNL     1       1.422   6.493  20.385  0.00  0.00    +0.000 A 
ATOM     14  O   UNL     1       1.778   6.192  19.103  0.00  0.00    +0.000 OA
BRANCH  13  15
ATOM     15  C   UNL     1       1.140   7.900  20.669  0.00  0.00    +0.000 A 
ATOM     16  C   UNL     1       0.621   8.307  21.907  0.00  0.00    +0.000 A 
ATOM     17  C   UNL     1       0.308   9.650  22.152  0.00  0.00    +0.000 A 
ATOM     18  C   UNL     1       0.508  10.609  21.158  0.00  0.00    +0.000 A 
ATOM     19 CL   UNL     1       0.068  12.242  21.510  0.00  0.00    +0.000 Cl
ATOM     20  C   UNL     1       1.037  10.223  19.925  0.00  0.00    +0.000 A 
ATOM     21 CL   UNL     1       1.312  11.347  18.641  0.00  0.00    +0.000 Cl
ATOM     22  C   UNL     1       1.354   8.878  19.687  0.00  0.00    +0.000 A 
ENDBRANCH  13  15
ENDBRANCH   5  10
BRANCH   1  23
ATOM     23  CA  UNL     1       7.136   5.974  17.233  0.00  0.00    +0.000 C 
BRANCH  23  25
ATOM     24  C   UNL     1       8.322   8.223  17.534  0.00  0.00    +0.000 C 
ATOM     25  C   UNL     1       7.041   7.427  17.728  0.00  0.00    +0.000 C 
ENDBRANCH  23  25
BRANCH  23  26
ATOM     26  C   UNL     1       7.943   5.132  18.228  0.00  0.00    +0.000 C 
ATOM     27  O   UNL     1       8.099   5.451  19.401  0.00  0.00    +0.000 OA
BRANCH  26  28
ATOM     28  OXT UNL     1       8.462   3.980  17.743  0.00  0.00    +0.000 OA
ATOM     29  HXT UNL     1       8.570   3.943  16.760  0.00  0.00    +0.000 HD
ENDBRANCH  26  28
ENDBRANCH  23  26
ENDBRANCH   1  23
TORSDOF 6
ENDMDL
MODEL 5
REMARK VINA RESULT:      -7.5      3.502      5.290
REMARK  Name = 
REMARK  7 active torsions:
REMARK  status: ('A' for Active; 'I' for Inactive)
REMARK    1  A    between atoms: C_1  and  C_2
REMARK    2  A    between atoms: C_2  and  CA_3
REMARK    3  A    between atoms: CA_3  and  C_4
REMARK    4  A    between atoms: CA_3  and  N_7
REMARK    5  A    between atoms: C_4  and  OXT_6
REMARK    6  A    between atoms: C_11  and  C_12
REMARK    7  A    between atoms: C_15  and  C_16
REMARK                            x       y       z     vdW  Elec       q    Type
REMARK                         _______ _______ _______ _____ _____    ______ ____
ROOT
ATOM      1  N   UNL     1       5.831   5.309  17.012  0.00  0.00    +0.000 N 
ATOM      2  C   UNL     1       4.796   5.366  17.918  0.00  0.00    +0.000 C 
ATOM      3  O   UNL     1       4.826   5.919  19.006  0.00  0.00    +0.000 OA
ATOM      4  CA  UNL     1       3.717   4.499  17.354  0.00  0.00    +0.000 C 
ATOM      5  C   UNL     1       2.500   4.262  17.852  0.00  0.00    +0.000 C 
ATOM      6  N   UNL     1       4.218   3.977  16.195  0.00  0.00    +0.000 N 
ATOM      7  C   UNL     1       5.499   4.467  15.963  0.00  0.00    +0.000 C 
ATOM      8  S   UNL     1       6.364   4.065  14.610  0.00  0.00    +0.000 S 
ATOM      9  H   UNL     1       3.738   3.349  15.565  0.00  0.00    +0.000 HD
ENDROOT
BRANCH   5  10
ATOM     10  C   UNL     1       2.039   4.921  19.019  0.00  0.00    +0.000 A 
ATOM     11  C   UNL     1       1.863   4.429  20.305  0.00  0.00    +0.000 A 
ATOM     12  C   UNL     1       1.402   5.498  21.112  0.00  0.00    +0.000 A 
ATOM     13  C   UNL     1       1.331   6.606  20.294  0.00  0.00    +0.000 A 
ATOM     14  O   UNL     1       1.692   6.251  19.027  0.00  0.00    +0.000 OA
BRANCH  13  15
ATOM     15  C   UNL     1       1.002   8.015  20.507  0.00  0.00    +0.000 A 
ATOM     16  C   UNL     1       1.378   9.002  19.584  0.00  0.00    +0.000 A 
ATOM     17  C   UNL     1       1.102  10.353  19.820  0.00  0.00    +0.000 A 
ATOM     18  C   UNL     1       0.444  10.742  20.989  0.00  0.00    +0.000 A 
ATOM     19 CL   UNL     1       0.166  12.428  21.238  0.00  0.00    +0.000 Cl
ATOM     20  C   UNL     1       0.050   9.770  21.911  0.00  0.00    +0.000 A 
ATOM     21 CL   UNL     1      -0.765  10.167  23.384  0.00  0.00    +0.000 Cl
ATOM     22  C   UNL     1       0.324   8.417  21.667  0.00  0.00    +0.000 A 
ENDBRANCH  13  15
ENDBRANCH   5  10
BRANCH   1  23
ATOM     23  CA  UNL     1       7.124   5.967  17.257  0.00  0.00    +0.000 C 
BRANCH  23  25
ATOM     24  C   UNL     1       8.279   8.240  17.490  0.00  0.00    +0.000 C 
ATOM     25  C   UNL     1       7.023   7.421  17.747  0.00  0.00    +0.000 C 
ENDBRANCH  23  25
BRANCH  23  26
ATOM     26  C   UNL     1       7.939   5.132  18.253  0.00  0.00    +0.000 C 
ATOM     27  O   UNL     1       8.091   5.454  19.426  0.00  0.00    +0.000 OA
BRANCH  26  28
ATOM     28  OXT UNL     1       8.467   3.985  17.769  0.00  0.00    +0.000 OA
ATOM     29  HXT UNL     1       8.567   3.252  18.427  0.00  0.00    +0.000 HD
ENDBRANCH  26  28
ENDBRANCH  23  26
ENDBRANCH   1  23
TORSDOF 6
ENDMDL
MODEL 6
REMARK VINA RESULT:      -7.5      0.646      1.422
REMARK  Name = 
REMARK  7 active torsions:
REMARK  status: ('A' for Active; 'I' for Inactive)
REMARK    1  A    between atoms: C_1  and  C_2
REMARK    2  A    between atoms: C_2  and  CA_3
REMARK    3  A    between atoms: CA_3  and  C_4
REMARK    4  A    between atoms: CA_3  and  N_7
REMARK    5  A    between atoms: C_4  and  OXT_6
REMARK    6  A    between atoms: C_11  and  C_12
REMARK    7  A    between atoms: C_15  and  C_16
REMARK                            x       y       z     vdW  Elec       q    Type
REMARK                         _______ _______ _______ _____ _____    ______ ____
ROOT
ATOM      1  N   UNL     1       3.306   4.947  18.659  0.00  0.00    +0.000 N 
ATOM      2  C   UNL     1       2.547   6.089  18.782  0.00  0.00    +0.000 C 
ATOM      3  O   UNL     1       1.506   6.193  19.412  0.00  0.00    +0.000 OA
ATOM      4  CA  UNL     1       3.180   7.096  17.877  0.00  0.00    +0.000 C 
ATOM      5  C   UNL     1       2.826   8.369  17.678  0.00  0.00    +0.000 C 
ATOM      6  N   UNL     1       4.225   6.456  17.272  0.00  0.00    +0.000 N 
ATOM      7  C   UNL     1       4.325   5.152  17.743  0.00  0.00    +0.000 C 
ATOM      8  S   UNL     1       5.525   4.125  17.243  0.00  0.00    +0.000 S 
ATOM      9  H   UNL     1       4.864   6.859  16.601  0.00  0.00    +0.000 HD
ENDROOT
BRANCH   5  10
ATOM     10  C   UNL     1       1.778   8.968  18.419  0.00  0.00    +0.000 A 
ATOM     11  C   UNL     1       1.730   9.328  19.758  0.00  0.00    +0.000 A 
ATOM     12  C   UNL     1       0.462   9.912  20.000  0.00  0.00    +0.000 A 
ATOM     13  C   UNL     1      -0.210   9.903  18.796  0.00  0.00    +0.000 A 
ATOM     14  O   UNL     1       0.575   9.312  17.849  0.00  0.00    +0.000 OA
BRANCH  13  15
ATOM     15  C   UNL     1      -1.507  10.406  18.346  0.00  0.00    +0.000 A 
ATOM     16  C   UNL     1      -2.006  10.104  17.070  0.00  0.00    +0.000 A 
ATOM     17  C   UNL     1      -3.226  10.630  16.629  0.00  0.00    +0.000 A 
ATOM     18  C   UNL     1      -3.968  11.472  17.459  0.00  0.00    +0.000 A 
ATOM     19 CL   UNL     1      -5.447  12.118  16.843  0.00  0.00    +0.000 Cl
ATOM     20  C   UNL     1      -3.493  11.772  18.738  0.00  0.00    +0.000 A 
ATOM     21 CL   UNL     1      -4.348  12.807  19.826  0.00  0.00    +0.000 Cl
ATOM     22  C   UNL     1      -2.273  11.237  19.176  0.00  0.00    +0.000 A 
ENDBRANCH  13  15
ENDBRANCH   5  10
BRANCH   1  23
ATOM     23  CA  UNL     1       2.946   3.690  19.332  0.00  0.00    +0.000 C 
BRANCH  23  25
ATOM     24  C   UNL     1       2.251   2.601  21.542  0.00  0.00    +0.000 C 
ATOM     25  C   UNL     1       2.257   3.865  20.696  0.00  0.00    +0.000 C 
ENDBRANCH  23  25
BRANCH  23  26
ATOM     26  C   UNL     1       2.061   2.851  18.401  0.00  0.00    +0.000 C 
ATOM     27  O   UNL     1       0.883   3.110  18.187  0.00  0.00    +0.000 OA
BRANCH  26  28
ATOM     28  OXT UNL     1       2.668   1.805  17.794  0.00  0.00    +0.000 OA
ATOM     29  HXT UNL     1       3.328   2.044  17.095  0.00  0.00    +0.000 HD
ENDBRANCH  26  28
ENDBRANCH  23  26
ENDBRANCH   1  23
TORSDOF 6
ENDMDL
MODEL 7
REMARK VINA RESULT:      -7.5      4.884      8.566
REMARK  Name = 
REMARK  7 active torsions:
REMARK  status: ('A' for Active; 'I' for Inactive)
REMARK    1  A    between atoms: C_1  and  C_2
REMARK    2  A    between atoms: C_2  and  CA_3
REMARK    3  A    between atoms: CA_3  and  C_4
REMARK    4  A    between atoms: CA_3  and  N_7
REMARK    5  A    between atoms: C_4  and  OXT_6
REMARK    6  A    between atoms: C_11  and  C_12
REMARK    7  A    between atoms: C_15  and  C_16
REMARK                            x       y       z     vdW  Elec       q    Type
REMARK                         _______ _______ _______ _____ _____    ______ ____
ROOT
ATOM      1  N   UNL     1      -2.191  11.323  18.445  0.00  0.00    +0.000 N 
ATOM      2  C   UNL     1      -1.108  10.477  18.371  0.00  0.00    +0.000 C 
ATOM      3  O   UNL     1      -0.860   9.708  17.456  0.00  0.00    +0.000 OA
ATOM      4  CA  UNL     1      -0.410  10.598  19.687  0.00  0.00    +0.000 C 
ATOM      5  C   UNL     1       0.715   9.999  20.086  0.00  0.00    +0.000 C 
ATOM      6  N   UNL     1      -1.158  11.466  20.433  0.00  0.00    +0.000 N 
ATOM      7  C   UNL     1      -2.239  11.927  19.690  0.00  0.00    +0.000 C 
ATOM      8  S   UNL     1      -3.312  13.035  20.293  0.00  0.00    +0.000 S 
ATOM      9  H   UNL     1      -0.958  11.768  21.377  0.00  0.00    +0.000 HD
ENDROOT
BRANCH   5  10
ATOM     10  C   UNL     1       1.467   9.180  19.207  0.00  0.00    +0.000 A 
ATOM     11  C   UNL     1       2.211   9.528  18.088  0.00  0.00    +0.000 A 
ATOM     12  C   UNL     1       2.789   8.342  17.574  0.00  0.00    +0.000 A 
ATOM     13  C   UNL     1       2.393   7.318  18.407  0.00  0.00    +0.000 A 
ATOM     14  O   UNL     1       1.576   7.821  19.377  0.00  0.00    +0.000 OA
BRANCH  13  15
ATOM     15  C   UNL     1       2.685   5.886  18.479  0.00  0.00    +0.000 A 
ATOM     16  C   UNL     1       3.584   5.277  17.592  0.00  0.00    +0.000 A 
ATOM     17  C   UNL     1       3.820   3.898  17.636  0.00  0.00    +0.000 A 
ATOM     18  C   UNL     1       3.156   3.103  18.573  0.00  0.00    +0.000 A 
ATOM     19 CL   UNL     1       3.463   1.403  18.552  0.00  0.00    +0.000 Cl
ATOM     20  C   UNL     1       2.269   3.696  19.473  0.00  0.00    +0.000 A 
ATOM     21 CL   UNL     1       1.405   2.783  20.660  0.00  0.00    +0.000 Cl
ATOM     22  C   UNL     1       2.041   5.078  19.427  0.00  0.00    +0.000 A 
ENDBRANCH  13  15
ENDBRANCH   5  10
BRANCH   1  23
ATOM     23  CA  UNL     1      -3.186  11.418  17.365  0.00  0.00    +0.000 C 
BRANCH  23  25
ATOM     24  C   UNL     1      -3.605  10.412  15.048  0.00  0.00    +0.000 C 
ATOM     25  C   UNL     1      -2.633  11.152  15.955  0.00  0.00    +0.000 C 
ENDBRANCH  23  25
BRANCH  23  26
ATOM     26  C   UNL     1      -4.350  10.462  17.661  0.00  0.00    +0.000 C 
ATOM     27  O   UNL     1      -4.186   9.308  18.038  0.00  0.00    +0.000 OA
BRANCH  26  28
ATOM     28  OXT UNL     1      -5.591  10.979  17.509  0.00  0.00    +0.000 OA
ATOM     29  HXT UNL     1      -5.779  11.797  18.033  0.00  0.00    +0.000 HD
ENDBRANCH  26  28
ENDBRANCH  23  26
ENDBRANCH   1  23
TORSDOF 6
ENDMDL
MODEL 8
REMARK VINA RESULT:      -7.5      1.613      2.650
REMARK  Name = 
REMARK  7 active torsions:
REMARK  status: ('A' for Active; 'I' for Inactive)
REMARK    1  A    between atoms: C_1  and  C_2
REMARK    2  A    between atoms: C_2  and  CA_3
REMARK    3  A    between atoms: CA_3  and  C_4
REMARK    4  A    between atoms: CA_3  and  N_7
REMARK    5  A    between atoms: C_4  and  OXT_6
REMARK    6  A    between atoms: C_11  and  C_12
REMARK    7  A    between atoms: C_15  and  C_16
REMARK                            x       y       z     vdW  Elec       q    Type
REMARK                         _______ _______ _______ _____ _____    ______ ____
ROOT
ATOM      1  N   UNL     1       2.429   4.598  19.066  0.00  0.00    +0.000 N 
ATOM      2  C   UNL     1       2.120   5.927  18.883  0.00  0.00    +0.000 C 
ATOM      3  O   UNL     1       2.018   6.498  17.808  0.00  0.00    +0.000 OA
ATOM      4  CA  UNL     1       2.091   6.528  20.251  0.00  0.00    +0.000 C 
ATOM      5  C   UNL     1       1.802   7.785  20.598  0.00  0.00    +0.000 C 
ATOM      6  N   UNL     1       2.421   5.521  21.113  0.00  0.00    +0.000 N 
ATOM      7  C   UNL     1       2.620   4.336  20.413  0.00  0.00    +0.000 C 
ATOM      8  S   UNL     1       2.984   2.912  21.176  0.00  0.00    +0.000 S 
ATOM      9  H   UNL     1       2.489   5.593  22.119  0.00  0.00    +0.000 HD
ENDROOT
BRANCH   5  10
ATOM     10  C   UNL     1       1.385   8.739  19.636  0.00  0.00    +0.000 A 
ATOM     11  C   UNL     1       2.127   9.418  18.680  0.00  0.00    +0.000 A 
ATOM     12  C   UNL     1       1.233  10.242  17.952  0.00  0.00    +0.000 A 
ATOM     13  C   UNL     1      -0.021  10.022  18.478  0.00  0.00    +0.000 A 
ATOM     14  O   UNL     1       0.075   9.134  19.509  0.00  0.00    +0.000 OA
BRANCH  13  15
ATOM     15  C   UNL     1      -1.366  10.494  18.148  0.00  0.00    +0.000 A 
ATOM     16  C   UNL     1      -1.965  10.192  16.916  0.00  0.00    +0.000 A 
ATOM     17  C   UNL     1      -3.232  10.690  16.589  0.00  0.00    +0.000 A 
ATOM     18  C   UNL     1      -3.922  11.500  17.492  0.00  0.00    +0.000 A 
ATOM     19 CL   UNL     1      -5.466  12.111  17.014  0.00  0.00    +0.000 Cl
ATOM     20  C   UNL     1      -3.346  11.798  18.728  0.00  0.00    +0.000 A 
ATOM     21 CL   UNL     1      -4.132  12.796  19.901  0.00  0.00    +0.000 Cl
ATOM     22  C   UNL     1      -2.080  11.292  19.053  0.00  0.00    +0.000 A 
ENDBRANCH  13  15
ENDBRANCH   5  10
BRANCH   1  23
ATOM     23  CA  UNL     1       2.641   3.681  17.936  0.00  0.00    +0.000 C 
BRANCH  23  25
ATOM     24  C   UNL     1       4.815   4.449  16.822  0.00  0.00    +0.000 C 
ATOM     25  C   UNL     1       4.115   3.366  17.630  0.00  0.00    +0.000 C 
ENDBRANCH  23  25
BRANCH  23  26
ATOM     26  C   UNL     1       1.868   2.379  18.186  0.00  0.00    +0.000 C 
ATOM     27  O   UNL     1       0.651   2.341  18.322  0.00  0.00    +0.000 OA
BRANCH  26  28
ATOM     28  OXT UNL     1       2.610   1.249  18.222  0.00  0.00    +0.000 OA
ATOM     29  HXT UNL     1       3.498   1.336  18.652  0.00  0.00    +0.000 HD
ENDBRANCH  26  28
ENDBRANCH  23  26
ENDBRANCH   1  23
TORSDOF 6
ENDMDL
MODEL 9
REMARK VINA RESULT:      -7.4      6.972      8.136
REMARK  Name = 
REMARK  7 active torsions:
REMARK  status: ('A' for Active; 'I' for Inactive)
REMARK    1  A    between atoms: C_1  and  C_2
REMARK    2  A    between atoms: C_2  and  CA_3
REMARK    3  A    between atoms: CA_3  and  C_4
REMARK    4  A    between atoms: CA_3  and  N_7
REMARK    5  A    between atoms: C_4  and  OXT_6
REMARK    6  A    between atoms: C_11  and  C_12
REMARK    7  A    between atoms: C_15  and  C_16
REMARK                            x       y       z     vdW  Elec       q    Type
REMARK                         _______ _______ _______ _____ _____    ______ ____
ROOT
ATOM      1  N   UNL     1       4.121   4.040  18.829  0.00  0.00    +0.000 N 
ATOM      2  C   UNL     1       5.075   5.032  18.790  0.00  0.00    +0.000 C 
ATOM      3  O   UNL     1       5.710   5.453  19.744  0.00  0.00    +0.000 OA
ATOM      4  CA  UNL     1       5.049   5.564  17.394  0.00  0.00    +0.000 C 
ATOM      5  C   UNL     1       5.817   6.513  16.854  0.00  0.00    +0.000 C 
ATOM      6  N   UNL     1       4.063   4.874  16.746  0.00  0.00    +0.000 N 
ATOM      7  C   UNL     1       3.495   3.935  17.598  0.00  0.00    +0.000 C 
ATOM      8  S   UNL     1       2.302   2.900  17.099  0.00  0.00    +0.000 S 
ATOM      9  H   UNL     1       3.788   4.990  15.779  0.00  0.00    +0.000 HD
ENDROOT
BRANCH   5  10
ATOM     10  C   UNL     1       6.874   7.111  17.586  0.00  0.00    +0.000 A 
ATOM     11  C   UNL     1       7.826   6.527  18.409  0.00  0.00    +0.000 A 
ATOM     12  C   UNL     1       8.673   7.558  18.884  0.00  0.00    +0.000 A 
ATOM     13  C   UNL     1       8.218   8.730  18.319  0.00  0.00    +0.000 A 
ATOM     14  O   UNL     1       7.119   8.463  17.555  0.00  0.00    +0.000 OA
BRANCH  13  15
ATOM     15  C   UNL     1       8.674  10.120  18.340  0.00  0.00    +0.000 A 
ATOM     16  C   UNL     1       8.060  11.104  17.552  0.00  0.00    +0.000 A 
ATOM     17  C   UNL     1       8.534  12.421  17.541  0.00  0.00    +0.000 A 
ATOM     18  C   UNL     1       9.636  12.776  18.321  0.00  0.00    +0.000 A 
ATOM     19 CL   UNL     1      10.196  14.408  18.236  0.00  0.00    +0.000 Cl
ATOM     20  C   UNL     1      10.251  11.812  19.123  0.00  0.00    +0.000 A 
ATOM     21 CL   UNL     1      11.621  12.167  20.115  0.00  0.00    +0.000 Cl
ATOM     22  C   UNL     1       9.767  10.496  19.134  0.00  0.00    +0.000 A 
ENDBRANCH  13  15
ENDBRANCH   5  10
BRANCH   1  23
ATOM     23  CA  UNL     1       3.780   3.330  20.071  0.00  0.00    +0.000 C 
BRANCH  23  25
ATOM     24  C   UNL     1       1.809   3.026  21.678  0.00  0.00    +0.000 C 
ATOM     25  C   UNL     1       2.287   2.998  20.234  0.00  0.00    +0.000 C 
ENDBRANCH  23  25
BRANCH  23  26
ATOM     26  C   UNL     1       4.617   2.048  20.171  0.00  0.00    +0.000 C 
ATOM     27  O   UNL     1       5.281   1.759  21.158  0.00  0.00    +0.000 OA
BRANCH  26  28
ATOM     28  OXT UNL     1       4.559   1.221  19.101  0.00  0.00    +0.000 OA
ATOM     29  HXT UNL     1       4.566   1.667  18.218  0.00  0.00    +0.000 HD
ENDBRANCH  26  28
ENDBRANCH  23  26
ENDBRANCH   1  23
TORSDOF 6
ENDMDL
