MODEL 1
REMARK VINA RESULT:      -7.0      0.000      0.000
REMARK  Name = 
REMARK  4 active torsions:
REMARK  status: ('A' for Active; 'I' for Inactive)
REMARK    1  A    between atoms: N_1  and  C_2
REMARK    2  A    between atoms: N_10  and  C_11
REMARK    3  A    between atoms: C_14  and  C_15
REMARK    4  A    between atoms: C_15  and  O_17
REMARK                            x       y       z     vdW  Elec       q    Type
REMARK                         _______ _______ _______ _____ _____    ______ ____
ROOT
ATOM      1  C   UNL     1       3.334   1.992  18.614  0.00  0.00    +0.000 A 
ATOM      2  N   UNL     1       2.033   1.652  18.616  0.00  0.00    +0.000 NA
ATOM      3  C   UNL     1       1.113   2.634  18.677  0.00  0.00    +0.000 A 
ATOM      4  N   UNL     1       1.323   3.957  18.744  0.00  0.00    +0.000 NA
ATOM      5  C   UNL     1       2.636   4.267  18.729  0.00  0.00    +0.000 A 
ATOM      6  C   UNL     1       3.671   3.348  18.650  0.00  0.00    +0.000 A 
ATOM      7  C   UNL     1       4.838   4.124  18.630  0.00  0.00    +0.000 A 
ATOM      8  N   UNL     1       4.597   5.433  18.684  0.00  0.00    +0.000 NA
ATOM      9  N   UNL     1       3.233   5.528  18.783  0.00  0.00    +0.000 N 
ENDROOT
BRANCH   9  10
ATOM     10  C   UNL     1       2.622   6.814  18.922  0.00  0.00    +0.000 A 
ATOM     11  C   UNL     1       2.625   7.696  17.826  0.00  0.00    +0.000 A 
ATOM     12  C   UNL     1       2.017   8.951  17.924  0.00  0.00    +0.000 A 
ATOM     13  C   UNL     1       1.412   9.351  19.119  0.00  0.00    +0.000 A 
ATOM     14  C   UNL     1       1.404   8.479  20.213  0.00  0.00    +0.000 A 
ATOM     15  C   UNL     1       2.013   7.220  20.117  0.00  0.00    +0.000 A 
BRANCH  13  16
ATOM     16  C   UNL     1       0.742  10.676  19.158  0.00  0.00    +0.000 C 
ATOM     17  O   UNL     1       0.878  11.458  20.083  0.00  0.00    +0.000 OA
BRANCH  16  18
ATOM     18  O   UNL     1      -0.058  10.920  18.099  0.00  0.00    +0.000 OA
ATOM     19  H   UNL     1       0.193  11.688  17.555  0.00  0.00    +0.000 HD
ENDBRANCH  16  18
ENDBRANCH  13  16
ENDBRANCH   9  10
BRANCH   1  20
ATOM     20  N   UNL     1       4.256   0.962  18.580  0.00  0.00    +0.000 N 
ATOM     21  H   UNL     1       5.171   1.263  18.897  0.00  0.00    +0.000 HD
ATOM     22  H   UNL     1       3.947   0.046  18.869  0.00  0.00    +0.000 HD
ENDBRANCH   1  20
TORSDOF 4
ENDMDL
MODEL 2
REMARK VINA RESULT:      -7.0      1.389      1.389
REMARK  Name = 
REMARK  4 active torsions:
REMARK  status: ('A' for Active; 'I' for Inactive)
REMARK    1  A    between atoms: N_1  and  C_2
REMARK    2  A    between atoms: N_10  and  C_11
REMARK    3  A    between atoms: C_14  and  C_15
REMARK    4  A    between atoms: C_15  and  O_17
REMARK                            x       y       z     vdW  Elec       q    Type
REMARK                         _______ _______ _______ _____ _____    ______ ____
ROOT
ATOM      1  C   UNL     1       3.998   2.752  20.247  0.00  0.00    +0.000 A 
ATOM      2  N   UNL     1       3.050   2.507  21.170  0.00  0.00    +0.000 NA
ATOM      3  C   UNL     1       2.126   3.457  21.408  0.00  0.00    +0.000 A 
ATOM      4  N   UNL     1       2.018   4.664  20.832  0.00  0.00    +0.000 NA
ATOM      5  C   UNL     1       2.973   4.875  19.904  0.00  0.00    +0.000 A 
ATOM      6  C   UNL     1       3.964   3.967  19.560  0.00  0.00    +0.000 A 
ATOM      7  C   UNL     1       4.691   4.601  18.542  0.00  0.00    +0.000 A 
ATOM      8  N   UNL     1       4.222   5.810  18.239  0.00  0.00    +0.000 NA
ATOM      9  N   UNL     1       3.178   6.002  19.105  0.00  0.00    +0.000 N 
ENDROOT
BRANCH   9  10
ATOM     10  C   UNL     1       2.469   7.245  19.095  0.00  0.00    +0.000 A 
ATOM     11  C   UNL     1       2.409   7.990  17.904  0.00  0.00    +0.000 A 
ATOM     12  C   UNL     1       1.706   9.198  17.857  0.00  0.00    +0.000 A 
ATOM     13  C   UNL     1       1.068   9.688  19.000  0.00  0.00    +0.000 A 
ATOM     14  C   UNL     1       1.123   8.952  20.188  0.00  0.00    +0.000 A 
ATOM     15  C   UNL     1       1.826   7.740  20.238  0.00  0.00    +0.000 A 
BRANCH  13  16
ATOM     16  C   UNL     1       0.298  10.953  18.887  0.00  0.00    +0.000 C 
ATOM     17  O   UNL     1       0.463  11.896  19.640  0.00  0.00    +0.000 OA
BRANCH  16  18
ATOM     18  O   UNL     1      -0.624  10.950  17.901  0.00  0.00    +0.000 OA
ATOM     19  H   UNL     1      -0.617  10.163  17.326  0.00  0.00    +0.000 HD
ENDBRANCH  16  18
ENDBRANCH  13  16
ENDBRANCH   9  10
BRANCH   1  20
ATOM     20  N   UNL     1       4.950   1.769  20.044  0.00  0.00    +0.000 N 
ATOM     21  H   UNL     1       4.584   0.994  19.502  0.00  0.00    +0.000 HD
ATOM     22  H   UNL     1       5.894   2.065  19.843  0.00  0.00    +0.000 HD
ENDBRANCH   1  20
TORSDOF 4
ENDMDL
MODEL 3
REMARK VINA RESULT:      -6.9      0.246      1.136
REMARK  Name = 
REMARK  4 active torsions:
REMARK  status: ('A' for Active; 'I' for Inactive)
REMARK    1  A    between atoms: N_1  and  C_2
REMARK    2  A    between atoms: N_10  and  C_11
REMARK    3  A    between atoms: C_14  and  C_15
REMARK    4  A    between atoms: C_15  and  O_17
REMARK                            x       y       z     vdW  Elec       q    Type
REMARK                         _______ _______ _______ _____ _____    ______ ____
ROOT
ATOM      1  C   UNL     1       3.471   2.137  18.870  0.00  0.00    +0.000 A 
ATOM      2  N   UNL     1       2.189   1.765  18.694  0.00  0.00    +0.000 NA
ATOM      3  C   UNL     1       1.251   2.726  18.596  0.00  0.00    +0.000 A 
ATOM      4  N   UNL     1       1.423   4.056  18.659  0.00  0.00    +0.000 NA
ATOM      5  C   UNL     1       2.718   4.396  18.824  0.00  0.00    +0.000 A 
ATOM      6  C   UNL     1       3.771   3.500  18.919  0.00  0.00    +0.000 A 
ATOM      7  C   UNL     1       4.914   4.303  19.046  0.00  0.00    +0.000 A 
ATOM      8  N   UNL     1       4.640   5.607  19.031  0.00  0.00    +0.000 NA
ATOM      9  N   UNL     1       3.275   5.672  18.931  0.00  0.00    +0.000 N 
ENDROOT
BRANCH   9  10
ATOM     10  C   UNL     1       2.625   6.946  18.947  0.00  0.00    +0.000 A 
ATOM     11  C   UNL     1       1.969   7.366  20.118  0.00  0.00    +0.000 A 
ATOM     12  C   UNL     1       1.342   8.615  20.172  0.00  0.00    +0.000 A 
ATOM     13  C   UNL     1       1.346   9.455  19.054  0.00  0.00    +0.000 A 
ATOM     14  C   UNL     1       1.996   9.044  17.886  0.00  0.00    +0.000 A 
ATOM     15  C   UNL     1       2.626   7.793  17.830  0.00  0.00    +0.000 A 
BRANCH  13  16
ATOM     16  C   UNL     1       0.704  10.789  19.176  0.00  0.00    +0.000 C 
ATOM     17  O   UNL     1       0.823  11.491  20.164  0.00  0.00    +0.000 OA
BRANCH  16  18
ATOM     18  O   UNL     1      -0.051  11.135  18.112  0.00  0.00    +0.000 OA
ATOM     19  H   UNL     1      -1.001  10.936  18.192  0.00  0.00    +0.000 HD
ENDBRANCH  16  18
ENDBRANCH  13  16
ENDBRANCH   9  10
BRANCH   1  20
ATOM     20  N   UNL     1       4.408   1.128  18.995  0.00  0.00    +0.000 N 
ATOM     21  H   UNL     1       4.060   0.354  19.549  0.00  0.00    +0.000 HD
ATOM     22  H   UNL     1       4.962   0.898  18.182  0.00  0.00    +0.000 HD
ENDBRANCH   1  20
TORSDOF 4
ENDMDL
MODEL 4
REMARK VINA RESULT:      -6.9      1.337      1.736
REMARK  Name = 
REMARK  4 active torsions:
REMARK  status: ('A' for Active; 'I' for Inactive)
REMARK    1  A    between atoms: N_1  and  C_2
REMARK    2  A    between atoms: N_10  and  C_11
REMARK    3  A    between atoms: C_14  and  C_15
REMARK    4  A    between atoms: C_15  and  O_17
REMARK                            x       y       z     vdW  Elec       q    Type
REMARK                         _______ _______ _______ _____ _____    ______ ____
ROOT
ATOM      1  C   UNL     1       3.936   2.867  20.144  0.00  0.00    +0.000 A 
ATOM      2  N   UNL     1       2.911   2.565  20.961  0.00  0.00    +0.000 NA
ATOM      3  C   UNL     1       1.949   3.487  21.150  0.00  0.00    +0.000 A 
ATOM      4  N   UNL     1       1.870   4.717  20.618  0.00  0.00    +0.000 NA
ATOM      5  C   UNL     1       2.904   4.985  19.795  0.00  0.00    +0.000 A 
ATOM      6  C   UNL     1       3.942   4.111  19.509  0.00  0.00    +0.000 A 
ATOM      7  C   UNL     1       4.749   4.801  18.593  0.00  0.00    +0.000 A 
ATOM      8  N   UNL     1       4.284   6.015  18.298  0.00  0.00    +0.000 NA
ATOM      9  N   UNL     1       3.159   6.150  19.069  0.00  0.00    +0.000 N 
ENDROOT
BRANCH   9  10
ATOM     10  C   UNL     1       2.428   7.380  19.044  0.00  0.00    +0.000 A 
ATOM     11  C   UNL     1       1.794   7.823  20.218  0.00  0.00    +0.000 A 
ATOM     12  C   UNL     1       1.090   9.031  20.231  0.00  0.00    +0.000 A 
ATOM     13  C   UNL     1       0.995   9.805  19.071  0.00  0.00    +0.000 A 
ATOM     14  C   UNL     1       1.624   9.371  17.899  0.00  0.00    +0.000 A 
ATOM     15  C   UNL     1       2.330   8.160  17.884  0.00  0.00    +0.000 A 
BRANCH  13  16
ATOM     16  C   UNL     1       0.273  11.101  19.148  0.00  0.00    +0.000 C 
ATOM     17  O   UNL     1       0.290  11.809  20.139  0.00  0.00    +0.000 OA
BRANCH  16  18
ATOM     18  O   UNL     1      -0.431  11.405  18.037  0.00  0.00    +0.000 OA
ATOM     19  H   UNL     1      -1.383  11.562  18.176  0.00  0.00    +0.000 HD
ENDBRANCH  16  18
ENDBRANCH  13  16
ENDBRANCH   9  10
BRANCH   1  20
ATOM     20  N   UNL     1       4.924   1.911  19.991  0.00  0.00    +0.000 N 
ATOM     21  H   UNL     1       5.779   2.307  19.615  0.00  0.00    +0.000 HD
ATOM     22  H   UNL     1       5.021   1.216  20.716  0.00  0.00    +0.000 HD
ENDBRANCH   1  20
TORSDOF 4
ENDMDL
MODEL 5
REMARK VINA RESULT:      -6.9      4.525      5.953
REMARK  Name = 
REMARK  4 active torsions:
REMARK  status: ('A' for Active; 'I' for Inactive)
REMARK    1  A    between atoms: N_1  and  C_2
REMARK    2  A    between atoms: N_10  and  C_11
REMARK    3  A    between atoms: C_14  and  C_15
REMARK    4  A    between atoms: C_15  and  O_17
REMARK                            x       y       z     vdW  Elec       q    Type
REMARK                         _______ _______ _______ _____ _____    ______ ____
ROOT
ATOM      1  C   UNL     1       2.317   2.898  21.174  0.00  0.00    +0.000 A 
ATOM      2  N   UNL     1       3.344   2.124  21.572  0.00  0.00    +0.000 NA
ATOM      3  C   UNL     1       4.452   2.086  20.808  0.00  0.00    +0.000 A 
ATOM      4  N   UNL     1       4.681   2.732  19.655  0.00  0.00    +0.000 NA
ATOM      5  C   UNL     1       3.640   3.507  19.288  0.00  0.00    +0.000 A 
ATOM      6  C   UNL     1       2.458   3.643  20.000  0.00  0.00    +0.000 A 
ATOM      7  C   UNL     1       1.699   4.563  19.263  0.00  0.00    +0.000 A 
ATOM      8  N   UNL     1       2.324   4.999  18.170  0.00  0.00    +0.000 NA
ATOM      9  N   UNL     1       3.514   4.320  18.159  0.00  0.00    +0.000 N 
ENDROOT
BRANCH   9  10
ATOM     10  C   UNL     1       4.425   4.505  17.072  0.00  0.00    +0.000 A 
ATOM     11  C   UNL     1       4.971   3.377  16.435  0.00  0.00    +0.000 A 
ATOM     12  C   UNL     1       5.848   3.526  15.356  0.00  0.00    +0.000 A 
ATOM     13  C   UNL     1       6.206   4.801  14.908  0.00  0.00    +0.000 A 
ATOM     14  C   UNL     1       5.666   5.928  15.536  0.00  0.00    +0.000 A 
ATOM     15  C   UNL     1       4.786   5.782  16.618  0.00  0.00    +0.000 A 
BRANCH  13  16
ATOM     16  C   UNL     1       7.106   4.906  13.731  0.00  0.00    +0.000 C 
ATOM     17  O   UNL     1       6.909   4.299  12.693  0.00  0.00    +0.000 OA
BRANCH  16  18
ATOM     18  O   UNL     1       8.178   5.702  13.927  0.00  0.00    +0.000 OA
ATOM     19  H   UNL     1       8.158   6.553  13.454  0.00  0.00    +0.000 HD
ENDBRANCH  16  18
ENDBRANCH  13  16
ENDBRANCH   9  10
BRANCH   1  20
ATOM     20  N   UNL     1       1.182   2.896  21.964  0.00  0.00    +0.000 N 
ATOM     21  H   UNL     1       0.997   1.980  22.358  0.00  0.00    +0.000 HD
ATOM     22  H   UNL     1       1.026   3.694  22.562  0.00  0.00    +0.000 HD
ENDBRANCH   1  20
TORSDOF 4
ENDMDL
MODEL 6
REMARK VINA RESULT:      -6.8      4.262      6.502
REMARK  Name = 
REMARK  4 active torsions:
REMARK  status: ('A' for Active; 'I' for Inactive)
REMARK    1  A    between atoms: N_1  and  C_2
REMARK    2  A    between atoms: N_10  and  C_11
REMARK    3  A    between atoms: C_14  and  C_15
REMARK    4  A    between atoms: C_15  and  O_17
REMARK                            x       y       z     vdW  Elec       q    Type
REMARK                         _______ _______ _______ _____ _____    ______ ____
ROOT
ATOM      1  C   UNL     1       0.991   8.654  20.430  0.00  0.00    +0.000 A 
ATOM      2  N   UNL     1       0.905   9.675  19.558  0.00  0.00    +0.000 NA
ATOM      3  C   UNL     1       1.559   9.573  18.385  0.00  0.00    +0.000 A 
ATOM      4  N   UNL     1       2.319   8.557  17.950  0.00  0.00    +0.000 NA
ATOM      5  C   UNL     1       2.376   7.545  18.840  0.00  0.00    +0.000 A 
ATOM      6  C   UNL     1       1.733   7.526  20.069  0.00  0.00    +0.000 A 
ATOM      7  C   UNL     1       2.050   6.277  20.620  0.00  0.00    +0.000 A 
ATOM      8  N   UNL     1       2.825   5.538  19.828  0.00  0.00    +0.000 NA
ATOM      9  N   UNL     1       3.063   6.333  18.737  0.00  0.00    +0.000 N 
ENDROOT
BRANCH   9  10
ATOM     10  C   UNL     1       3.923   5.866  17.695  0.00  0.00    +0.000 A 
ATOM     11  C   UNL     1       4.763   6.782  17.037  0.00  0.00    +0.000 A 
ATOM     12  C   UNL     1       5.631   6.353  16.029  0.00  0.00    +0.000 A 
ATOM     13  C   UNL     1       5.662   5.007  15.650  0.00  0.00    +0.000 A 
ATOM     14  C   UNL     1       4.830   4.090  16.300  0.00  0.00    +0.000 A 
ATOM     15  C   UNL     1       3.960   4.517  17.312  0.00  0.00    +0.000 A 
BRANCH  13  16
ATOM     16  C   UNL     1       6.633   4.594  14.604  0.00  0.00    +0.000 C 
ATOM     17  O   UNL     1       7.621   5.248  14.325  0.00  0.00    +0.000 OA
BRANCH  16  18
ATOM     18  O   UNL     1       6.301   3.451  13.968  0.00  0.00    +0.000 OA
ATOM     19  H   UNL     1       5.946   2.744  14.537  0.00  0.00    +0.000 HD
ENDBRANCH  16  18
ENDBRANCH  13  16
ENDBRANCH   9  10
BRANCH   1  20
ATOM     20  N   UNL     1       0.333   8.798  21.637  0.00  0.00    +0.000 N 
ATOM     21  H   UNL     1      -0.660   8.957  21.510  0.00  0.00    +0.000 HD
ATOM     22  H   UNL     1       0.607   8.192  22.397  0.00  0.00    +0.000 HD
ENDBRANCH   1  20
TORSDOF 4
ENDMDL
MODEL 7
REMARK VINA RESULT:      -6.8      4.196      5.768
REMARK  Name = 
REMARK  4 active torsions:
REMARK  status: ('A' for Active; 'I' for Inactive)
REMARK    1  A    between atoms: N_1  and  C_2
REMARK    2  A    between atoms: N_10  and  C_11
REMARK    3  A    between atoms: C_14  and  C_15
REMARK    4  A    between atoms: C_15  and  O_17
REMARK                            x       y       z     vdW  Elec       q    Type
REMARK                         _______ _______ _______ _____ _____    ______ ____
ROOT
ATOM      1  C   UNL     1       7.278   5.142  14.354  0.00  0.00    +0.000 A 
ATOM      2  N   UNL     1       6.565   4.297  13.587  0.00  0.00    +0.000 NA
ATOM      3  C   UNL     1       5.502   3.677  14.135  0.00  0.00    +0.000 A 
ATOM      4  N   UNL     1       5.042   3.784  15.391  0.00  0.00    +0.000 NA
ATOM      5  C   UNL     1       5.771   4.646  16.130  0.00  0.00    +0.000 A 
ATOM      6  C   UNL     1       6.871   5.356  15.673  0.00  0.00    +0.000 A 
ATOM      7  C   UNL     1       7.272   6.137  16.766  0.00  0.00    +0.000 A 
ATOM      8  N   UNL     1       6.506   5.963  17.842  0.00  0.00    +0.000 NA
ATOM      9  N   UNL     1       5.594   5.011  17.466  0.00  0.00    +0.000 N 
ENDROOT
BRANCH   9  10
ATOM     10  C   UNL     1       4.637   4.535  18.416  0.00  0.00    +0.000 A 
ATOM     11  C   UNL     1       3.547   5.355  18.761  0.00  0.00    +0.000 A 
ATOM     12  C   UNL     1       2.583   4.909  19.670  0.00  0.00    +0.000 A 
ATOM     13  C   UNL     1       2.700   3.647  20.260  0.00  0.00    +0.000 A 
ATOM     14  C   UNL     1       3.781   2.826  19.922  0.00  0.00    +0.000 A 
ATOM     15  C   UNL     1       4.748   3.270  19.010  0.00  0.00    +0.000 A 
BRANCH  13  16
ATOM     16  C   UNL     1       1.627   3.203  21.186  0.00  0.00    +0.000 C 
ATOM     17  O   UNL     1       1.842   2.888  22.343  0.00  0.00    +0.000 OA
BRANCH  16  18
ATOM     18  O   UNL     1       0.403   3.142  20.621  0.00  0.00    +0.000 OA
ATOM     19  H   UNL     1      -0.141   3.945  20.717  0.00  0.00    +0.000 HD
ENDBRANCH  16  18
ENDBRANCH  13  16
ENDBRANCH   9  10
BRANCH   1  20
ATOM     20  N   UNL     1       8.380   5.744  13.773  0.00  0.00    +0.000 N 
ATOM     21  H   UNL     1       8.116   6.517  13.173  0.00  0.00    +0.000 HD
ATOM     22  H   UNL     1       9.204   5.865  14.343  0.00  0.00    +0.000 HD
ENDBRANCH   1  20
TORSDOF 4
ENDMDL
MODEL 8
REMARK VINA RESULT:      -6.8      4.264      5.854
REMARK  Name = 
REMARK  4 active torsions:
REMARK  status: ('A' for Active; 'I' for Inactive)
REMARK    1  A    between atoms: N_1  and  C_2
REMARK    2  A    between atoms: N_10  and  C_11
REMARK    3  A    between atoms: C_14  and  C_15
REMARK    4  A    between atoms: C_15  and  O_17
REMARK                            x       y       z     vdW  Elec       q    Type
REMARK                         _______ _______ _______ _____ _____    ______ ____
ROOT
ATOM      1  C   UNL     1       7.341   5.132  14.204  0.00  0.00    +0.000 A 
ATOM      2  N   UNL     1       6.645   4.308  13.399  0.00  0.00    +0.000 NA
ATOM      3  C   UNL     1       5.548   3.704  13.894  0.00  0.00    +0.000 A 
ATOM      4  N   UNL     1       5.034   3.811  15.128  0.00  0.00    +0.000 NA
ATOM      5  C   UNL     1       5.745   4.652  15.907  0.00  0.00    +0.000 A 
ATOM      6  C   UNL     1       6.878   5.343  15.505  0.00  0.00    +0.000 A 
ATOM      7  C   UNL     1       7.246   6.107  16.622  0.00  0.00    +0.000 A 
ATOM      8  N   UNL     1       6.429   5.940  17.661  0.00  0.00    +0.000 NA
ATOM      9  N   UNL     1       5.516   5.011  17.237  0.00  0.00    +0.000 N 
ENDROOT
BRANCH   9  10
ATOM     10  C   UNL     1       4.508   4.546  18.139  0.00  0.00    +0.000 A 
ATOM     11  C   UNL     1       4.834   3.553  19.080  0.00  0.00    +0.000 A 
ATOM     12  C   UNL     1       3.876   3.094  19.988  0.00  0.00    +0.000 A 
ATOM     13  C   UNL     1       2.576   3.606  19.962  0.00  0.00    +0.000 A 
ATOM     14  C   UNL     1       2.244   4.595  19.030  0.00  0.00    +0.000 A 
ATOM     15  C   UNL     1       3.203   5.058  18.118  0.00  0.00    +0.000 A 
BRANCH  13  16
ATOM     16  C   UNL     1       1.607   3.118  20.977  0.00  0.00    +0.000 C 
ATOM     17  O   UNL     1       1.942   2.768  22.094  0.00  0.00    +0.000 OA
BRANCH  16  18
ATOM     18  O   UNL     1       0.332   3.061  20.537  0.00  0.00    +0.000 OA
ATOM     19  H   UNL     1      -0.298   2.628  21.141  0.00  0.00    +0.000 HD
ENDBRANCH  16  18
ENDBRANCH  13  16
ENDBRANCH   9  10
BRANCH   1  20
ATOM     20  N   UNL     1       8.479   5.715  13.678  0.00  0.00    +0.000 N 
ATOM     21  H   UNL     1       9.186   5.872  14.388  0.00  0.00    +0.000 HD
ATOM     22  H   UNL     1       8.797   5.394  12.776  0.00  0.00    +0.000 HD
ENDBRANCH   1  20
TORSDOF 4
ENDMDL
MODEL 9
REMARK VINA RESULT:      -6.7      4.569      6.304
REMARK  Name = 
REMARK  4 active torsions:
REMARK  status: ('A' for Active; 'I' for Inactive)
REMARK    1  A    between atoms: N_1  and  C_2
REMARK    2  A    between atoms: N_10  and  C_11
REMARK    3  A    between atoms: C_14  and  C_15
REMARK    4  A    between atoms: C_15  and  O_17
REMARK                            x       y       z     vdW  Elec       q    Type
REMARK                         _______ _______ _______ _____ _____    ______ ____
ROOT
ATOM      1  C   UNL     1       2.016   4.247  20.245  0.00  0.00    +0.000 A 
ATOM      2  N   UNL     1       1.936   5.589  20.295  0.00  0.00    +0.000 NA
ATOM      3  C   UNL     1       2.645   6.307  19.404  0.00  0.00    +0.000 A 
ATOM      4  N   UNL     1       3.456   5.852  18.437  0.00  0.00    +0.000 NA
ATOM      5  C   UNL     1       3.506   4.504  18.405  0.00  0.00    +0.000 A 
ATOM      6  C   UNL     1       2.809   3.660  19.256  0.00  0.00    +0.000 A 
ATOM      7  C   UNL     1       3.142   2.367  18.829  0.00  0.00    +0.000 A 
ATOM      8  N   UNL     1       3.976   2.358  17.790  0.00  0.00    +0.000 NA
ATOM      9  N   UNL     1       4.236   3.681  17.544  0.00  0.00    +0.000 N 
ENDROOT
BRANCH   9  10
ATOM     10  C   UNL     1       5.157   4.041  16.511  0.00  0.00    +0.000 A 
ATOM     11  C   UNL     1       4.762   3.917  15.167  0.00  0.00    +0.000 A 
ATOM     12  C   UNL     1       5.633   4.281  14.135  0.00  0.00    +0.000 A 
ATOM     13  C   UNL     1       6.914   4.759  14.428  0.00  0.00    +0.000 A 
ATOM     14  C   UNL     1       7.313   4.886  15.762  0.00  0.00    +0.000 A 
ATOM     15  C   UNL     1       6.442   4.522  16.799  0.00  0.00    +0.000 A 
BRANCH  13  16
ATOM     16  C   UNL     1       7.784   5.174  13.298  0.00  0.00    +0.000 C 
ATOM     17  O   UNL     1       8.684   5.985  13.422  0.00  0.00    +0.000 OA
BRANCH  16  18
ATOM     18  O   UNL     1       7.466   4.600  12.119  0.00  0.00    +0.000 OA
ATOM     19  H   UNL     1       7.291   5.219  11.387  0.00  0.00    +0.000 HD
ENDBRANCH  16  18
ENDBRANCH  13  16
ENDBRANCH   9  10
BRANCH   1  20
ATOM     20  N   UNL     1       1.300   3.536  21.191  0.00  0.00    +0.000 N 
ATOM     21  H   UNL     1       1.620   2.577  21.265  0.00  0.00    +0.000 HD
ATOM     22  H   UNL     1       1.060   4.008  22.050  0.00  0.00    +0.000 HD
ENDBRANCH   1  20
TORSDOF 4
ENDMDL
