MODEL 1
REMARK VINA RESULT:      -6.4      0.000      0.000
REMARK  Name = 
REMARK  10 active torsions:
REMARK  status: ('A' for Active; 'I' for Inactive)
REMARK    1  A    between atoms: C_1  and  C_2
REMARK    2  A    between atoms: C_2  and  N_3
REMARK    3  A    between atoms: N_3  and  C_4
REMARK    4  A    between atoms: N_3  and  S_15
REMARK    5  A    between atoms: C_4  and  C_5
REMARK    6  A    between atoms: C_5  and  N_6
REMARK    7  A    between atoms: N_9  and  C_10
REMARK    8  A    between atoms: C_11  and  C_12
REMARK    9  A    between atoms: N_13  and  O_14
REMARK   10  A    between atoms: S_15  and  C_16
REMARK                            x       y       z     vdW  Elec       q    Type
REMARK                         _______ _______ _______ _____ _____    ______ ____
ROOT
ATOM      1  N   UNL     1       3.121   4.993  19.024  0.00  0.00    +0.000 N 
ATOM      2  C   UNL     1       2.395   5.925  19.743  0.00  0.00    +0.000 A 
ATOM      3  C   UNL     1       1.889   5.280  20.829  0.00  0.00    +0.000 A 
ATOM      4  N   UNL     1       2.297   3.960  20.739  0.00  0.00    +0.000 N 
ATOM      5  C   UNL     1       1.943   2.919  21.703  0.00  0.00    +0.000 C 
ATOM      6  C   UNL     1       3.103   3.786  19.655  0.00  0.00    +0.000 A 
ENDROOT
BRANCH   6   7
ATOM      7  C   UNL     1       3.748   2.601  19.249  0.00  0.00    +0.000 C 
ATOM      8  N   UNL     1       3.178   1.675  18.541  0.00  0.00    +0.000 NA
BRANCH   8   9
ATOM      9  O   UNL     1       4.035   0.584  18.396  0.00  0.00    +0.000 OA
ATOM     10  H   UNL     1       3.411  -0.148  18.201  0.00  0.00    +0.000 HD
ENDBRANCH   8   9
ENDBRANCH   6   7
BRANCH   1  11
ATOM     11  C   UNL     1       3.746   5.256  17.702  0.00  0.00    +0.000 C 
BRANCH  11  12
ATOM     12  C   UNL     1       5.146   5.879  17.804  0.00  0.00    +0.000 C 
BRANCH  12  13
ATOM     13  N   UNL     1       6.218   5.098  17.106  0.00  0.00    +0.000 NA
BRANCH  13  14
ATOM     14  S   UNL     1       6.331   5.441  15.429  0.00  0.00    +0.000 S 
ATOM     15  C   UNL     1       5.652   3.966  14.684  0.00  0.00    +0.000 C 
ATOM     16  O   UNL     1       5.435   6.547  15.160  0.00  0.00    +0.000 OA
ATOM     17  O   UNL     1       7.738   5.538  15.129  0.00  0.00    +0.000 OA
ENDBRANCH  13  14
BRANCH  13  19
ATOM     18  C   UNL     1       7.482   5.734  19.162  0.00  0.00    +0.000 C 
ATOM     19  C   UNL     1       7.530   5.028  17.819  0.00  0.00    +0.000 C 
ENDBRANCH  13  19
ENDBRANCH  12  13
ENDBRANCH  11  12
ENDBRANCH   1  11
TORSDOF 7
ENDMDL
MODEL 2
REMARK VINA RESULT:      -6.3      2.892      5.473
REMARK  Name = 
REMARK  10 active torsions:
REMARK  status: ('A' for Active; 'I' for Inactive)
REMARK    1  A    between atoms: C_1  and  C_2
REMARK    2  A    between atoms: C_2  and  N_3
REMARK    3  A    between atoms: N_3  and  C_4
REMARK    4  A    between atoms: N_3  and  S_15
REMARK    5  A    between atoms: C_4  and  C_5
REMARK    6  A    between atoms: C_5  and  N_6
REMARK    7  A    between atoms: N_9  and  C_10
REMARK    8  A    between atoms: C_11  and  C_12
REMARK    9  A    between atoms: N_13  and  O_14
REMARK   10  A    between atoms: S_15  and  C_16
REMARK                            x       y       z     vdW  Elec       q    Type
REMARK                         _______ _______ _______ _____ _____    ______ ____
ROOT
ATOM      1  N   UNL     1       4.458   5.365  18.425  0.00  0.00    +0.000 N 
ATOM      2  C   UNL     1       3.966   5.472  17.137  0.00  0.00    +0.000 A 
ATOM      3  C   UNL     1       5.011   5.248  16.294  0.00  0.00    +0.000 A 
ATOM      4  N   UNL     1       6.126   5.031  17.085  0.00  0.00    +0.000 N 
ATOM      5  C   UNL     1       7.469   4.775  16.566  0.00  0.00    +0.000 C 
ATOM      6  C   UNL     1       5.783   5.049  18.403  0.00  0.00    +0.000 A 
ENDROOT
BRANCH   6   7
ATOM      7  C   UNL     1       6.626   4.828  19.511  0.00  0.00    +0.000 C 
ATOM      8  N   UNL     1       7.514   5.679  19.923  0.00  0.00    +0.000 NA
BRANCH   8   9
ATOM      9  O   UNL     1       8.261   5.129  20.965  0.00  0.00    +0.000 OA
ATOM     10  H   UNL     1       7.743   5.391  21.756  0.00  0.00    +0.000 HD
ENDBRANCH   8   9
ENDBRANCH   6   7
BRANCH   1  11
ATOM     11  C   UNL     1       3.670   5.653  19.650  0.00  0.00    +0.000 C 
BRANCH  11  12
ATOM     12  C   UNL     1       2.165   5.392  19.481  0.00  0.00    +0.000 C 
BRANCH  12  13
ATOM     13  N   UNL     1       1.750   3.983  19.778  0.00  0.00    +0.000 NA
BRANCH  13  14
ATOM     14  S   UNL     1       1.282   3.100  18.384  0.00  0.00    +0.000 S 
ATOM     15  C   UNL     1       2.748   2.148  18.016  0.00  0.00    +0.000 C 
ATOM     16  O   UNL     1       0.231   2.190  18.789  0.00  0.00    +0.000 OA
ATOM     17  O   UNL     1       1.056   4.075  17.345  0.00  0.00    +0.000 OA
ENDBRANCH  13  14
BRANCH  13  19
ATOM     18  C   UNL     1       1.849   2.601  21.854  0.00  0.00    +0.000 C 
ATOM     19  C   UNL     1       2.636   3.236  20.722  0.00  0.00    +0.000 C 
ENDBRANCH  13  19
ENDBRANCH  12  13
ENDBRANCH  11  12
ENDBRANCH   1  11
TORSDOF 7
ENDMDL
MODEL 3
REMARK VINA RESULT:      -6.3      1.509      2.507
REMARK  Name = 
REMARK  10 active torsions:
REMARK  status: ('A' for Active; 'I' for Inactive)
REMARK    1  A    between atoms: C_1  and  C_2
REMARK    2  A    between atoms: C_2  and  N_3
REMARK    3  A    between atoms: N_3  and  C_4
REMARK    4  A    between atoms: N_3  and  S_15
REMARK    5  A    between atoms: C_4  and  C_5
REMARK    6  A    between atoms: C_5  and  N_6
REMARK    7  A    between atoms: N_9  and  C_10
REMARK    8  A    between atoms: C_11  and  C_12
REMARK    9  A    between atoms: N_13  and  O_14
REMARK   10  A    between atoms: S_15  and  C_16
REMARK                            x       y       z     vdW  Elec       q    Type
REMARK                         _______ _______ _______ _____ _____    ______ ____
ROOT
ATOM      1  N   UNL     1       3.230   3.980  18.441  0.00  0.00    +0.000 N 
ATOM      2  C   UNL     1       2.331   5.014  18.627  0.00  0.00    +0.000 A 
ATOM      3  C   UNL     1       1.683   4.769  19.799  0.00  0.00    +0.000 A 
ATOM      4  N   UNL     1       2.184   3.577  20.294  0.00  0.00    +0.000 N 
ATOM      5  C   UNL     1       1.733   2.943  21.532  0.00  0.00    +0.000 C 
ATOM      6  C   UNL     1       3.178   3.111  19.489  0.00  0.00    +0.000 A 
ENDROOT
BRANCH   6   7
ATOM      7  C   UNL     1       3.960   1.953  19.677  0.00  0.00    +0.000 C 
ATOM      8  N   UNL     1       4.964   1.884  20.495  0.00  0.00    +0.000 NA
BRANCH   8   9
ATOM      9  O   UNL     1       5.600   0.648  20.374  0.00  0.00    +0.000 OA
ATOM     10  H   UNL     1       5.050   0.072  20.948  0.00  0.00    +0.000 HD
ENDBRANCH   8   9
ENDBRANCH   6   7
BRANCH   1  11
ATOM     11  C   UNL     1       4.061   3.800  17.223  0.00  0.00    +0.000 C 
BRANCH  11  12
ATOM     12  C   UNL     1       4.554   5.124  16.621  0.00  0.00    +0.000 C 
BRANCH  12  13
ATOM     13  N   UNL     1       5.896   5.036  15.960  0.00  0.00    +0.000 NA
BRANCH  13  14
ATOM     14  S   UNL     1       7.194   5.484  16.987  0.00  0.00    +0.000 S 
ATOM     15  C   UNL     1       6.382   5.724  18.560  0.00  0.00    +0.000 C 
ATOM     16  O   UNL     1       8.070   4.335  17.091  0.00  0.00    +0.000 OA
ATOM     17  O   UNL     1       7.685   6.747  16.491  0.00  0.00    +0.000 OA
ENDBRANCH  13  14
BRANCH  13  19
ATOM     18  C   UNL     1       5.755   3.995  13.696  0.00  0.00    +0.000 C 
ATOM     19  C   UNL     1       6.135   3.801  15.153  0.00  0.00    +0.000 C 
ENDBRANCH  13  19
ENDBRANCH  12  13
ENDBRANCH  11  12
ENDBRANCH   1  11
TORSDOF 7
ENDMDL
MODEL 4
REMARK VINA RESULT:      -6.3      1.472      1.661
REMARK  Name = 
REMARK  10 active torsions:
REMARK  status: ('A' for Active; 'I' for Inactive)
REMARK    1  A    between atoms: C_1  and  C_2
REMARK    2  A    between atoms: C_2  and  N_3
REMARK    3  A    between atoms: N_3  and  C_4
REMARK    4  A    between atoms: N_3  and  S_15
REMARK    5  A    between atoms: C_4  and  C_5
REMARK    6  A    between atoms: C_5  and  N_6
REMARK    7  A    between atoms: N_9  and  C_10
REMARK    8  A    between atoms: C_11  and  C_12
REMARK    9  A    between atoms: N_13  and  O_14
REMARK   10  A    between atoms: S_15  and  C_16
REMARK                            x       y       z     vdW  Elec       q    Type
REMARK                         _______ _______ _______ _____ _____    ______ ____
ROOT
ATOM      1  N   UNL     1       3.372   4.829  18.894  0.00  0.00    +0.000 N 
ATOM      2  C   UNL     1       2.417   5.227  17.976  0.00  0.00    +0.000 A 
ATOM      3  C   UNL     1       1.525   4.205  17.866  0.00  0.00    +0.000 A 
ATOM      4  N   UNL     1       1.966   3.193  18.702  0.00  0.00    +0.000 N 
ATOM      5  C   UNL     1       1.299   1.902  18.858  0.00  0.00    +0.000 C 
ATOM      6  C   UNL     1       3.077   3.592  19.381  0.00  0.00    +0.000 A 
ENDROOT
BRANCH   6   7
ATOM      7  C   UNL     1       3.795   2.863  20.351  0.00  0.00    +0.000 C 
ATOM      8  N   UNL     1       4.849   2.154  20.088  0.00  0.00    +0.000 NA
BRANCH   8   9
ATOM      9  O   UNL     1       5.264   1.468  21.229  0.00  0.00    +0.000 OA
ATOM     10  H   UNL     1       5.235   0.532  20.934  0.00  0.00    +0.000 HD
ENDBRANCH   8   9
ENDBRANCH   6   7
BRANCH   1  11
ATOM     11  C   UNL     1       4.594   5.607  19.222  0.00  0.00    +0.000 C 
BRANCH  11  12
ATOM     12  C   UNL     1       5.315   6.160  17.984  0.00  0.00    +0.000 C 
BRANCH  12  13
ATOM     13  N   UNL     1       6.236   5.181  17.321  0.00  0.00    +0.000 NA
BRANCH  13  14
ATOM     14  S   UNL     1       6.340   5.384  15.621  0.00  0.00    +0.000 S 
ATOM     15  C   UNL     1       5.952   3.751  15.009  0.00  0.00    +0.000 C 
ATOM     16  O   UNL     1       5.275   6.285  15.234  0.00  0.00    +0.000 OA
ATOM     17  O   UNL     1       7.718   5.700  15.334  0.00  0.00    +0.000 OA
ENDBRANCH  13  14
BRANCH  13  19
ATOM     18  C   UNL     1       7.951   6.169  18.840  0.00  0.00    +0.000 C 
ATOM     19  C   UNL     1       7.547   4.967  18.006  0.00  0.00    +0.000 C 
ENDBRANCH  13  19
ENDBRANCH  12  13
ENDBRANCH  11  12
ENDBRANCH   1  11
TORSDOF 7
ENDMDL
MODEL 5
REMARK VINA RESULT:      -6.3      1.842      2.134
REMARK  Name = 
REMARK  10 active torsions:
REMARK  status: ('A' for Active; 'I' for Inactive)
REMARK    1  A    between atoms: C_1  and  C_2
REMARK    2  A    between atoms: C_2  and  N_3
REMARK    3  A    between atoms: N_3  and  C_4
REMARK    4  A    between atoms: N_3  and  S_15
REMARK    5  A    between atoms: C_4  and  C_5
REMARK    6  A    between atoms: C_5  and  N_6
REMARK    7  A    between atoms: N_9  and  C_10
REMARK    8  A    between atoms: C_11  and  C_12
REMARK    9  A    between atoms: N_13  and  O_14
REMARK   10  A    between atoms: S_15  and  C_16
REMARK                            x       y       z     vdW  Elec       q    Type
REMARK                         _______ _______ _______ _____ _____    ______ ____
ROOT
ATOM      1  N   UNL     1       3.908   4.712  18.692  0.00  0.00    +0.000 N 
ATOM      2  C   UNL     1       2.983   5.119  17.748  0.00  0.00    +0.000 A 
ATOM      3  C   UNL     1       1.973   4.207  17.765  0.00  0.00    +0.000 A 
ATOM      4  N   UNL     1       2.312   3.249  18.705  0.00  0.00    +0.000 N 
ATOM      5  C   UNL     1       1.499   2.074  19.016  0.00  0.00    +0.000 C 
ATOM      6  C   UNL     1       3.480   3.582  19.320  0.00  0.00    +0.000 A 
ENDROOT
BRANCH   6   7
ATOM      7  C   UNL     1       4.131   2.884  20.358  0.00  0.00    +0.000 C 
ATOM      8  N   UNL     1       4.992   1.933  20.160  0.00  0.00    +0.000 NA
BRANCH   8   9
ATOM      9  O   UNL     1       5.373   1.368  21.377  0.00  0.00    +0.000 OA
ATOM     10  H   UNL     1       5.799   0.530  21.094  0.00  0.00    +0.000 HD
ENDBRANCH   8   9
ENDBRANCH   6   7
BRANCH   1  11
ATOM     11  C   UNL     1       5.223   5.366  18.914  0.00  0.00    +0.000 C 
BRANCH  11  12
ATOM     12  C   UNL     1       6.387   4.645  18.218  0.00  0.00    +0.000 C 
BRANCH  12  13
ATOM     13  N   UNL     1       7.077   5.463  17.169  0.00  0.00    +0.000 NA
BRANCH  13  14
ATOM     14  S   UNL     1       6.645   5.025  15.568  0.00  0.00    +0.000 S 
ATOM     15  C   UNL     1       5.296   6.140  15.209  0.00  0.00    +0.000 C 
ATOM     16  O   UNL     1       7.765   5.368  14.716  0.00  0.00    +0.000 OA
ATOM     17  O   UNL     1       6.156   3.670  15.637  0.00  0.00    +0.000 OA
ENDBRANCH  13  14
BRANCH  13  19
ATOM     18  C   UNL     1       8.174   7.302  18.450  0.00  0.00    +0.000 C 
ATOM     19  C   UNL     1       7.116   6.935  17.425  0.00  0.00    +0.000 C 
ENDBRANCH  13  19
ENDBRANCH  12  13
ENDBRANCH  11  12
ENDBRANCH   1  11
TORSDOF 7
ENDMDL
MODEL 6
REMARK VINA RESULT:      -6.2      3.035      5.593
REMARK  Name = 
REMARK  10 active torsions:
REMARK  status: ('A' for Active; 'I' for Inactive)
REMARK    1  A    between atoms: C_1  and  C_2
REMARK    2  A    between atoms: C_2  and  N_3
REMARK    3  A    between atoms: N_3  and  C_4
REMARK    4  A    between atoms: N_3  and  S_15
REMARK    5  A    between atoms: C_4  and  C_5
REMARK    6  A    between atoms: C_5  and  N_6
REMARK    7  A    between atoms: N_9  and  C_10
REMARK    8  A    between atoms: C_11  and  C_12
REMARK    9  A    between atoms: N_13  and  O_14
REMARK   10  A    between atoms: S_15  and  C_16
REMARK                            x       y       z     vdW  Elec       q    Type
REMARK                         _______ _______ _______ _____ _____    ______ ____
ROOT
ATOM      1  N   UNL     1       5.611   4.940  17.529  0.00  0.00    +0.000 N 
ATOM      2  C   UNL     1       4.978   5.617  16.502  0.00  0.00    +0.000 A 
ATOM      3  C   UNL     1       5.647   6.789  16.329  0.00  0.00    +0.000 A 
ATOM      4  N   UNL     1       6.664   6.815  17.268  0.00  0.00    +0.000 N 
ATOM      5  C   UNL     1       7.607   7.920  17.435  0.00  0.00    +0.000 C 
ATOM      6  C   UNL     1       6.682   5.653  17.978  0.00  0.00    +0.000 A 
ENDROOT
BRANCH   6   7
ATOM      7  C   UNL     1       7.588   5.282  18.992  0.00  0.00    +0.000 C 
ATOM      8  N   UNL     1       7.392   5.509  20.254  0.00  0.00    +0.000 NA
BRANCH   8   9
ATOM      9  O   UNL     1       8.513   5.126  20.991  0.00  0.00    +0.000 OA
ATOM     10  H   UNL     1       8.418   4.150  21.027  0.00  0.00    +0.000 HD
ENDBRANCH   8   9
ENDBRANCH   6   7
BRANCH   1  11
ATOM     11  C   UNL     1       5.127   3.665  18.115  0.00  0.00    +0.000 C 
BRANCH  11  12
ATOM     12  C   UNL     1       4.187   3.864  19.313  0.00  0.00    +0.000 C 
BRANCH  12  13
ATOM     13  N   UNL     1       2.947   4.645  18.998  0.00  0.00    +0.000 NA
BRANCH  13  14
ATOM     14  S   UNL     1       1.526   3.685  18.961  0.00  0.00    +0.000 S 
ATOM     15  C   UNL     1       2.156   2.044  19.276  0.00  0.00    +0.000 C 
ATOM     16  O   UNL     1       0.710   4.089  20.087  0.00  0.00    +0.000 OA
ATOM     17  O   UNL     1       1.019   3.765  17.613  0.00  0.00    +0.000 OA
ENDBRANCH  13  14
BRANCH  13  19
ATOM     18  C   UNL     1       2.554   7.099  18.768  0.00  0.00    +0.000 C 
ATOM     19  C   UNL     1       2.805   5.945  19.722  0.00  0.00    +0.000 C 
ENDBRANCH  13  19
ENDBRANCH  12  13
ENDBRANCH  11  12
ENDBRANCH   1  11
TORSDOF 7
ENDMDL
MODEL 7
REMARK VINA RESULT:      -6.2      2.247      2.880
REMARK  Name = 
REMARK  10 active torsions:
REMARK  status: ('A' for Active; 'I' for Inactive)
REMARK    1  A    between atoms: C_1  and  C_2
REMARK    2  A    between atoms: C_2  and  N_3
REMARK    3  A    between atoms: N_3  and  C_4
REMARK    4  A    between atoms: N_3  and  S_15
REMARK    5  A    between atoms: C_4  and  C_5
REMARK    6  A    between atoms: C_5  and  N_6
REMARK    7  A    between atoms: N_9  and  C_10
REMARK    8  A    between atoms: C_11  and  C_12
REMARK    9  A    between atoms: N_13  and  O_14
REMARK   10  A    between atoms: S_15  and  C_16
REMARK                            x       y       z     vdW  Elec       q    Type
REMARK                         _______ _______ _______ _____ _____    ______ ____
ROOT
ATOM      1  N   UNL     1       3.527   3.371  17.927  0.00  0.00    +0.000 N 
ATOM      2  C   UNL     1       2.336   3.807  17.376  0.00  0.00    +0.000 A 
ATOM      3  C   UNL     1       1.417   3.822  18.380  0.00  0.00    +0.000 A 
ATOM      4  N   UNL     1       2.061   3.372  19.521  0.00  0.00    +0.000 N 
ATOM      5  C   UNL     1       1.417   3.214  20.824  0.00  0.00    +0.000 C 
ATOM      6  C   UNL     1       3.378   3.143  19.262  0.00  0.00    +0.000 A 
ENDROOT
BRANCH   6   7
ATOM      7  C   UNL     1       4.368   2.719  20.171  0.00  0.00    +0.000 C 
ATOM      8  N   UNL     1       4.715   1.479  20.335  0.00  0.00    +0.000 NA
BRANCH   8   9
ATOM      9  O   UNL     1       5.635   1.371  21.378  0.00  0.00    +0.000 OA
ATOM     10  H   UNL     1       5.522   2.225  21.847  0.00  0.00    +0.000 HD
ENDBRANCH   8   9
ENDBRANCH   6   7
BRANCH   1  11
ATOM     11  C   UNL     1       4.762   3.101  17.148  0.00  0.00    +0.000 C 
BRANCH  11  12
ATOM     12  C   UNL     1       5.406   4.369  16.568  0.00  0.00    +0.000 C 
BRANCH  12  13
ATOM     13  N   UNL     1       5.587   5.476  17.562  0.00  0.00    +0.000 NA
BRANCH  13  14
ATOM     14  S   UNL     1       7.129   5.473  18.313  0.00  0.00    +0.000 S 
ATOM     15  C   UNL     1       7.709   7.137  18.017  0.00  0.00    +0.000 C 
ATOM     16  O   UNL     1       6.909   5.308  19.735  0.00  0.00    +0.000 OA
ATOM     17  O   UNL     1       7.938   4.534  17.575  0.00  0.00    +0.000 OA
ENDBRANCH  13  14
BRANCH  13  19
ATOM     18  C   UNL     1       3.754   7.162  17.713  0.00  0.00    +0.000 C 
ATOM     19  C   UNL     1       5.109   6.821  17.120  0.00  0.00    +0.000 C 
ENDBRANCH  13  19
ENDBRANCH  12  13
ENDBRANCH  11  12
ENDBRANCH   1  11
TORSDOF 7
ENDMDL
MODEL 8
REMARK VINA RESULT:      -6.2      2.870      5.615
REMARK  Name = 
REMARK  10 active torsions:
REMARK  status: ('A' for Active; 'I' for Inactive)
REMARK    1  A    between atoms: C_1  and  C_2
REMARK    2  A    between atoms: C_2  and  N_3
REMARK    3  A    between atoms: N_3  and  C_4
REMARK    4  A    between atoms: N_3  and  S_15
REMARK    5  A    between atoms: C_4  and  C_5
REMARK    6  A    between atoms: C_5  and  N_6
REMARK    7  A    between atoms: N_9  and  C_10
REMARK    8  A    between atoms: C_11  and  C_12
REMARK    9  A    between atoms: N_13  and  O_14
REMARK   10  A    between atoms: S_15  and  C_16
REMARK                            x       y       z     vdW  Elec       q    Type
REMARK                         _______ _______ _______ _____ _____    ______ ____
ROOT
ATOM      1  N   UNL     1       5.785   4.970  17.377  0.00  0.00    +0.000 N 
ATOM      2  C   UNL     1       5.169   5.669  16.353  0.00  0.00    +0.000 A 
ATOM      3  C   UNL     1       5.791   6.877  16.270  0.00  0.00    +0.000 A 
ATOM      4  N   UNL     1       6.759   6.901  17.259  0.00  0.00    +0.000 N 
ATOM      5  C   UNL     1       7.640   8.037  17.525  0.00  0.00    +0.000 C 
ATOM      6  C   UNL     1       6.798   5.707  17.912  0.00  0.00    +0.000 A 
ENDROOT
BRANCH   6   7
ATOM      7  C   UNL     1       7.672   5.326  18.951  0.00  0.00    +0.000 C 
ATOM      8  N   UNL     1       7.416   5.501  20.210  0.00  0.00    +0.000 NA
BRANCH   8   9
ATOM      9  O   UNL     1       8.516   5.125  20.982  0.00  0.00    +0.000 OA
ATOM     10  H   UNL     1       9.111   5.900  20.889  0.00  0.00    +0.000 HD
ENDBRANCH   8   9
ENDBRANCH   6   7
BRANCH   1  11
ATOM     11  C   UNL     1       5.334   3.647  17.877  0.00  0.00    +0.000 C 
BRANCH  11  12
ATOM     12  C   UNL     1       4.432   3.739  19.116  0.00  0.00    +0.000 C 
BRANCH  12  13
ATOM     13  N   UNL     1       3.126   4.434  18.875  0.00  0.00    +0.000 NA
BRANCH  13  14
ATOM     14  S   UNL     1       1.781   3.371  18.848  0.00  0.00    +0.000 S 
ATOM     15  C   UNL     1       0.845   3.890  20.278  0.00  0.00    +0.000 C 
ATOM     16  O   UNL     1       1.015   3.683  17.659  0.00  0.00    +0.000 OA
ATOM     17  O   UNL     1       2.308   2.045  19.062  0.00  0.00    +0.000 OA
ENDBRANCH  13  14
BRANCH  13  19
ATOM     18  C   UNL     1       2.671   6.885  18.747  0.00  0.00    +0.000 C 
ATOM     19  C   UNL     1       2.913   5.692  19.654  0.00  0.00    +0.000 C 
ENDBRANCH  13  19
ENDBRANCH  12  13
ENDBRANCH  11  12
ENDBRANCH   1  11
TORSDOF 7
ENDMDL
MODEL 9
REMARK VINA RESULT:      -6.1      2.040      3.264
REMARK  Name = 
REMARK  10 active torsions:
REMARK  status: ('A' for Active; 'I' for Inactive)
REMARK    1  A    between atoms: C_1  and  C_2
REMARK    2  A    between atoms: C_2  and  N_3
REMARK    3  A    between atoms: N_3  and  C_4
REMARK    4  A    between atoms: N_3  and  S_15
REMARK    5  A    between atoms: C_4  and  C_5
REMARK    6  A    between atoms: C_5  and  N_6
REMARK    7  A    between atoms: N_9  and  C_10
REMARK    8  A    between atoms: C_11  and  C_12
REMARK    9  A    between atoms: N_13  and  O_14
REMARK   10  A    between atoms: S_15  and  C_16
REMARK                            x       y       z     vdW  Elec       q    Type
REMARK                         _______ _______ _______ _____ _____    ______ ____
ROOT
ATOM      1  N   UNL     1       3.056   5.587  18.291  0.00  0.00    +0.000 N 
ATOM      2  C   UNL     1       3.264   6.854  17.775  0.00  0.00    +0.000 A 
ATOM      3  C   UNL     1       2.718   7.734  18.658  0.00  0.00    +0.000 A 
ATOM      4  N   UNL     1       2.167   6.986  19.684  0.00  0.00    +0.000 N 
ATOM      5  C   UNL     1       1.458   7.553  20.830  0.00  0.00    +0.000 C 
ATOM      6  C   UNL     1       2.419   5.662  19.492  0.00  0.00    +0.000 A 
ENDROOT
BRANCH   6   7
ATOM      7  C   UNL     1       2.059   4.590  20.335  0.00  0.00    +0.000 C 
ATOM      8  N   UNL     1       0.984   3.881  20.183  0.00  0.00    +0.000 NA
BRANCH   8   9
ATOM      9  O   UNL     1       0.853   2.974  21.234  0.00  0.00    +0.000 OA
ATOM     10  H   UNL     1       1.783   2.705  21.396  0.00  0.00    +0.000 HD
ENDBRANCH   8   9
ENDBRANCH   6   7
BRANCH   1  11
ATOM     11  C   UNL     1       3.397   4.328  17.581  0.00  0.00    +0.000 C 
BRANCH  11  12
ATOM     12  C   UNL     1       4.868   3.917  17.743  0.00  0.00    +0.000 C 
BRANCH  12  13
ATOM     13  N   UNL     1       5.781   4.480  16.697  0.00  0.00    +0.000 NA
BRANCH  13  14
ATOM     14  S   UNL     1       7.197   5.202  17.342  0.00  0.00    +0.000 S 
ATOM     15  C   UNL     1       6.719   5.559  19.026  0.00  0.00    +0.000 C 
ATOM     16  O   UNL     1       8.224   4.180  17.362  0.00  0.00    +0.000 OA
ATOM     17  O   UNL     1       7.392   6.433  16.616  0.00  0.00    +0.000 OA
ENDBRANCH  13  14
BRANCH  13  19
ATOM     18  C   UNL     1       5.807   4.359  14.204  0.00  0.00    +0.000 C 
ATOM     19  C   UNL     1       6.012   3.606  15.506  0.00  0.00    +0.000 C 
ENDBRANCH  13  19
ENDBRANCH  12  13
ENDBRANCH  11  12
ENDBRANCH   1  11
TORSDOF 7
ENDMDL
