MODEL 1
REMARK VINA RESULT:      -8.3      0.000      0.000
REMARK  Name = 
REMARK  4 active torsions:
REMARK  status: ('A' for Active; 'I' for Inactive)
REMARK    1  A    between atoms: C_1  and  C_2
REMARK    2  A    between atoms: C_8  and  C_10
REMARK    3  A    between atoms: C_13  and  S_14
REMARK    4  A    between atoms: S_14  and  N_17
REMARK                            x       y       z     vdW  Elec       q    Type
REMARK                         _______ _______ _______ _____ _____    ______ ____
ROOT
ATOM      1  C   UNL     1       1.602   7.529  20.258  0.00  0.00    +0.000 A 
ATOM      2  C   UNL     1       2.108   7.526  18.947  0.00  0.00    +0.000 A 
ATOM      3  C   UNL     1       2.517   6.339  18.341  0.00  0.00    +0.000 A 
ATOM      4  C   UNL     1       2.439   5.143  19.055  0.00  0.00    +0.000 A 
ATOM      5  C   UNL     1       1.924   5.126  20.357  0.00  0.00    +0.000 A 
ATOM      6  C   UNL     1       1.524   6.323  20.968  0.00  0.00    +0.000 A 
ENDROOT
BRANCH   1  14
ATOM      7  C   UNL     1      -0.186  14.416  18.478  0.00  0.00    +0.000 C 
ATOM      8  C   UNL     1       0.055  13.407  19.558  0.00  0.00    +0.000 A 
ATOM      9  C   UNL     1       0.001  13.769  20.902  0.00  0.00    +0.000 A 
ATOM     10  C   UNL     1       0.238  12.790  21.851  0.00  0.00    +0.000 A 
ATOM     11  N   UNL     1       0.516  11.510  21.549  0.00  0.00    +0.000 NA
ATOM     12  C   UNL     1       0.575  11.156  20.256  0.00  0.00    +0.000 A 
ATOM     13  N   UNL     1       0.890   9.834  19.897  0.00  0.00    +0.000 N 
ATOM     14  C   UNL     1       1.180   8.844  20.820  0.00  0.00    +0.000 C 
ATOM     15  O   UNL     1       1.156   8.936  22.043  0.00  0.00    +0.000 OA
ATOM     16  C   UNL     1       0.349  12.078  19.229  0.00  0.00    +0.000 A 
ATOM     17  H   UNL     1       0.988   9.647  18.915  0.00  0.00    +0.000 HD
ENDBRANCH   1  14
BRANCH   4  18
ATOM     18  S   UNL     1       2.936   3.623  18.259  0.00  0.00    +0.000 S 
ATOM     19  O   UNL     1       2.959   2.592  19.277  0.00  0.00    +0.000 OA
ATOM     20  O   UNL     1       2.128   3.477  17.068  0.00  0.00    +0.000 OA
BRANCH  18  21
ATOM     21  N   UNL     1       4.553   3.954  17.789  0.00  0.00    +0.000 NA
ATOM     22  C   UNL     1       4.746   4.470  16.415  0.00  0.00    +0.000 C 
ATOM     23  C   UNL     1       6.015   3.917  15.770  0.00  0.00    +0.000 C 
ATOM     24  C   UNL     1       7.287   4.672  16.145  0.00  0.00    +0.000 C 
ATOM     25  C   UNL     1       7.628   4.603  17.626  0.00  0.00    +0.000 C 
ATOM     26  C   UNL     1       6.600   5.321  18.491  0.00  0.00    +0.000 C 
ATOM     27  C   UNL     1       5.418   4.450  18.886  0.00  0.00    +0.000 C 
ENDBRANCH  18  21
ENDBRANCH   4  18
TORSDOF 3
ENDMDL
MODEL 2
REMARK VINA RESULT:      -8.1      1.797      2.444
REMARK  Name = 
REMARK  4 active torsions:
REMARK  status: ('A' for Active; 'I' for Inactive)
REMARK    1  A    between atoms: C_1  and  C_2
REMARK    2  A    between atoms: C_8  and  C_10
REMARK    3  A    between atoms: C_13  and  S_14
REMARK    4  A    between atoms: S_14  and  N_17
REMARK                            x       y       z     vdW  Elec       q    Type
REMARK                         _______ _______ _______ _____ _____    ______ ____
ROOT
ATOM      1  C   UNL     1       1.473   9.135  19.283  0.00  0.00    +0.000 A 
ATOM      2  C   UNL     1       2.016   8.635  18.087  0.00  0.00    +0.000 A 
ATOM      3  C   UNL     1       2.432   7.308  17.991  0.00  0.00    +0.000 A 
ATOM      4  C   UNL     1       2.324   6.474  19.104  0.00  0.00    +0.000 A 
ATOM      5  C   UNL     1       1.773   6.952  20.299  0.00  0.00    +0.000 A 
ATOM      6  C   UNL     1       1.365   8.290  20.396  0.00  0.00    +0.000 A 
ENDROOT
BRANCH   1  14
ATOM      7  C   UNL     1       3.578  15.939  17.529  0.00  0.00    +0.000 C 
ATOM      8  C   UNL     1       2.539  15.051  18.143  0.00  0.00    +0.000 A 
ATOM      9  C   UNL     1       1.402  15.586  18.744  0.00  0.00    +0.000 A 
ATOM     10  C   UNL     1       0.484  14.712  19.297  0.00  0.00    +0.000 A 
ATOM     11  N   UNL     1       0.626  13.375  19.285  0.00  0.00    +0.000 NA
ATOM     12  C   UNL     1       1.721  12.853  18.712  0.00  0.00    +0.000 A 
ATOM     13  N   UNL     1       1.921  11.462  18.703  0.00  0.00    +0.000 N 
ATOM     14  C   UNL     1       1.046  10.564  19.290  0.00  0.00    +0.000 C 
ATOM     15  O   UNL     1      -0.022  10.815  19.837  0.00  0.00    +0.000 OA
ATOM     16  C   UNL     1       2.702  13.661  18.129  0.00  0.00    +0.000 A 
ATOM     17  H   UNL     1       2.792  11.136  18.323  0.00  0.00    +0.000 HD
ENDBRANCH   1  14
BRANCH   4  18
ATOM     18  S   UNL     1       2.831   4.767  18.962  0.00  0.00    +0.000 S 
ATOM     19  O   UNL     1       2.970   4.246  20.306  0.00  0.00    +0.000 OA
ATOM     20  O   UNL     1       1.949   4.135  18.004  0.00  0.00    +0.000 OA
BRANCH  18  21
ATOM     21  N   UNL     1       4.395   4.894  18.267  0.00  0.00    +0.000 NA
ATOM     22  C   UNL     1       5.538   4.604  19.162  0.00  0.00    +0.000 C 
ATOM     23  C   UNL     1       6.729   5.519  18.883  0.00  0.00    +0.000 C 
ATOM     24  C   UNL     1       7.617   5.056  17.733  0.00  0.00    +0.000 C 
ATOM     25  C   UNL     1       6.913   5.032  16.385  0.00  0.00    +0.000 C 
ATOM     26  C   UNL     1       5.803   3.991  16.329  0.00  0.00    +0.000 C 
ATOM     27  C   UNL     1       4.464   4.497  16.840  0.00  0.00    +0.000 C 
ENDBRANCH  18  21
ENDBRANCH   4  18
TORSDOF 3
ENDMDL
MODEL 3
REMARK VINA RESULT:      -8.1      1.621      1.859
REMARK  Name = 
REMARK  4 active torsions:
REMARK  status: ('A' for Active; 'I' for Inactive)
REMARK    1  A    between atoms: C_1  and  C_2
REMARK    2  A    between atoms: C_8  and  C_10
REMARK    3  A    between atoms: C_13  and  S_14
REMARK    4  A    between atoms: S_14  and  N_17
REMARK                            x       y       z     vdW  Elec       q    Type
REMARK                         _______ _______ _______ _____ _____    ______ ____
ROOT
ATOM      1  C   UNL     1       1.609   8.660  19.331  0.00  0.00    +0.000 A 
ATOM      2  C   UNL     1       2.072   8.184  18.092  0.00  0.00    +0.000 A 
ATOM      3  C   UNL     1       2.471   6.857  17.940  0.00  0.00    +0.000 A 
ATOM      4  C   UNL     1       2.424   5.998  19.038  0.00  0.00    +0.000 A 
ATOM      5  C   UNL     1       1.952   6.452  20.276  0.00  0.00    +0.000 A 
ATOM      6  C   UNL     1       1.562   7.790  20.428  0.00  0.00    +0.000 A 
ENDROOT
BRANCH   1  14
ATOM      7  C   UNL     1       3.555  15.469  17.418  0.00  0.00    +0.000 C 
ATOM      8  C   UNL     1       2.584  14.580  18.134  0.00  0.00    +0.000 A 
ATOM      9  C   UNL     1       1.523  15.117  18.860  0.00  0.00    +0.000 A 
ATOM     10  C   UNL     1       0.665  14.242  19.501  0.00  0.00    +0.000 A 
ATOM     11  N   UNL     1       0.795  12.905  19.462  0.00  0.00    +0.000 NA
ATOM     12  C   UNL     1       1.818  12.382  18.768  0.00  0.00    +0.000 A 
ATOM     13  N   UNL     1       2.007  10.990  18.726  0.00  0.00    +0.000 N 
ATOM     14  C   UNL     1       1.194  10.091  19.397  0.00  0.00    +0.000 C 
ATOM     15  O   UNL     1       0.194  10.344  20.059  0.00  0.00    +0.000 OA
ATOM     16  C   UNL     1       2.735  13.189  18.089  0.00  0.00    +0.000 A 
ATOM     17  H   UNL     1       2.829  10.662  18.250  0.00  0.00    +0.000 HD
ENDBRANCH   1  14
BRANCH   4  18
ATOM     18  S   UNL     1       2.908   4.291  18.826  0.00  0.00    +0.000 S 
ATOM     19  O   UNL     1       2.987   3.699  20.146  0.00  0.00    +0.000 OA
ATOM     20  O   UNL     1       2.053   3.727  17.804  0.00  0.00    +0.000 OA
BRANCH  18  21
ATOM     21  N   UNL     1       4.499   4.425  18.198  0.00  0.00    +0.000 NA
ATOM     22  C   UNL     1       4.614   4.656  16.740  0.00  0.00    +0.000 C 
ATOM     23  C   UNL     1       5.803   3.912  16.135  0.00  0.00    +0.000 C 
ATOM     24  C   UNL     1       7.134   4.644  16.274  0.00  0.00    +0.000 C 
ATOM     25  C   UNL     1       7.581   4.837  17.715  0.00  0.00    +0.000 C 
ATOM     26  C   UNL     1       6.658   5.770  18.488  0.00  0.00    +0.000 C 
ATOM     27  C   UNL     1       5.468   5.066  19.119  0.00  0.00    +0.000 C 
ENDBRANCH  18  21
ENDBRANCH   4  18
TORSDOF 3
ENDMDL
MODEL 4
REMARK VINA RESULT:      -8.1      1.122      1.476
REMARK  Name = 
REMARK  4 active torsions:
REMARK  status: ('A' for Active; 'I' for Inactive)
REMARK    1  A    between atoms: C_1  and  C_2
REMARK    2  A    between atoms: C_8  and  C_10
REMARK    3  A    between atoms: C_13  and  S_14
REMARK    4  A    between atoms: S_14  and  N_17
REMARK                            x       y       z     vdW  Elec       q    Type
REMARK                         _______ _______ _______ _____ _____    ______ ____
ROOT
ATOM      1  C   UNL     1       1.574   7.480  20.283  0.00  0.00    +0.000 A 
ATOM      2  C   UNL     1       1.416   6.248  20.941  0.00  0.00    +0.000 A 
ATOM      3  C   UNL     1       1.828   5.059  20.341  0.00  0.00    +0.000 A 
ATOM      4  C   UNL     1       2.389   5.095  19.064  0.00  0.00    +0.000 A 
ATOM      5  C   UNL     1       2.567   6.315  18.400  0.00  0.00    +0.000 A 
ATOM      6  C   UNL     1       2.141   7.508  19.002  0.00  0.00    +0.000 A 
ENDROOT
BRANCH   1  14
ATOM      7  C   UNL     1      -3.136  13.095  19.988  0.00  0.00    +0.000 C 
ATOM      8  C   UNL     1      -2.008  12.422  20.708  0.00  0.00    +0.000 A 
ATOM      9  C   UNL     1      -1.430  13.001  21.835  0.00  0.00    +0.000 A 
ATOM     10  C   UNL     1      -0.389  12.330  22.451  0.00  0.00    +0.000 A 
ATOM     11  N   UNL     1       0.095  11.151  22.025  0.00  0.00    +0.000 NA
ATOM     12  C   UNL     1      -0.454  10.590  20.936  0.00  0.00    +0.000 A 
ATOM     13  N   UNL     1       0.041   9.371  20.441  0.00  0.00    +0.000 N 
ATOM     14  C   UNL     1       1.113   8.700  21.006  0.00  0.00    +0.000 C 
ATOM     15  O   UNL     1       1.739   9.012  22.013  0.00  0.00    +0.000 OA
ATOM     16  C   UNL     1      -1.510  11.196  20.250  0.00  0.00    +0.000 A 
ATOM     17  H   UNL     1      -0.363   9.037  19.584  0.00  0.00    +0.000 HD
ENDBRANCH   1  14
BRANCH   4  18
ATOM     18  S   UNL     1       2.943   3.570  18.316  0.00  0.00    +0.000 S 
ATOM     19  O   UNL     1       2.988   2.570  19.363  0.00  0.00    +0.000 OA
ATOM     20  O   UNL     1       2.153   3.365  17.122  0.00  0.00    +0.000 OA
BRANCH  18  21
ATOM     21  N   UNL     1       4.553   3.940  17.853  0.00  0.00    +0.000 NA
ATOM     22  C   UNL     1       4.738   4.479  16.487  0.00  0.00    +0.000 C 
ATOM     23  C   UNL     1       6.018   3.961  15.835  0.00  0.00    +0.000 C 
ATOM     24  C   UNL     1       7.274   4.735  16.223  0.00  0.00    +0.000 C 
ATOM     25  C   UNL     1       7.615   4.651  17.703  0.00  0.00    +0.000 C 
ATOM     26  C   UNL     1       6.573   5.336  18.578  0.00  0.00    +0.000 C 
ATOM     27  C   UNL     1       5.408   4.437  18.958  0.00  0.00    +0.000 C 
ENDBRANCH  18  21
ENDBRANCH   4  18
TORSDOF 3
ENDMDL
MODEL 5
REMARK VINA RESULT:      -8.0      1.384      1.902
REMARK  Name = 
REMARK  4 active torsions:
REMARK  status: ('A' for Active; 'I' for Inactive)
REMARK    1  A    between atoms: C_1  and  C_2
REMARK    2  A    between atoms: C_8  and  C_10
REMARK    3  A    between atoms: C_13  and  S_14
REMARK    4  A    between atoms: S_14  and  N_17
REMARK                            x       y       z     vdW  Elec       q    Type
REMARK                         _______ _______ _______ _____ _____    ______ ____
ROOT
ATOM      1  C   UNL     1       1.559   8.266  19.656  0.00  0.00    +0.000 A 
ATOM      2  C   UNL     1       2.008   7.960  18.361  0.00  0.00    +0.000 A 
ATOM      3  C   UNL     1       2.414   6.667  18.032  0.00  0.00    +0.000 A 
ATOM      4  C   UNL     1       2.388   5.672  19.009  0.00  0.00    +0.000 A 
ATOM      5  C   UNL     1       1.930   5.957  20.301  0.00  0.00    +0.000 A 
ATOM      6  C   UNL     1       1.534   7.261  20.632  0.00  0.00    +0.000 A 
ENDROOT
BRANCH   1  14
ATOM      7  C   UNL     1      -2.877  12.452  23.732  0.00  0.00    +0.000 C 
ATOM      8  C   UNL     1      -1.872  12.372  22.623  0.00  0.00    +0.000 A 
ATOM      9  C   UNL     1      -1.528  13.503  21.885  0.00  0.00    +0.000 A 
ATOM     10  C   UNL     1      -0.597  13.361  20.872  0.00  0.00    +0.000 A 
ATOM     11  N   UNL     1      -0.005  12.195  20.560  0.00  0.00    +0.000 NA
ATOM     12  C   UNL     1      -0.336  11.101  21.264  0.00  0.00    +0.000 A 
ATOM     13  N   UNL     1       0.240   9.857  20.952  0.00  0.00    +0.000 N 
ATOM     14  C   UNL     1       1.136   9.673  19.914  0.00  0.00    +0.000 C 
ATOM     15  O   UNL     1       1.598  10.531  19.168  0.00  0.00    +0.000 OA
ATOM     16  C   UNL     1      -1.267  11.151  22.306  0.00  0.00    +0.000 A 
ATOM     17  H   UNL     1      -0.099   9.064  21.467  0.00  0.00    +0.000 HD
ENDBRANCH   1  14
BRANCH   4  18
ATOM     18  S   UNL     1       2.879   4.011  18.569  0.00  0.00    +0.000 S 
ATOM     19  O   UNL     1       2.897   3.231  19.790  0.00  0.00    +0.000 OA
ATOM     20  O   UNL     1       2.072   3.610  17.438  0.00  0.00    +0.000 OA
BRANCH  18  21
ATOM     21  N   UNL     1       4.498   4.224  18.041  0.00  0.00    +0.000 NA
ATOM     22  C   UNL     1       4.686   4.545  16.608  0.00  0.00    +0.000 C 
ATOM     23  C   UNL     1       5.927   3.870  16.028  0.00  0.00    +0.000 C 
ATOM     24  C   UNL     1       7.226   4.626  16.284  0.00  0.00    +0.000 C 
ATOM     25  C   UNL     1       7.588   4.746  17.757  0.00  0.00    +0.000 C 
ATOM     26  C   UNL     1       6.597   5.606  18.530  0.00  0.00    +0.000 C 
ATOM     27  C   UNL     1       5.395   4.834  19.051  0.00  0.00    +0.000 C 
ENDBRANCH  18  21
ENDBRANCH   4  18
TORSDOF 3
ENDMDL
MODEL 6
REMARK VINA RESULT:      -8.0      0.832      1.771
REMARK  Name = 
REMARK  4 active torsions:
REMARK  status: ('A' for Active; 'I' for Inactive)
REMARK    1  A    between atoms: C_1  and  C_2
REMARK    2  A    between atoms: C_8  and  C_10
REMARK    3  A    between atoms: C_13  and  S_14
REMARK    4  A    between atoms: S_14  and  N_17
REMARK                            x       y       z     vdW  Elec       q    Type
REMARK                         _______ _______ _______ _____ _____    ______ ____
ROOT
ATOM      1  C   UNL     1       1.509   8.560  20.137  0.00  0.00    +0.000 A 
ATOM      2  C   UNL     1       1.401   7.417  20.947  0.00  0.00    +0.000 A 
ATOM      3  C   UNL     1       1.749   6.159  20.457  0.00  0.00    +0.000 A 
ATOM      4  C   UNL     1       2.193   6.035  19.140  0.00  0.00    +0.000 A 
ATOM      5  C   UNL     1       2.320   7.167  18.325  0.00  0.00    +0.000 A 
ATOM      6  C   UNL     1       1.959   8.429  18.817  0.00  0.00    +0.000 A 
ENDROOT
BRANCH   1  14
ATOM      7  C   UNL     1      -0.179  15.534  18.611  0.00  0.00    +0.000 C 
ATOM      8  C   UNL     1       0.064  14.486  19.654  0.00  0.00    +0.000 A 
ATOM      9  C   UNL     1       0.043  14.806  21.010  0.00  0.00    +0.000 A 
ATOM     10  C   UNL     1       0.279  13.793  21.922  0.00  0.00    +0.000 A 
ATOM     11  N   UNL     1       0.526  12.519  21.575  0.00  0.00    +0.000 NA
ATOM     12  C   UNL     1       0.553  12.205  20.270  0.00  0.00    +0.000 A 
ATOM     13  N   UNL     1       0.835  10.889  19.863  0.00  0.00    +0.000 N 
ATOM     14  C   UNL     1       1.124   9.865  20.749  0.00  0.00    +0.000 C 
ATOM     15  O   UNL     1       1.125   9.919  21.974  0.00  0.00    +0.000 OA
ATOM     16  C   UNL     1       0.325  13.163  19.278  0.00  0.00    +0.000 A 
ATOM     17  H   UNL     1       0.911  10.731  18.874  0.00  0.00    +0.000 HD
ENDBRANCH   1  14
BRANCH   4  18
ATOM     18  S   UNL     1       2.667   4.424  18.532  0.00  0.00    +0.000 S 
ATOM     19  O   UNL     1       2.683   3.524  19.666  0.00  0.00    +0.000 OA
ATOM     20  O   UNL     1       1.850   4.146  17.370  0.00  0.00    +0.000 OA
BRANCH  18  21
ATOM     21  N   UNL     1       4.284   4.674  18.018  0.00  0.00    +0.000 NA
ATOM     22  C   UNL     1       5.343   4.380  19.010  0.00  0.00    +0.000 C 
ATOM     23  C   UNL     1       6.504   5.368  18.919  0.00  0.00    +0.000 C 
ATOM     24  C   UNL     1       7.531   5.029  17.843  0.00  0.00    +0.000 C 
ATOM     25  C   UNL     1       6.972   5.063  16.428  0.00  0.00    +0.000 C 
ATOM     26  C   UNL     1       5.934   3.976  16.188  0.00  0.00    +0.000 C 
ATOM     27  C   UNL     1       4.523   4.381  16.584  0.00  0.00    +0.000 C 
ENDBRANCH  18  21
ENDBRANCH   4  18
TORSDOF 3
ENDMDL
MODEL 7
REMARK VINA RESULT:      -8.0      3.161      9.056
REMARK  Name = 
REMARK  4 active torsions:
REMARK  status: ('A' for Active; 'I' for Inactive)
REMARK    1  A    between atoms: C_1  and  C_2
REMARK    2  A    between atoms: C_8  and  C_10
REMARK    3  A    between atoms: C_13  and  S_14
REMARK    4  A    between atoms: S_14  and  N_17
REMARK                            x       y       z     vdW  Elec       q    Type
REMARK                         _______ _______ _______ _____ _____    ______ ____
ROOT
ATOM      1  C   UNL     1       2.381   7.789  18.663  0.00  0.00    +0.000 A 
ATOM      2  C   UNL     1       1.829   7.827  19.955  0.00  0.00    +0.000 A 
ATOM      3  C   UNL     1       1.038   8.900  20.363  0.00  0.00    +0.000 A 
ATOM      4  C   UNL     1       0.808   9.956  19.481  0.00  0.00    +0.000 A 
ATOM      5  C   UNL     1       1.339   9.927  18.185  0.00  0.00    +0.000 A 
ATOM      6  C   UNL     1       2.144   8.852  17.782  0.00  0.00    +0.000 A 
ENDROOT
BRANCH   1  14
ATOM      7  C   UNL     1       7.104   5.119  13.726  0.00  0.00    +0.000 C 
ATOM      8  C   UNL     1       6.294   4.883  14.965  0.00  0.00    +0.000 A 
ATOM      9  C   UNL     1       6.269   3.632  15.577  0.00  0.00    +0.000 A 
ATOM     10  C   UNL     1       5.498   3.479  16.716  0.00  0.00    +0.000 A 
ATOM     11  N   UNL     1       4.774   4.469  17.265  0.00  0.00    +0.000 NA
ATOM     12  C   UNL     1       4.790   5.676  16.677  0.00  0.00    +0.000 A 
ATOM     13  N   UNL     1       4.025   6.731  17.204  0.00  0.00    +0.000 N 
ATOM     14  C   UNL     1       3.206   6.597  18.312  0.00  0.00    +0.000 C 
ATOM     15  O   UNL     1       3.063   5.603  19.016  0.00  0.00    +0.000 OA
ATOM     16  C   UNL     1       5.541   5.922  15.523  0.00  0.00    +0.000 A 
ATOM     17  H   UNL     1       4.023   7.589  16.680  0.00  0.00    +0.000 HD
ENDBRANCH   1  14
BRANCH   4  18
ATOM     18  S   UNL     1      -0.232  11.311  20.002  0.00  0.00    +0.000 S 
ATOM     19  O   UNL     1      -0.734  10.986  21.321  0.00  0.00    +0.000 OA
ATOM     20  O   UNL     1       0.503  12.534  19.763  0.00  0.00    +0.000 OA
BRANCH  18  21
ATOM     21  N   UNL     1      -1.539  11.232  18.893  0.00  0.00    +0.000 NA
ATOM     22  C   UNL     1      -1.793   9.914  18.267  0.00  0.00    +0.000 C 
ATOM     23  C   UNL     1      -2.225  10.047  16.809  0.00  0.00    +0.000 C 
ATOM     24  C   UNL     1      -3.712  10.331  16.621  0.00  0.00    +0.000 C 
ATOM     25  C   UNL     1      -4.162  11.661  17.208  0.00  0.00    +0.000 C 
ATOM     26  C   UNL     1      -4.052  11.691  18.726  0.00  0.00    +0.000 C 
ATOM     27  C   UNL     1      -2.682  12.114  19.232  0.00  0.00    +0.000 C 
ENDBRANCH  18  21
ENDBRANCH   4  18
TORSDOF 3
ENDMDL
MODEL 8
REMARK VINA RESULT:      -7.9      2.161      3.185
REMARK  Name = 
REMARK  4 active torsions:
REMARK  status: ('A' for Active; 'I' for Inactive)
REMARK    1  A    between atoms: C_1  and  C_2
REMARK    2  A    between atoms: C_8  and  C_10
REMARK    3  A    between atoms: C_13  and  S_14
REMARK    4  A    between atoms: S_14  and  N_17
REMARK                            x       y       z     vdW  Elec       q    Type
REMARK                         _______ _______ _______ _____ _____    ______ ____
ROOT
ATOM      1  C   UNL     1       1.147   9.548  20.324  0.00  0.00    +0.000 A 
ATOM      2  C   UNL     1       1.275   8.482  21.230  0.00  0.00    +0.000 A 
ATOM      3  C   UNL     1       1.753   7.241  20.812  0.00  0.00    +0.000 A 
ATOM      4  C   UNL     1       2.091   7.054  19.471  0.00  0.00    +0.000 A 
ATOM      5  C   UNL     1       1.982   8.109  18.557  0.00  0.00    +0.000 A 
ATOM      6  C   UNL     1       1.490   9.353  18.979  0.00  0.00    +0.000 A 
ENDROOT
BRANCH   1  14
ATOM      7  C   UNL     1      -4.079  12.555  24.501  0.00  0.00    +0.000 C 
ATOM      8  C   UNL     1      -2.894  12.760  23.608  0.00  0.00    +0.000 A 
ATOM      9  C   UNL     1      -2.467  14.042  23.267  0.00  0.00    +0.000 A 
ATOM     10  C   UNL     1      -1.369  14.163  22.434  0.00  0.00    +0.000 A 
ATOM     11  N   UNL     1      -0.690  13.114  21.937  0.00  0.00    +0.000 NA
ATOM     12  C   UNL     1      -1.100  11.877  22.258  0.00  0.00    +0.000 A 
ATOM     13  N   UNL     1      -0.435  10.753  21.737  0.00  0.00    +0.000 N 
ATOM     14  C   UNL     1       0.636  10.841  20.863  0.00  0.00    +0.000 C 
ATOM     15  O   UNL     1       1.190  11.860  20.464  0.00  0.00    +0.000 OA
ATOM     16  C   UNL     1      -2.200  11.659  23.093  0.00  0.00    +0.000 A 
ATOM     17  H   UNL     1      -0.830   9.856  21.956  0.00  0.00    +0.000 HD
ENDBRANCH   1  14
BRANCH   4  18
ATOM     18  S   UNL     1       2.732   5.470  18.951  0.00  0.00    +0.000 S 
ATOM     19  O   UNL     1       2.736   4.605  20.113  0.00  0.00    +0.000 OA
ATOM     20  O   UNL     1       2.027   5.096  17.744  0.00  0.00    +0.000 OA
BRANCH  18  21
ATOM     21  N   UNL     1       4.358   5.836  18.545  0.00  0.00    +0.000 NA
ATOM     22  C   UNL     1       5.379   4.845  18.958  0.00  0.00    +0.000 C 
ATOM     23  C   UNL     1       6.676   5.514  19.407  0.00  0.00    +0.000 C 
ATOM     24  C   UNL     1       7.616   5.885  18.265  0.00  0.00    +0.000 C 
ATOM     25  C   UNL     1       7.042   6.919  17.308  0.00  0.00    +0.000 C 
ATOM     26  C   UNL     1       5.843   6.388  16.533  0.00  0.00    +0.000 C 
ATOM     27  C   UNL     1       4.520   6.561  17.261  0.00  0.00    +0.000 C 
ENDBRANCH  18  21
ENDBRANCH   4  18
TORSDOF 3
ENDMDL
MODEL 9
REMARK VINA RESULT:      -7.9      1.561      2.575
REMARK  Name = 
REMARK  4 active torsions:
REMARK  status: ('A' for Active; 'I' for Inactive)
REMARK    1  A    between atoms: C_1  and  C_2
REMARK    2  A    between atoms: C_8  and  C_10
REMARK    3  A    between atoms: C_13  and  S_14
REMARK    4  A    between atoms: S_14  and  N_17
REMARK                            x       y       z     vdW  Elec       q    Type
REMARK                         _______ _______ _______ _____ _____    ______ ____
ROOT
ATOM      1  C   UNL     1       1.490   8.671  19.680  0.00  0.00    +0.000 A 
ATOM      2  C   UNL     1       1.356   7.697  20.683  0.00  0.00    +0.000 A 
ATOM      3  C   UNL     1       1.779   6.386  20.468  0.00  0.00    +0.000 A 
ATOM      4  C   UNL     1       2.325   6.037  19.232  0.00  0.00    +0.000 A 
ATOM      5  C   UNL     1       2.478   6.998  18.226  0.00  0.00    +0.000 A 
ATOM      6  C   UNL     1       2.041   8.313  18.442  0.00  0.00    +0.000 A 
ENDROOT
BRANCH   1  14
ATOM      7  C   UNL     1      -3.128  12.497  23.905  0.00  0.00    +0.000 C 
ATOM      8  C   UNL     1      -2.108  12.506  22.807  0.00  0.00    +0.000 A 
ATOM      9  C   UNL     1      -1.792  13.684  22.132  0.00  0.00    +0.000 A 
ATOM     10  C   UNL     1      -0.845  13.624  21.126  0.00  0.00    +0.000 A 
ATOM     11  N   UNL     1      -0.212  12.496  20.763  0.00  0.00    +0.000 NA
ATOM     12  C   UNL     1      -0.515  11.357  21.405  0.00  0.00    +0.000 A 
ATOM     13  N   UNL     1       0.104  10.150  21.038  0.00  0.00    +0.000 N 
ATOM     14  C   UNL     1       1.019  10.049  20.003  0.00  0.00    +0.000 C 
ATOM     15  O   UNL     1       1.461  10.958  19.309  0.00  0.00    +0.000 OA
ATOM     16  C   UNL     1      -1.460  11.323  22.436  0.00  0.00    +0.000 A 
ATOM     17  H   UNL     1      -0.215   9.321  21.507  0.00  0.00    +0.000 HD
ENDBRANCH   1  14
BRANCH   4  18
ATOM     18  S   UNL     1       2.893   4.362  18.977  0.00  0.00    +0.000 S 
ATOM     19  O   UNL     1       3.153   3.792  20.283  0.00  0.00    +0.000 OA
ATOM     20  O   UNL     1       1.971   3.732  18.057  0.00  0.00    +0.000 OA
BRANCH  18  21
ATOM     21  N   UNL     1       4.394   4.590  18.179  0.00  0.00    +0.000 NA
ATOM     22  C   UNL     1       5.612   4.364  18.990  0.00  0.00    +0.000 C 
ATOM     23  C   UNL     1       6.723   5.351  18.641  0.00  0.00    +0.000 C 
ATOM     24  C   UNL     1       7.556   4.953  17.428  0.00  0.00    +0.000 C 
ATOM     25  C   UNL     1       6.764   4.897  16.130  0.00  0.00    +0.000 C 
ATOM     26  C   UNL     1       5.717   3.791  16.137  0.00  0.00    +0.000 C 
ATOM     27  C   UNL     1       4.388   4.210  16.745  0.00  0.00    +0.000 C 
ENDBRANCH  18  21
ENDBRANCH   4  18
TORSDOF 3
ENDMDL
