MODEL 1
REMARK VINA RESULT:      -7.8      0.000      0.000
REMARK  Name = 
REMARK  5 active torsions:
REMARK  status: ('A' for Active; 'I' for Inactive)
REMARK    1  A    between atoms: C_1  and  C_2
REMARK    2  A    between atoms: C_3  and  S_4
REMARK    3  A    between atoms: S_4  and  C_5
REMARK    4  A    between atoms: C_8  and  O_9
REMARK    5  A    between atoms: O_9  and  C_10
REMARK                            x       y       z     vdW  Elec       q    Type
REMARK                         _______ _______ _______ _____ _____    ______ ____
ROOT
ATOM      1  C   UNL     1      -2.157  12.786  20.069  0.00  0.00    +0.000 C 
ATOM      2  C   UNL     1      -1.839  11.808  19.000  0.00  0.00    +0.000 A 
ATOM      3  C   UNL     1      -0.645  11.142  18.772  0.00  0.00    +0.000 A 
ATOM      4  N   UNL     1      -0.751  10.460  17.589  0.00  0.00    +0.000 N 
ATOM      5  C   UNL     1      -1.999  10.635  17.062  0.00  0.00    +0.000 A 
ATOM      6  N   UNL     1      -2.419  10.135  15.891  0.00  0.00    +0.000 NA
ATOM      7  C   UNL     1      -3.680  10.486  15.614  0.00  0.00    +0.000 A 
ATOM      8  N   UNL     1      -4.205  10.076  14.401  0.00  0.00    +0.000 N 
ATOM      9  N   UNL     1      -4.515  11.172  16.408  0.00  0.00    +0.000 NA
ATOM     10  C   UNL     1      -4.068  11.637  17.591  0.00  0.00    +0.000 A 
ATOM     11  N   UNL     1      -4.989  12.298  18.388  0.00  0.00    +0.000 N 
ATOM     12  C   UNL     1      -2.731  11.413  17.944  0.00  0.00    +0.000 A 
ATOM     13  H   UNL     1      -0.014   9.934  17.146  0.00  0.00    +0.000 HD
ATOM     14  H   UNL     1      -3.734   9.242  14.084  0.00  0.00    +0.000 HD
ATOM     15  H   UNL     1      -5.213  10.047  14.475  0.00  0.00    +0.000 HD
ATOM     16  H   UNL     1      -5.804  12.589  17.866  0.00  0.00    +0.000 HD
ATOM     17  H   UNL     1      -4.636  12.923  19.093  0.00  0.00    +0.000 HD
ENDROOT
BRANCH   3  18
ATOM     18  S   UNL     1       0.898  11.129  19.561  0.00  0.00    +0.000 S 
BRANCH  18  19
ATOM     19  C   UNL     1       1.300   9.390  19.533  0.00  0.00    +0.000 A 
ATOM     20  C   UNL     1       1.921   8.813  18.423  0.00  0.00    +0.000 A 
ATOM     21  C   UNL     1       2.370   7.486  18.472  0.00  0.00    +0.000 A 
ATOM     22  C   UNL     1       2.218   6.719  19.633  0.00  0.00    +0.000 A 
ATOM     23  C   UNL     1       1.547   7.276  20.718  0.00  0.00    +0.000 A 
ATOM     24  C   UNL     1       1.119   8.609  20.677  0.00  0.00    +0.000 A 
BRANCH  22  25
ATOM     25  O   UNL     1       2.705   5.452  19.562  0.00  0.00    +0.000 OA
BRANCH  25  26
ATOM     26  C   UNL     1       1.858   4.386  19.143  0.00  0.00    +0.000 C 
ATOM     27  F   UNL     1       1.335   4.534  17.907  0.00  0.00    +0.000 F 
ATOM     28  F   UNL     1       2.555   3.230  19.178  0.00  0.00    +0.000 F 
ATOM     29  F   UNL     1       0.828   4.281  20.016  0.00  0.00    +0.000 F 
ENDBRANCH  25  26
ENDBRANCH  22  25
ENDBRANCH  18  19
ENDBRANCH   3  18
TORSDOF 4
ENDMDL
MODEL 2
REMARK VINA RESULT:      -7.8      4.658      6.460
REMARK  Name = 
REMARK  5 active torsions:
REMARK  status: ('A' for Active; 'I' for Inactive)
REMARK    1  A    between atoms: C_1  and  C_2
REMARK    2  A    between atoms: C_3  and  S_4
REMARK    3  A    between atoms: S_4  and  C_5
REMARK    4  A    between atoms: C_8  and  O_9
REMARK    5  A    between atoms: O_9  and  C_10
REMARK                            x       y       z     vdW  Elec       q    Type
REMARK                         _______ _______ _______ _____ _____    ______ ____
ROOT
ATOM      1  C   UNL     1       2.748   6.864  17.454  0.00  0.00    +0.000 C 
ATOM      2  C   UNL     1       2.390   7.092  18.875  0.00  0.00    +0.000 A 
ATOM      3  C   UNL     1       2.449   6.196  19.932  0.00  0.00    +0.000 A 
ATOM      4  N   UNL     1       1.876   6.784  21.028  0.00  0.00    +0.000 N 
ATOM      5  C   UNL     1       1.482   8.056  20.722  0.00  0.00    +0.000 A 
ATOM      6  N   UNL     1       0.851   8.891  21.559  0.00  0.00    +0.000 NA
ATOM      7  C   UNL     1       0.564  10.064  20.982  0.00  0.00    +0.000 A 
ATOM      8  N   UNL     1      -0.140  10.988  21.733  0.00  0.00    +0.000 N 
ATOM      9  N   UNL     1       0.919  10.461  19.752  0.00  0.00    +0.000 NA
ATOM     10  C   UNL     1       1.577   9.606  18.946  0.00  0.00    +0.000 A 
ATOM     11  N   UNL     1       1.957  10.088  17.704  0.00  0.00    +0.000 N 
ATOM     12  C   UNL     1       1.845   8.311  19.409  0.00  0.00    +0.000 A 
ATOM     13  H   UNL     1       1.729   6.342  21.922  0.00  0.00    +0.000 HD
ATOM     14  H   UNL     1       0.019  10.830  22.717  0.00  0.00    +0.000 HD
ATOM     15  H   UNL     1       0.047  11.914  21.371  0.00  0.00    +0.000 HD
ATOM     16  H   UNL     1       1.454  10.928  17.452  0.00  0.00    +0.000 HD
ATOM     17  H   UNL     1       2.143   9.418  16.976  0.00  0.00    +0.000 HD
ENDROOT
BRANCH   3  18
ATOM     18  S   UNL     1       2.933   4.538  20.080  0.00  0.00    +0.000 S 
BRANCH  18  19
ATOM     19  C   UNL     1       4.309   4.465  18.944  0.00  0.00    +0.000 A 
ATOM     20  C   UNL     1       4.228   3.724  17.763  0.00  0.00    +0.000 A 
ATOM     21  C   UNL     1       5.252   3.798  16.809  0.00  0.00    +0.000 A 
ATOM     22  C   UNL     1       6.365   4.621  17.012  0.00  0.00    +0.000 A 
ATOM     23  C   UNL     1       6.472   5.315  18.215  0.00  0.00    +0.000 A 
ATOM     24  C   UNL     1       5.438   5.259  19.158  0.00  0.00    +0.000 A 
BRANCH  22  25
ATOM     25  O   UNL     1       7.284   4.618  16.010  0.00  0.00    +0.000 OA
BRANCH  25  26
ATOM     26  C   UNL     1       6.871   4.834  14.665  0.00  0.00    +0.000 C 
ATOM     27  F   UNL     1       7.824   5.345  13.857  0.00  0.00    +0.000 F 
ATOM     28  F   UNL     1       6.446   3.664  14.142  0.00  0.00    +0.000 F 
ATOM     29  F   UNL     1       5.826   5.696  14.664  0.00  0.00    +0.000 F 
ENDBRANCH  25  26
ENDBRANCH  22  25
ENDBRANCH  18  19
ENDBRANCH   3  18
TORSDOF 4
ENDMDL
MODEL 3
REMARK VINA RESULT:      -7.7      1.639      2.293
REMARK  Name = 
REMARK  5 active torsions:
REMARK  status: ('A' for Active; 'I' for Inactive)
REMARK    1  A    between atoms: C_1  and  C_2
REMARK    2  A    between atoms: C_3  and  S_4
REMARK    3  A    between atoms: S_4  and  C_5
REMARK    4  A    between atoms: C_8  and  O_9
REMARK    5  A    between atoms: O_9  and  C_10
REMARK                            x       y       z     vdW  Elec       q    Type
REMARK                         _______ _______ _______ _____ _____    ______ ____
ROOT
ATOM      1  C   UNL     1       1.146  11.724  20.332  0.00  0.00    +0.000 C 
ATOM      2  C   UNL     1       0.332  11.017  19.314  0.00  0.00    +0.000 A 
ATOM      3  C   UNL     1       0.751  10.099  18.363  0.00  0.00    +0.000 A 
ATOM      4  N   UNL     1      -0.303   9.825  17.534  0.00  0.00    +0.000 N 
ATOM      5  C   UNL     1      -1.410  10.511  17.946  0.00  0.00    +0.000 A 
ATOM      6  N   UNL     1      -2.600  10.497  17.330  0.00  0.00    +0.000 NA
ATOM      7  C   UNL     1      -3.496  11.283  17.941  0.00  0.00    +0.000 A 
ATOM      8  N   UNL     1      -4.747  11.394  17.362  0.00  0.00    +0.000 N 
ATOM      9  N   UNL     1      -3.322  11.956  19.087  0.00  0.00    +0.000 NA
ATOM     10  C   UNL     1      -2.120  11.927  19.695  0.00  0.00    +0.000 A 
ATOM     11  N   UNL     1      -2.015  12.603  20.899  0.00  0.00    +0.000 N 
ATOM     12  C   UNL     1      -1.075  11.214  19.092  0.00  0.00    +0.000 A 
ATOM     13  H   UNL     1      -0.271   9.234  16.717  0.00  0.00    +0.000 HD
ATOM     14  H   UNL     1      -4.951  10.571  16.814  0.00  0.00    +0.000 HD
ATOM     15  H   UNL     1      -5.414  11.660  18.074  0.00  0.00    +0.000 HD
ATOM     16  H   UNL     1      -2.771  13.261  21.033  0.00  0.00    +0.000 HD
ATOM     17  H   UNL     1      -1.095  12.877  21.204  0.00  0.00    +0.000 HD
ENDROOT
BRANCH   3  18
ATOM     18  S   UNL     1       2.284   9.399  17.958  0.00  0.00    +0.000 S 
BRANCH  18  19
ATOM     19  C   UNL     1       2.175   7.808  18.762  0.00  0.00    +0.000 A 
ATOM     20  C   UNL     1       2.589   6.643  18.112  0.00  0.00    +0.000 A 
ATOM     21  C   UNL     1       2.643   5.427  18.805  0.00  0.00    +0.000 A 
ATOM     22  C   UNL     1       2.296   5.355  20.159  0.00  0.00    +0.000 A 
ATOM     23  C   UNL     1       1.828   6.505  20.790  0.00  0.00    +0.000 A 
ATOM     24  C   UNL     1       1.796   7.726  20.104  0.00  0.00    +0.000 A 
BRANCH  22  25
ATOM     25  O   UNL     1       2.401   4.123  20.724  0.00  0.00    +0.000 OA
BRANCH  25  26
ATOM     26  C   UNL     1       1.317   3.205  20.636  0.00  0.00    +0.000 C 
ATOM     27  F   UNL     1       0.183   3.719  20.114  0.00  0.00    +0.000 F 
ATOM     28  F   UNL     1       1.694   2.148  19.886  0.00  0.00    +0.000 F 
ATOM     29  F   UNL     1       1.029   2.753  21.880  0.00  0.00    +0.000 F 
ENDBRANCH  25  26
ENDBRANCH  22  25
ENDBRANCH  18  19
ENDBRANCH   3  18
TORSDOF 4
ENDMDL
MODEL 4
REMARK VINA RESULT:      -7.7      6.925      9.122
REMARK  Name = 
REMARK  5 active torsions:
REMARK  status: ('A' for Active; 'I' for Inactive)
REMARK    1  A    between atoms: C_1  and  C_2
REMARK    2  A    between atoms: C_3  and  S_4
REMARK    3  A    between atoms: S_4  and  C_5
REMARK    4  A    between atoms: C_8  and  O_9
REMARK    5  A    between atoms: O_9  and  C_10
REMARK                            x       y       z     vdW  Elec       q    Type
REMARK                         _______ _______ _______ _____ _____    ______ ____
ROOT
ATOM      1  C   UNL     1       4.608   6.810  17.681  0.00  0.00    +0.000 C 
ATOM      2  C   UNL     1       4.798   5.589  18.501  0.00  0.00    +0.000 A 
ATOM      3  C   UNL     1       5.880   4.722  18.515  0.00  0.00    +0.000 A 
ATOM      4  N   UNL     1       5.562   3.648  19.303  0.00  0.00    +0.000 N 
ATOM      5  C   UNL     1       4.315   3.814  19.835  0.00  0.00    +0.000 A 
ATOM      6  N   UNL     1       3.687   2.927  20.619  0.00  0.00    +0.000 NA
ATOM      7  C   UNL     1       2.464   3.342  20.974  0.00  0.00    +0.000 A 
ATOM      8  N   UNL     1       1.696   2.483  21.739  0.00  0.00    +0.000 N 
ATOM      9  N   UNL     1       1.909   4.530  20.695  0.00  0.00    +0.000 NA
ATOM     10  C   UNL     1       2.579   5.409  19.926  0.00  0.00    +0.000 A 
ATOM     11  N   UNL     1       1.974   6.637  19.711  0.00  0.00    +0.000 N 
ATOM     12  C   UNL     1       3.831   5.042  19.414  0.00  0.00    +0.000 A 
ATOM     13  H   UNL     1       6.140   2.834  19.448  0.00  0.00    +0.000 HD
ATOM     14  H   UNL     1       2.291   1.860  22.265  0.00  0.00    +0.000 HD
ATOM     15  H   UNL     1       1.013   3.025  22.252  0.00  0.00    +0.000 HD
ATOM     16  H   UNL     1       0.987   6.617  19.928  0.00  0.00    +0.000 HD
ATOM     17  H   UNL     1       2.267   7.170  18.909  0.00  0.00    +0.000 HD
ENDROOT
BRANCH   3  18
ATOM     18  S   UNL     1       7.390   4.665  17.665  0.00  0.00    +0.000 S 
BRANCH  18  19
ATOM     19  C   UNL     1       6.841   4.501  15.974  0.00  0.00    +0.000 A 
ATOM     20  C   UNL     1       7.515   5.145  14.933  0.00  0.00    +0.000 A 
ATOM     21  C   UNL     1       7.171   4.885  13.599  0.00  0.00    +0.000 A 
ATOM     22  C   UNL     1       6.159   3.971  13.282  0.00  0.00    +0.000 A 
ATOM     23  C   UNL     1       5.450   3.374  14.322  0.00  0.00    +0.000 A 
ATOM     24  C   UNL     1       5.809   3.615  15.654  0.00  0.00    +0.000 A 
BRANCH  22  25
ATOM     25  O   UNL     1       5.927   3.795  11.955  0.00  0.00    +0.000 OA
BRANCH  25  26
ATOM     26  C   UNL     1       4.708   3.202  11.519  0.00  0.00    +0.000 C 
ATOM     27  F   UNL     1       4.824   1.927  11.089  0.00  0.00    +0.000 F 
ATOM     28  F   UNL     1       3.815   3.234  12.530  0.00  0.00    +0.000 F 
ATOM     29  F   UNL     1       4.209   3.936  10.497  0.00  0.00    +0.000 F 
ENDBRANCH  25  26
ENDBRANCH  22  25
ENDBRANCH  18  19
ENDBRANCH   3  18
TORSDOF 4
ENDMDL
MODEL 5
REMARK VINA RESULT:      -7.7      4.493      6.242
REMARK  Name = 
REMARK  5 active torsions:
REMARK  status: ('A' for Active; 'I' for Inactive)
REMARK    1  A    between atoms: C_1  and  C_2
REMARK    2  A    between atoms: C_3  and  S_4
REMARK    3  A    between atoms: S_4  and  C_5
REMARK    4  A    between atoms: C_8  and  O_9
REMARK    5  A    between atoms: O_9  and  C_10
REMARK                            x       y       z     vdW  Elec       q    Type
REMARK                         _______ _______ _______ _____ _____    ______ ____
ROOT
ATOM      1  C   UNL     1       2.375   7.356  17.608  0.00  0.00    +0.000 C 
ATOM      2  C   UNL     1       2.080   7.580  19.044  0.00  0.00    +0.000 A 
ATOM      3  C   UNL     1       2.184   6.680  20.094  0.00  0.00    +0.000 A 
ATOM      4  N   UNL     1       1.661   7.265  21.216  0.00  0.00    +0.000 N 
ATOM      5  C   UNL     1       1.255   8.538  20.932  0.00  0.00    +0.000 A 
ATOM      6  N   UNL     1       0.663   9.371  21.799  0.00  0.00    +0.000 NA
ATOM      7  C   UNL     1       0.352  10.547  21.240  0.00  0.00    +0.000 A 
ATOM      8  N   UNL     1      -0.317  11.469  22.024  0.00  0.00    +0.000 N 
ATOM      9  N   UNL     1       0.653  10.948  19.996  0.00  0.00    +0.000 NA
ATOM     10  C   UNL     1       1.274  10.094  19.159  0.00  0.00    +0.000 A 
ATOM     11  N   UNL     1       1.599  10.581  17.903  0.00  0.00    +0.000 N 
ATOM     12  C   UNL     1       1.561   8.798  19.606  0.00  0.00    +0.000 A 
ATOM     13  H   UNL     1       1.553   6.820  22.115  0.00  0.00    +0.000 HD
ATOM     14  H   UNL     1      -0.115  11.307  23.000  0.00  0.00    +0.000 HD
ATOM     15  H   UNL     1      -0.145  12.396  21.657  0.00  0.00    +0.000 HD
ATOM     16  H   UNL     1       1.087  11.422  17.677  0.00  0.00    +0.000 HD
ATOM     17  H   UNL     1       1.752   9.912  17.166  0.00  0.00    +0.000 HD
ENDROOT
BRANCH   3  18
ATOM     18  S   UNL     1       2.673   5.022  20.215  0.00  0.00    +0.000 S 
BRANCH  18  19
ATOM     19  C   UNL     1       3.849   4.897  18.877  0.00  0.00    +0.000 A 
ATOM     20  C   UNL     1       5.111   5.487  18.971  0.00  0.00    +0.000 A 
ATOM     21  C   UNL     1       6.078   5.252  17.984  0.00  0.00    +0.000 A 
ATOM     22  C   UNL     1       5.805   4.417  16.895  0.00  0.00    +0.000 A 
ATOM     23  C   UNL     1       4.527   3.876  16.773  0.00  0.00    +0.000 A 
ATOM     24  C   UNL     1       3.569   4.091  17.771  0.00  0.00    +0.000 A 
BRANCH  22  25
ATOM     25  O   UNL     1       6.825   4.257  16.011  0.00  0.00    +0.000 OA
BRANCH  25  26
ATOM     26  C   UNL     1       6.641   4.599  14.642  0.00  0.00    +0.000 C 
ATOM     27  F   UNL     1       6.309   3.563  13.841  0.00  0.00    +0.000 F 
ATOM     28  F   UNL     1       5.677   5.539  14.548  0.00  0.00    +0.000 F 
ATOM     29  F   UNL     1       7.792   5.132  14.169  0.00  0.00    +0.000 F 
ENDBRANCH  25  26
ENDBRANCH  22  25
ENDBRANCH  18  19
ENDBRANCH   3  18
TORSDOF 4
ENDMDL
MODEL 6
REMARK VINA RESULT:      -7.5      6.120      8.714
REMARK  Name = 
REMARK  5 active torsions:
REMARK  status: ('A' for Active; 'I' for Inactive)
REMARK    1  A    between atoms: C_1  and  C_2
REMARK    2  A    between atoms: C_3  and  S_4
REMARK    3  A    between atoms: S_4  and  C_5
REMARK    4  A    between atoms: C_8  and  O_9
REMARK    5  A    between atoms: O_9  and  C_10
REMARK                            x       y       z     vdW  Elec       q    Type
REMARK                         _______ _______ _______ _____ _____    ______ ____
ROOT
ATOM      1  C   UNL     1       5.864   5.490  19.146  0.00  0.00    +0.000 C 
ATOM      2  C   UNL     1       5.288   4.970  17.882  0.00  0.00    +0.000 A 
ATOM      3  C   UNL     1       4.092   4.293  17.697  0.00  0.00    +0.000 A 
ATOM      4  N   UNL     1       4.037   3.864  16.397  0.00  0.00    +0.000 N 
ATOM      5  C   UNL     1       5.150   4.280  15.722  0.00  0.00    +0.000 A 
ATOM      6  N   UNL     1       5.426   3.996  14.442  0.00  0.00    +0.000 NA
ATOM      7  C   UNL     1       6.597   4.514  14.050  0.00  0.00    +0.000 A 
ATOM      8  N   UNL     1       7.017   4.237  12.762  0.00  0.00    +0.000 N 
ATOM      9  N   UNL     1       7.401   5.312  14.768  0.00  0.00    +0.000 NA
ATOM     10  C   UNL     1       7.079   5.600  16.043  0.00  0.00    +0.000 A 
ATOM     11  N   UNL     1       7.924   6.465  16.719  0.00  0.00    +0.000 N 
ATOM     12  C   UNL     1       5.923   5.030  16.594  0.00  0.00    +0.000 A 
ATOM     13  H   UNL     1       3.307   3.295  15.997  0.00  0.00    +0.000 HD
ATOM     14  H   UNL     1       6.222   4.045  12.171  0.00  0.00    +0.000 HD
ATOM     15  H   UNL     1       7.658   4.962  12.465  0.00  0.00    +0.000 HD
ATOM     16  H   UNL     1       8.821   6.553  16.262  0.00  0.00    +0.000 HD
ATOM     17  H   UNL     1       7.910   6.444  17.725  0.00  0.00    +0.000 HD
ENDROOT
BRANCH   3  18
ATOM     18  S   UNL     1       2.817   3.788  18.756  0.00  0.00    +0.000 S 
BRANCH  18  19
ATOM     19  C   UNL     1       2.228   5.355  19.378  0.00  0.00    +0.000 A 
ATOM     20  C   UNL     1       1.711   5.467  20.671  0.00  0.00    +0.000 A 
ATOM     21  C   UNL     1       1.397   6.726  21.202  0.00  0.00    +0.000 A 
ATOM     22  C   UNL     1       1.605   7.892  20.457  0.00  0.00    +0.000 A 
ATOM     23  C   UNL     1       2.066   7.774  19.147  0.00  0.00    +0.000 A 
ATOM     24  C   UNL     1       2.402   6.519  18.625  0.00  0.00    +0.000 A 
BRANCH  22  25
ATOM     25  O   UNL     1       1.275   9.051  21.083  0.00  0.00    +0.000 OA
BRANCH  25  26
ATOM     26  C   UNL     1      -0.094   9.394  21.271  0.00  0.00    +0.000 C 
ATOM     27  F   UNL     1      -0.785   8.546  22.062  0.00  0.00    +0.000 F 
ATOM     28  F   UNL     1      -0.169  10.633  21.801  0.00  0.00    +0.000 F 
ATOM     29  F   UNL     1      -0.705   9.419  20.063  0.00  0.00    +0.000 F 
ENDBRANCH  25  26
ENDBRANCH  22  25
ENDBRANCH  18  19
ENDBRANCH   3  18
TORSDOF 4
ENDMDL
MODEL 7
REMARK VINA RESULT:      -7.5      1.736      2.664
REMARK  Name = 
REMARK  5 active torsions:
REMARK  status: ('A' for Active; 'I' for Inactive)
REMARK    1  A    between atoms: C_1  and  C_2
REMARK    2  A    between atoms: C_3  and  S_4
REMARK    3  A    between atoms: S_4  and  C_5
REMARK    4  A    between atoms: C_8  and  O_9
REMARK    5  A    between atoms: O_9  and  C_10
REMARK                            x       y       z     vdW  Elec       q    Type
REMARK                         _______ _______ _______ _____ _____    ______ ____
ROOT
ATOM      1  C   UNL     1       1.272  11.424  20.637  0.00  0.00    +0.000 C 
ATOM      2  C   UNL     1       0.334  10.968  19.583  0.00  0.00    +0.000 A 
ATOM      3  C   UNL     1       0.603  10.183  18.472  0.00  0.00    +0.000 A 
ATOM      4  N   UNL     1      -0.520  10.144  17.689  0.00  0.00    +0.000 N 
ATOM      5  C   UNL     1      -1.526  10.852  18.283  0.00  0.00    +0.000 A 
ATOM      6  N   UNL     1      -2.745  11.046  17.761  0.00  0.00    +0.000 NA
ATOM      7  C   UNL     1      -3.520  11.800  18.550  0.00  0.00    +0.000 A 
ATOM      8  N   UNL     1      -4.785  12.116  18.089  0.00  0.00    +0.000 N 
ATOM      9  N   UNL     1      -3.214  12.259  19.773  0.00  0.00    +0.000 NA
ATOM     10  C   UNL     1      -1.988  12.022  20.279  0.00  0.00    +0.000 A 
ATOM     11  N   UNL     1      -1.746  12.482  21.563  0.00  0.00    +0.000 N 
ATOM     12  C   UNL     1      -1.057  11.326  19.497  0.00  0.00    +0.000 A 
ATOM     13  H   UNL     1      -0.594   9.694  16.790  0.00  0.00    +0.000 HD
ATOM     14  H   UNL     1      -5.102  11.415  17.435  0.00  0.00    +0.000 HD
ATOM     15  H   UNL     1      -5.380  12.322  18.880  0.00  0.00    +0.000 HD
ATOM     16  H   UNL     1      -2.423  13.174  21.853  0.00  0.00    +0.000 HD
ATOM     17  H   UNL     1      -0.788  12.618  21.840  0.00  0.00    +0.000 HD
ENDROOT
BRANCH   3  18
ATOM     18  S   UNL     1       2.032   9.423  17.852  0.00  0.00    +0.000 S 
BRANCH  18  19
ATOM     19  C   UNL     1       2.166   7.994  18.914  0.00  0.00    +0.000 A 
ATOM     20  C   UNL     1       1.493   7.940  20.137  0.00  0.00    +0.000 A 
ATOM     21  C   UNL     1       1.481   6.757  20.888  0.00  0.00    +0.000 A 
ATOM     22  C   UNL     1       2.129   5.606  20.426  0.00  0.00    +0.000 A 
ATOM     23  C   UNL     1       2.847   5.678  19.234  0.00  0.00    +0.000 A 
ATOM     24  C   UNL     1       2.840   6.853  18.473  0.00  0.00    +0.000 A 
BRANCH  22  25
ATOM     25  O   UNL     1       2.036   4.519  21.236  0.00  0.00    +0.000 OA
BRANCH  25  26
ATOM     26  C   UNL     1       1.405   3.333  20.766  0.00  0.00    +0.000 C 
ATOM     27  F   UNL     1       0.451   3.533  19.831  0.00  0.00    +0.000 F 
ATOM     28  F   UNL     1       2.343   2.508  20.253  0.00  0.00    +0.000 F 
ATOM     29  F   UNL     1       0.825   2.704  21.816  0.00  0.00    +0.000 F 
ENDBRANCH  25  26
ENDBRANCH  22  25
ENDBRANCH  18  19
ENDBRANCH   3  18
TORSDOF 4
ENDMDL
MODEL 8
REMARK VINA RESULT:      -7.5      2.355      3.956
REMARK  Name = 
REMARK  5 active torsions:
REMARK  status: ('A' for Active; 'I' for Inactive)
REMARK    1  A    between atoms: C_1  and  C_2
REMARK    2  A    between atoms: C_3  and  S_4
REMARK    3  A    between atoms: S_4  and  C_5
REMARK    4  A    between atoms: C_8  and  O_9
REMARK    5  A    between atoms: O_9  and  C_10
REMARK                            x       y       z     vdW  Elec       q    Type
REMARK                         _______ _______ _______ _____ _____    ______ ____
ROOT
ATOM      1  C   UNL     1      -1.394   9.948  17.467  0.00  0.00    +0.000 C 
ATOM      2  C   UNL     1      -0.468  10.513  18.478  0.00  0.00    +0.000 A 
ATOM      3  C   UNL     1       0.890  10.277  18.628  0.00  0.00    +0.000 A 
ATOM      4  N   UNL     1       1.308  10.881  19.784  0.00  0.00    +0.000 N 
ATOM      5  C   UNL     1       0.263  11.539  20.369  0.00  0.00    +0.000 A 
ATOM      6  N   UNL     1       0.323  12.200  21.533  0.00  0.00    +0.000 NA
ATOM      7  C   UNL     1      -0.859  12.728  21.877  0.00  0.00    +0.000 A 
ATOM      8  N   UNL     1      -0.934  13.386  23.090  0.00  0.00    +0.000 N 
ATOM      9  N   UNL     1      -1.984  12.718  21.147  0.00  0.00    +0.000 NA
ATOM     10  C   UNL     1      -2.001  12.066  19.968  0.00  0.00    +0.000 A 
ATOM     11  N   UNL     1      -3.178  12.130  19.240  0.00  0.00    +0.000 N 
ATOM     12  C   UNL     1      -0.846  11.391  19.552  0.00  0.00    +0.000 A 
ATOM     13  H   UNL     1       2.236  10.826  20.173  0.00  0.00    +0.000 HD
ATOM     14  H   UNL     1      -0.025  13.738  23.352  0.00  0.00    +0.000 HD
ATOM     15  H   UNL     1      -1.700  14.046  23.057  0.00  0.00    +0.000 HD
ATOM     16  H   UNL     1      -3.961  12.423  19.807  0.00  0.00    +0.000 HD
ATOM     17  H   UNL     1      -3.341  11.416  18.548  0.00  0.00    +0.000 HD
ENDROOT
BRANCH   3  18
ATOM     18  S   UNL     1       2.045   9.305  17.777  0.00  0.00    +0.000 S 
BRANCH  18  19
ATOM     19  C   UNL     1       2.220   7.910  18.877  0.00  0.00    +0.000 A 
ATOM     20  C   UNL     1       1.551   7.872  20.103  0.00  0.00    +0.000 A 
ATOM     21  C   UNL     1       1.572   6.710  20.887  0.00  0.00    +0.000 A 
ATOM     22  C   UNL     1       2.249   5.564  20.454  0.00  0.00    +0.000 A 
ATOM     23  C   UNL     1       2.963   5.622  19.260  0.00  0.00    +0.000 A 
ATOM     24  C   UNL     1       2.923   6.775  18.466  0.00  0.00    +0.000 A 
BRANCH  22  25
ATOM     25  O   UNL     1       2.187   4.498  21.294  0.00  0.00    +0.000 OA
BRANCH  25  26
ATOM     26  C   UNL     1       1.424   3.351  20.933  0.00  0.00    +0.000 C 
ATOM     27  F   UNL     1       0.974   2.621  21.976  0.00  0.00    +0.000 F 
ATOM     28  F   UNL     1       0.363   3.742  20.195  0.00  0.00    +0.000 F 
ATOM     29  F   UNL     1       2.192   2.542  20.166  0.00  0.00    +0.000 F 
ENDBRANCH  25  26
ENDBRANCH  22  25
ENDBRANCH  18  19
ENDBRANCH   3  18
TORSDOF 4
ENDMDL
MODEL 9
REMARK VINA RESULT:      -7.5      2.345      3.762
REMARK  Name = 
REMARK  5 active torsions:
REMARK  status: ('A' for Active; 'I' for Inactive)
REMARK    1  A    between atoms: C_1  and  C_2
REMARK    2  A    between atoms: C_3  and  S_4
REMARK    3  A    between atoms: S_4  and  C_5
REMARK    4  A    between atoms: C_8  and  O_9
REMARK    5  A    between atoms: O_9  and  C_10
REMARK                            x       y       z     vdW  Elec       q    Type
REMARK                         _______ _______ _______ _____ _____    ______ ____
ROOT
ATOM      1  C   UNL     1      -1.372  10.162  17.604  0.00  0.00    +0.000 C 
ATOM      2  C   UNL     1      -0.497  10.745  18.650  0.00  0.00    +0.000 A 
ATOM      3  C   UNL     1       0.867  10.571  18.824  0.00  0.00    +0.000 A 
ATOM      4  N   UNL     1       1.230  11.164  20.004  0.00  0.00    +0.000 N 
ATOM      5  C   UNL     1       0.142  11.754  20.582  0.00  0.00    +0.000 A 
ATOM      6  N   UNL     1       0.145  12.387  21.764  0.00  0.00    +0.000 NA
ATOM      7  C   UNL     1      -1.068  12.846  22.095  0.00  0.00    +0.000 A 
ATOM      8  N   UNL     1      -1.202  13.468  23.323  0.00  0.00    +0.000 N 
ATOM      9  N   UNL     1      -2.176  12.801  21.340  0.00  0.00    +0.000 NA
ATOM     10  C   UNL     1      -2.136  12.181  20.145  0.00  0.00    +0.000 A 
ATOM     11  N   UNL     1      -3.299  12.207  19.392  0.00  0.00    +0.000 N 
ATOM     12  C   UNL     1      -0.941  11.574  19.737  0.00  0.00    +0.000 A 
ATOM     13  H   UNL     1       2.152  11.144  20.413  0.00  0.00    +0.000 HD
ATOM     14  H   UNL     1      -0.317  13.856  23.614  0.00  0.00    +0.000 HD
ATOM     15  H   UNL     1      -1.999  14.090  23.289  0.00  0.00    +0.000 HD
ATOM     16  H   UNL     1      -4.107  12.447  19.949  0.00  0.00    +0.000 HD
ATOM     17  H   UNL     1      -3.412  11.505  18.679  0.00  0.00    +0.000 HD
ENDROOT
BRANCH   3  18
ATOM     18  S   UNL     1       2.087   9.680  17.974  0.00  0.00    +0.000 S 
BRANCH  18  19
ATOM     19  C   UNL     1       2.025   8.103  18.810  0.00  0.00    +0.000 A 
ATOM     20  C   UNL     1       2.520   6.947  18.203  0.00  0.00    +0.000 A 
ATOM     21  C   UNL     1       2.607   5.749  18.925  0.00  0.00    +0.000 A 
ATOM     22  C   UNL     1       2.214   5.689  20.267  0.00  0.00    +0.000 A 
ATOM     23  C   UNL     1       1.668   6.828  20.854  0.00  0.00    +0.000 A 
ATOM     24  C   UNL     1       1.602   8.031  20.140  0.00  0.00    +0.000 A 
BRANCH  22  25
ATOM     25  O   UNL     1       2.358   4.477  20.864  0.00  0.00    +0.000 OA
BRANCH  25  26
ATOM     26  C   UNL     1       1.387   3.458  20.649  0.00  0.00    +0.000 C 
ATOM     27  F   UNL     1       0.212   3.895  20.149  0.00  0.00    +0.000 F 
ATOM     28  F   UNL     1       1.897   2.535  19.805  0.00  0.00    +0.000 F 
ATOM     29  F   UNL     1       1.130   2.847  21.830  0.00  0.00    +0.000 F 
ENDBRANCH  25  26
ENDBRANCH  22  25
ENDBRANCH  18  19
ENDBRANCH   3  18
TORSDOF 4
ENDMDL
