MODEL 1
REMARK VINA RESULT:      -8.3      0.000      0.000
REMARK  Name = 
REMARK  7 active torsions:
REMARK  status: ('A' for Active; 'I' for Inactive)
REMARK    1  A    between atoms: C_1  and  N_2
REMARK    2  A    between atoms: C_8  and  C_9
REMARK    3  A    between atoms: C_11  and  N_12
REMARK    4  A    between atoms: N_12  and  C_13
REMARK    5  A    between atoms: C_18  and  C_19
REMARK    6  A    between atoms: N_21  and  C_22
REMARK    7  A    between atoms: C_22  and  C_23
REMARK                            x       y       z     vdW  Elec       q    Type
REMARK                         _______ _______ _______ _____ _____    ______ ____
ROOT
ATOM      1  C   UNL     1       2.730  14.390  18.931  0.00  0.00    +0.000 A 
ATOM      2  C   UNL     1       2.272  13.056  18.989  0.00  0.00    +0.000 A 
ATOM      3  C   UNL     1       0.923  12.695  18.975  0.00  0.00    +0.000 A 
ATOM      4  C   UNL     1      -0.004  13.725  18.868  0.00  0.00    +0.000 A 
ATOM      5  C   UNL     1       0.386  15.059  18.806  0.00  0.00    +0.000 A 
ATOM      6  N   UNL     1      -0.583  15.994  18.731  0.00  0.00    +0.000 NA
ATOM      7  C   UNL     1      -0.187  17.284  18.741  0.00  0.00    +0.000 A 
ATOM      8  C   UNL     1       1.137  17.642  18.820  0.00  0.00    +0.000 A 
ATOM      9  N   UNL     1       2.116  16.721  18.874  0.00  0.00    +0.000 NA
ATOM     10  C   UNL     1       1.765  15.412  18.860  0.00  0.00    +0.000 A 
ENDROOT
BRANCH   1  18
ATOM     11  C   UNL     1       6.572  15.476  22.744  0.00  0.00    +0.000 C 
ATOM     12  N   UNL     1       7.033  15.340  21.380  0.00  0.00    +0.000 N 
ATOM     13  C   UNL     1       8.335  15.426  20.971  0.00  0.00    +0.000 A 
ATOM     14  C   UNL     1       8.359  15.251  19.604  0.00  0.00    +0.000 A 
ATOM     15  C   UNL     1       7.024  15.031  19.170  0.00  0.00    +0.000 A 
ATOM     16  C   UNL     1       6.423  14.783  17.927  0.00  0.00    +0.000 A 
ATOM     17  C   UNL     1       5.034  14.569  17.860  0.00  0.00    +0.000 A 
ATOM     18  C   UNL     1       4.205  14.637  18.991  0.00  0.00    +0.000 A 
ATOM     19  C   UNL     1       4.821  14.928  20.228  0.00  0.00    +0.000 A 
ATOM     20  C   UNL     1       6.212  15.095  20.300  0.00  0.00    +0.000 A 
ENDBRANCH   1  18
BRANCH   3  21
ATOM     21  N   UNL     1       0.522  11.360  19.218  0.00  0.00    +0.000 N 
ATOM     22  H   UNL     1       0.646  10.726  18.430  0.00  0.00    +0.000 HD
BRANCH  21  23
ATOM     23  C   UNL     1       0.520  10.697  20.469  0.00  0.00    +0.000 A 
ATOM     24  C   UNL     1      -0.000  11.327  21.608  0.00  0.00    +0.000 A 
ATOM     25  N   UNL     1      -0.143  10.759  22.827  0.00  0.00    +0.000 NA
ATOM     26  C   UNL     1       0.302   9.497  22.956  0.00  0.00    +0.000 A 
ATOM     27  C   UNL     1       0.911   8.800  21.932  0.00  0.00    +0.000 A 
ATOM     28  C   UNL     1       1.034   9.408  20.668  0.00  0.00    +0.000 A 
BRANCH  28  29
ATOM     29  C   UNL     1       1.688   8.574  19.621  0.00  0.00    +0.000 C 
ATOM     30  O   UNL     1       1.774   8.997  18.476  0.00  0.00    +0.000 OA
ATOM     31  N   UNL     1       2.199   7.357  20.003  0.00  0.00    +0.000 N 
ATOM     32  H   UNL     1       2.091   7.045  20.962  0.00  0.00    +0.000 HD
BRANCH  31  33
ATOM     33  C   UNL     1       2.867   6.464  19.069  0.00  0.00    +0.000 C 
BRANCH  33  34
ATOM     34  C   UNL     1       3.439   5.206  19.755  0.00  0.00    +0.000 C 
ATOM     35  C   UNL     1       4.631   4.637  18.954  0.00  0.00    +0.000 C 
ATOM     36  O   UNL     1       5.164   3.457  19.578  0.00  0.00    +0.000 OA
ATOM     37  C   UNL     1       4.144   2.457  19.700  0.00  0.00    +0.000 C 
ATOM     38  C   UNL     1       2.976   2.978  20.545  0.00  0.00    +0.000 C 
ATOM     39  N   UNL     1       2.375   4.183  19.948  0.00  0.00    +0.000 NA
ATOM     40  H   UNL     1       1.675   4.552  20.593  0.00  0.00    +0.000 HD
ENDBRANCH  33  34
ENDBRANCH  31  33
ENDBRANCH  28  29
ENDBRANCH  21  23
ENDBRANCH   3  21
TORSDOF 6
ENDMDL
MODEL 2
REMARK VINA RESULT:      -8.3      3.926      9.946
REMARK  Name = 
REMARK  7 active torsions:
REMARK  status: ('A' for Active; 'I' for Inactive)
REMARK    1  A    between atoms: C_1  and  N_2
REMARK    2  A    between atoms: C_8  and  C_9
REMARK    3  A    between atoms: C_11  and  N_12
REMARK    4  A    between atoms: N_12  and  C_13
REMARK    5  A    between atoms: C_18  and  C_19
REMARK    6  A    between atoms: N_21  and  C_22
REMARK    7  A    between atoms: C_22  and  C_23
REMARK                            x       y       z     vdW  Elec       q    Type
REMARK                         _______ _______ _______ _____ _____    ______ ____
ROOT
ATOM      1  C   UNL     1       3.090   5.522  19.295  0.00  0.00    +0.000 A 
ATOM      2  C   UNL     1       4.293   5.307  18.588  0.00  0.00    +0.000 A 
ATOM      3  C   UNL     1       5.021   4.118  18.635  0.00  0.00    +0.000 A 
ATOM      4  C   UNL     1       4.497   3.087  19.406  0.00  0.00    +0.000 A 
ATOM      5  C   UNL     1       3.314   3.238  20.123  0.00  0.00    +0.000 A 
ATOM      6  N   UNL     1       2.894   2.194  20.867  0.00  0.00    +0.000 NA
ATOM      7  C   UNL     1       1.782   2.384  21.609  0.00  0.00    +0.000 A 
ATOM      8  C   UNL     1       1.101   3.576  21.614  0.00  0.00    +0.000 A 
ATOM      9  N   UNL     1       1.495   4.619  20.862  0.00  0.00    +0.000 NA
ATOM     10  C   UNL     1       2.604   4.472  20.095  0.00  0.00    +0.000 A 
ENDROOT
BRANCH   1  18
ATOM     11  C   UNL     1       0.719   9.237  22.619  0.00  0.00    +0.000 C 
ATOM     12  N   UNL     1       0.803   9.582  21.217  0.00  0.00    +0.000 N 
ATOM     13  C   UNL     1       0.376  10.758  20.664  0.00  0.00    +0.000 A 
ATOM     14  C   UNL     1       0.622  10.698  19.309  0.00  0.00    +0.000 A 
ATOM     15  C   UNL     1       1.239   9.448  19.033  0.00  0.00    +0.000 A 
ATOM     16  C   UNL     1       1.726   8.826  17.873  0.00  0.00    +0.000 A 
ATOM     17  C   UNL     1       2.330   7.560  17.968  0.00  0.00    +0.000 A 
ATOM     18  C   UNL     1       2.430   6.861  19.182  0.00  0.00    +0.000 A 
ATOM     19  C   UNL     1       1.899   7.484  20.332  0.00  0.00    +0.000 A 
ATOM     20  C   UNL     1       1.339   8.767  20.243  0.00  0.00    +0.000 A 
ENDBRANCH   1  18
BRANCH   3  21
ATOM     21  N   UNL     1       6.308   4.026  18.053  0.00  0.00    +0.000 N 
ATOM     22  H   UNL     1       6.858   3.224  18.356  0.00  0.00    +0.000 HD
BRANCH  21  23
ATOM     23  C   UNL     1       6.693   4.515  16.781  0.00  0.00    +0.000 A 
ATOM     24  C   UNL     1       6.466   3.754  15.627  0.00  0.00    +0.000 A 
ATOM     25  N   UNL     1       6.702   4.157  14.358  0.00  0.00    +0.000 NA
ATOM     26  C   UNL     1       7.248   5.376  14.208  0.00  0.00    +0.000 A 
ATOM     27  C   UNL     1       7.596   6.186  15.270  0.00  0.00    +0.000 A 
ATOM     28  C   UNL     1       7.326   5.750  16.581  0.00  0.00    +0.000 A 
BRANCH  28  29
ATOM     29  C   UNL     1       7.720   6.697  17.661  0.00  0.00    +0.000 C 
ATOM     30  O   UNL     1       7.954   6.271  18.785  0.00  0.00    +0.000 OA
ATOM     31  N   UNL     1       7.834   8.027  17.333  0.00  0.00    +0.000 N 
ATOM     32  H   UNL     1       7.616   8.332  16.390  0.00  0.00    +0.000 HD
BRANCH  31  33
ATOM     33  C   UNL     1       8.221   9.039  18.303  0.00  0.00    +0.000 C 
BRANCH  33  34
ATOM     34  C   UNL     1       8.701  10.346  17.638  0.00  0.00    +0.000 C 
ATOM     35  C   UNL     1      10.065  10.787  18.214  0.00  0.00    +0.000 C 
ATOM     36  O   UNL     1      10.516  12.011  17.610  0.00  0.00    +0.000 OA
ATOM     37  C   UNL     1       9.547  13.049  17.813  0.00  0.00    +0.000 C 
ATOM     38  C   UNL     1       8.201  12.660  17.194  0.00  0.00    +0.000 C 
ATOM     39  N   UNL     1       7.676  11.417  17.784  0.00  0.00    +0.000 NA
ATOM     40  H   UNL     1       6.836  11.142  17.272  0.00  0.00    +0.000 HD
ENDBRANCH  33  34
ENDBRANCH  31  33
ENDBRANCH  28  29
ENDBRANCH  21  23
ENDBRANCH   3  21
TORSDOF 6
ENDMDL
MODEL 3
REMARK VINA RESULT:      -8.2      4.410      8.810
REMARK  Name = 
REMARK  7 active torsions:
REMARK  status: ('A' for Active; 'I' for Inactive)
REMARK    1  A    between atoms: C_1  and  N_2
REMARK    2  A    between atoms: C_8  and  C_9
REMARK    3  A    between atoms: C_11  and  N_12
REMARK    4  A    between atoms: N_12  and  C_13
REMARK    5  A    between atoms: C_18  and  C_19
REMARK    6  A    between atoms: N_21  and  C_22
REMARK    7  A    between atoms: C_22  and  C_23
REMARK                            x       y       z     vdW  Elec       q    Type
REMARK                         _______ _______ _______ _____ _____    ______ ____
ROOT
ATOM      1  C   UNL     1       0.190  10.140  19.360  0.00  0.00    +0.000 A 
ATOM      2  C   UNL     1       0.403  10.896  20.533  0.00  0.00    +0.000 A 
ATOM      3  C   UNL     1      -0.475  11.877  20.996  0.00  0.00    +0.000 A 
ATOM      4  C   UNL     1      -1.635  12.085  20.259  0.00  0.00    +0.000 A 
ATOM      5  C   UNL     1      -1.901  11.369  19.097  0.00  0.00    +0.000 A 
ATOM      6  N   UNL     1      -3.039  11.655  18.430  0.00  0.00    +0.000 NA
ATOM      7  C   UNL     1      -3.245  10.999  17.268  0.00  0.00    +0.000 A 
ATOM      8  C   UNL     1      -2.350  10.080  16.778  0.00  0.00    +0.000 A 
ATOM      9  N   UNL     1      -1.222   9.768  17.442  0.00  0.00    +0.000 NA
ATOM     10  C   UNL     1      -0.976  10.398  18.617  0.00  0.00    +0.000 A 
ENDROOT
BRANCH   1  18
ATOM     11  C   UNL     1       2.011   5.196  21.010  0.00  0.00    +0.000 C 
ATOM     12  N   UNL     1       2.642   5.761  19.838  0.00  0.00    +0.000 N 
ATOM     13  C   UNL     1       3.620   5.158  19.097  0.00  0.00    +0.000 A 
ATOM     14  C   UNL     1       3.962   6.017  18.074  0.00  0.00    +0.000 A 
ATOM     15  C   UNL     1       3.148   7.175  18.188  0.00  0.00    +0.000 A 
ATOM     16  C   UNL     1       3.021   8.365  17.454  0.00  0.00    +0.000 A 
ATOM     17  C   UNL     1       2.056   9.315  17.835  0.00  0.00    +0.000 A 
ATOM     18  C   UNL     1       1.233   9.143  18.960  0.00  0.00    +0.000 A 
ATOM     19  C   UNL     1       1.401   7.959  19.710  0.00  0.00    +0.000 A 
ATOM     20  C   UNL     1       2.332   6.992  19.301  0.00  0.00    +0.000 A 
ENDBRANCH   1  18
BRANCH   3  21
ATOM     21  N   UNL     1      -0.121  12.725  22.072  0.00  0.00    +0.000 N 
ATOM     22  H   UNL     1       0.310  12.253  22.866  0.00  0.00    +0.000 HD
BRANCH  21  23
ATOM     23  C   UNL     1       0.230  14.094  21.985  0.00  0.00    +0.000 A 
ATOM     24  C   UNL     1       1.197  14.524  21.066  0.00  0.00    +0.000 A 
ATOM     25  N   UNL     1       1.541  15.810  20.827  0.00  0.00    +0.000 NA
ATOM     26  C   UNL     1       0.931  16.742  21.578  0.00  0.00    +0.000 A 
ATOM     27  C   UNL     1       0.024  16.440  22.574  0.00  0.00    +0.000 A 
ATOM     28  C   UNL     1      -0.329  15.094  22.793  0.00  0.00    +0.000 A 
BRANCH  28  29
ATOM     29  C   UNL     1      -1.327  14.865  23.874  0.00  0.00    +0.000 C 
ATOM     30  O   UNL     1      -0.996  15.009  25.044  0.00  0.00    +0.000 OA
ATOM     31  N   UNL     1      -2.605  14.525  23.501  0.00  0.00    +0.000 N 
ATOM     32  H   UNL     1      -2.826  14.404  22.518  0.00  0.00    +0.000 HD
BRANCH  31  33
ATOM     33  C   UNL     1      -3.664  14.287  24.470  0.00  0.00    +0.000 C 
BRANCH  33  34
ATOM     34  C   UNL     1      -4.715  13.278  23.966  0.00  0.00    +0.000 C 
ATOM     35  C   UNL     1      -4.602  13.085  22.437  0.00  0.00    +0.000 C 
ATOM     36  O   UNL     1      -5.586  12.155  21.953  0.00  0.00    +0.000 OA
ATOM     37  C   UNL     1      -6.904  12.613  22.286  0.00  0.00    +0.000 C 
ATOM     38  C   UNL     1      -7.061  12.751  23.804  0.00  0.00    +0.000 C 
ATOM     39  N   UNL     1      -6.086  13.706  24.360  0.00  0.00    +0.000 NA
ATOM     40  H   UNL     1      -6.157  13.688  25.379  0.00  0.00    +0.000 HD
ENDBRANCH  33  34
ENDBRANCH  31  33
ENDBRANCH  28  29
ENDBRANCH  21  23
ENDBRANCH   3  21
TORSDOF 6
ENDMDL
MODEL 4
REMARK VINA RESULT:      -8.2      5.341     10.173
REMARK  Name = 
REMARK  7 active torsions:
REMARK  status: ('A' for Active; 'I' for Inactive)
REMARK    1  A    between atoms: C_1  and  N_2
REMARK    2  A    between atoms: C_8  and  C_9
REMARK    3  A    between atoms: C_11  and  N_12
REMARK    4  A    between atoms: N_12  and  C_13
REMARK    5  A    between atoms: C_18  and  C_19
REMARK    6  A    between atoms: N_21  and  C_22
REMARK    7  A    between atoms: C_22  and  C_23
REMARK                            x       y       z     vdW  Elec       q    Type
REMARK                         _______ _______ _______ _____ _____    ______ ____
ROOT
ATOM      1  C   UNL     1       3.900   5.416  17.543  0.00  0.00    +0.000 A 
ATOM      2  C   UNL     1       3.478   6.724  17.871  0.00  0.00    +0.000 A 
ATOM      3  C   UNL     1       2.436   7.006  18.754  0.00  0.00    +0.000 A 
ATOM      4  C   UNL     1       1.808   5.922  19.357  0.00  0.00    +0.000 A 
ATOM      5  C   UNL     1       2.181   4.612  19.076  0.00  0.00    +0.000 A 
ATOM      6  N   UNL     1       1.499   3.621  19.687  0.00  0.00    +0.000 NA
ATOM      7  C   UNL     1       1.829   2.356  19.349  0.00  0.00    +0.000 A 
ATOM      8  C   UNL     1       2.811   2.077  18.431  0.00  0.00    +0.000 A 
ATOM      9  N   UNL     1       3.515   3.054  17.829  0.00  0.00    +0.000 NA
ATOM     10  C   UNL     1       3.222   4.340  18.143  0.00  0.00    +0.000 A 
ENDROOT
BRANCH   1  18
ATOM     11  C   UNL     1       4.613   3.419  12.446  0.00  0.00    +0.000 C 
ATOM     12  N   UNL     1       5.771   4.010  13.079  0.00  0.00    +0.000 N 
ATOM     13  C   UNL     1       7.006   4.140  12.505  0.00  0.00    +0.000 A 
ATOM     14  C   UNL     1       7.835   4.742  13.428  0.00  0.00    +0.000 A 
ATOM     15  C   UNL     1       7.070   5.004  14.595  0.00  0.00    +0.000 A 
ATOM     16  C   UNL     1       7.344   5.596  15.838  0.00  0.00    +0.000 A 
ATOM     17  C   UNL     1       6.311   5.733  16.783  0.00  0.00    +0.000 A 
ATOM     18  C   UNL     1       5.010   5.257  16.552  0.00  0.00    +0.000 A 
ATOM     19  C   UNL     1       4.762   4.628  15.312  0.00  0.00    +0.000 A 
ATOM     20  C   UNL     1       5.782   4.534  14.353  0.00  0.00    +0.000 A 
ENDBRANCH   1  18
BRANCH   3  21
ATOM     21  N   UNL     1       1.941   8.324  18.902  0.00  0.00    +0.000 N 
ATOM     22  H   UNL     1       1.636   8.766  18.037  0.00  0.00    +0.000 HD
BRANCH  21  23
ATOM     23  C   UNL     1       1.314   8.863  20.052  0.00  0.00    +0.000 A 
ATOM     24  C   UNL     1       1.794   8.560  21.333  0.00  0.00    +0.000 A 
ATOM     25  N   UNL     1       1.339   9.091  22.491  0.00  0.00    +0.000 NA
ATOM     26  C   UNL     1       0.303   9.941  22.393  0.00  0.00    +0.000 A 
ATOM     27  C   UNL     1      -0.313  10.253  21.198  0.00  0.00    +0.000 A 
ATOM     28  C   UNL     1       0.190   9.700  20.005  0.00  0.00    +0.000 A 
BRANCH  28  29
ATOM     29  C   UNL     1      -0.526  10.106  18.763  0.00  0.00    +0.000 C 
ATOM     30  O   UNL     1      -0.187   9.634  17.686  0.00  0.00    +0.000 OA
ATOM     31  N   UNL     1      -1.573  10.988  18.891  0.00  0.00    +0.000 N 
ATOM     32  H   UNL     1      -1.806  11.362  19.804  0.00  0.00    +0.000 HD
BRANCH  31  33
ATOM     33  C   UNL     1      -2.350  11.447  17.749  0.00  0.00    +0.000 C 
BRANCH  33  34
ATOM     34  C   UNL     1      -3.861  11.514  18.049  0.00  0.00    +0.000 C 
ATOM     35  C   UNL     1      -4.665  11.795  16.759  0.00  0.00    +0.000 C 
ATOM     36  O   UNL     1      -6.075  11.873  17.028  0.00  0.00    +0.000 OA
ATOM     37  C   UNL     1      -6.338  12.898  17.995  0.00  0.00    +0.000 C 
ATOM     38  C   UNL     1      -5.601  12.607  19.307  0.00  0.00    +0.000 C 
ATOM     39  N   UNL     1      -4.144  12.530  19.099  0.00  0.00    +0.000 NA
ATOM     40  H   UNL     1      -3.706  12.233  19.973  0.00  0.00    +0.000 HD
ENDBRANCH  33  34
ENDBRANCH  31  33
ENDBRANCH  28  29
ENDBRANCH  21  23
ENDBRANCH   3  21
TORSDOF 6
ENDMDL
MODEL 5
REMARK VINA RESULT:      -8.2      5.453      9.941
REMARK  Name = 
REMARK  7 active torsions:
REMARK  status: ('A' for Active; 'I' for Inactive)
REMARK    1  A    between atoms: C_1  and  N_2
REMARK    2  A    between atoms: C_8  and  C_9
REMARK    3  A    between atoms: C_11  and  N_12
REMARK    4  A    between atoms: N_12  and  C_13
REMARK    5  A    between atoms: C_18  and  C_19
REMARK    6  A    between atoms: N_21  and  C_22
REMARK    7  A    between atoms: C_22  and  C_23
REMARK                            x       y       z     vdW  Elec       q    Type
REMARK                         _______ _______ _______ _____ _____    ______ ____
ROOT
ATOM      1  C   UNL     1       3.921   5.754  18.600  0.00  0.00    +0.000 A 
ATOM      2  C   UNL     1       3.223   6.980  18.645  0.00  0.00    +0.000 A 
ATOM      3  C   UNL     1       2.156   7.236  19.507  0.00  0.00    +0.000 A 
ATOM      4  C   UNL     1       1.794   6.220  20.383  0.00  0.00    +0.000 A 
ATOM      5  C   UNL     1       2.446   4.991  20.387  0.00  0.00    +0.000 A 
ATOM      6  N   UNL     1       2.010   4.052  21.253  0.00  0.00    +0.000 NA
ATOM      7  C   UNL     1       2.609   2.844  21.193  0.00  0.00    +0.000 A 
ATOM      8  C   UNL     1       3.617   2.570  20.300  0.00  0.00    +0.000 A 
ATOM      9  N   UNL     1       4.076   3.501  19.446  0.00  0.00    +0.000 NA
ATOM     10  C   UNL     1       3.508   4.732  19.474  0.00  0.00    +0.000 A 
ENDROOT
BRANCH   1  18
ATOM     11  C   UNL     1       4.631   3.691  13.528  0.00  0.00    +0.000 C 
ATOM     12  N   UNL     1       5.782   4.317  14.140  0.00  0.00    +0.000 N 
ATOM     13  C   UNL     1       7.008   4.465  13.553  0.00  0.00    +0.000 A 
ATOM     14  C   UNL     1       7.832   5.100  14.458  0.00  0.00    +0.000 A 
ATOM     15  C   UNL     1       7.073   5.364  15.629  0.00  0.00    +0.000 A 
ATOM     16  C   UNL     1       7.345   5.982  16.859  0.00  0.00    +0.000 A 
ATOM     17  C   UNL     1       6.317   6.111  17.811  0.00  0.00    +0.000 A 
ATOM     18  C   UNL     1       5.025   5.603  17.600  0.00  0.00    +0.000 A 
ATOM     19  C   UNL     1       4.781   4.949  16.373  0.00  0.00    +0.000 A 
ATOM     20  C   UNL     1       5.793   4.862  15.406  0.00  0.00    +0.000 A 
ENDBRANCH   1  18
BRANCH   3  21
ATOM     21  N   UNL     1       1.382   8.414  19.381  0.00  0.00    +0.000 N 
ATOM     22  H   UNL     1       0.883   8.506  18.498  0.00  0.00    +0.000 HD
BRANCH  21  23
ATOM     23  C   UNL     1       0.782   9.144  20.436  0.00  0.00    +0.000 A 
ATOM     24  C   UNL     1       1.232   8.991  21.754  0.00  0.00    +0.000 A 
ATOM     25  N   UNL     1       0.803   9.702  22.821  0.00  0.00    +0.000 NA
ATOM     26  C   UNL     1      -0.176  10.594  22.592  0.00  0.00    +0.000 A 
ATOM     27  C   UNL     1      -0.761  10.777  21.355  0.00  0.00    +0.000 A 
ATOM     28  C   UNL     1      -0.286  10.035  20.257  0.00  0.00    +0.000 A 
BRANCH  28  29
ATOM     29  C   UNL     1      -0.964  10.311  18.960  0.00  0.00    +0.000 C 
ATOM     30  O   UNL     1      -0.403  10.029  17.910  0.00  0.00    +0.000 OA
ATOM     31  N   UNL     1      -2.226  10.855  19.004  0.00  0.00    +0.000 N 
ATOM     32  H   UNL     1      -2.644  11.085  19.900  0.00  0.00    +0.000 HD
BRANCH  31  33
ATOM     33  C   UNL     1      -2.988  11.157  17.802  0.00  0.00    +0.000 C 
BRANCH  33  34
ATOM     34  C   UNL     1      -4.341  11.830  18.110  0.00  0.00    +0.000 C 
ATOM     35  C   UNL     1      -5.321  10.824  18.753  0.00  0.00    +0.000 C 
ATOM     36  O   UNL     1      -6.591  11.436  19.033  0.00  0.00    +0.000 OA
ATOM     37  C   UNL     1      -7.163  11.964  17.828  0.00  0.00    +0.000 C 
ATOM     38  C   UNL     1      -6.235  13.012  17.205  0.00  0.00    +0.000 C 
ATOM     39  N   UNL     1      -4.917  12.440  16.880  0.00  0.00    +0.000 NA
ATOM     40  H   UNL     1      -4.303  13.193  16.566  0.00  0.00    +0.000 HD
ENDBRANCH  33  34
ENDBRANCH  31  33
ENDBRANCH  28  29
ENDBRANCH  21  23
ENDBRANCH   3  21
TORSDOF 6
ENDMDL
MODEL 6
REMARK VINA RESULT:      -8.2      4.334      7.344
REMARK  Name = 
REMARK  7 active torsions:
REMARK  status: ('A' for Active; 'I' for Inactive)
REMARK    1  A    between atoms: C_1  and  N_2
REMARK    2  A    between atoms: C_8  and  C_9
REMARK    3  A    between atoms: C_11  and  N_12
REMARK    4  A    between atoms: N_12  and  C_13
REMARK    5  A    between atoms: C_18  and  C_19
REMARK    6  A    between atoms: N_21  and  C_22
REMARK    7  A    between atoms: C_22  and  C_23
REMARK                            x       y       z     vdW  Elec       q    Type
REMARK                         _______ _______ _______ _____ _____    ______ ____
ROOT
ATOM      1  C   UNL     1      -0.318  12.994  21.088  0.00  0.00    +0.000 A 
ATOM      2  C   UNL     1      -1.521  13.690  21.340  0.00  0.00    +0.000 A 
ATOM      3  C   UNL     1      -2.507  13.244  22.221  0.00  0.00    +0.000 A 
ATOM      4  C   UNL     1      -2.258  12.057  22.900  0.00  0.00    +0.000 A 
ATOM      5  C   UNL     1      -1.090  11.328  22.695  0.00  0.00    +0.000 A 
ATOM      6  N   UNL     1      -0.943  10.174  23.377  0.00  0.00    +0.000 NA
ATOM      7  C   UNL     1       0.163   9.447  23.113  0.00  0.00    +0.000 A 
ATOM      8  C   UNL     1       1.104   9.853  22.199  0.00  0.00    +0.000 A 
ATOM      9  N   UNL     1       0.982  11.012  21.526  0.00  0.00    +0.000 NA
ATOM     10  C   UNL     1      -0.111  11.778  21.764  0.00  0.00    +0.000 A 
ENDROOT
BRANCH   1  18
ATOM     11  C   UNL     1       2.698  17.574  20.443  0.00  0.00    +0.000 C 
ATOM     12  N   UNL     1       2.826  16.563  19.417  0.00  0.00    +0.000 N 
ATOM     13  C   UNL     1       3.653  16.638  18.330  0.00  0.00    +0.000 A 
ATOM     14  C   UNL     1       3.480  15.487  17.591  0.00  0.00    +0.000 A 
ATOM     15  C   UNL     1       2.530  14.676  18.265  0.00  0.00    +0.000 A 
ATOM     16  C   UNL     1       1.965  13.414  18.020  0.00  0.00    +0.000 A 
ATOM     17  C   UNL     1       1.051  12.874  18.943  0.00  0.00    +0.000 A 
ATOM     18  C   UNL     1       0.638  13.570  20.092  0.00  0.00    +0.000 A 
ATOM     19  C   UNL     1       1.186  14.854  20.300  0.00  0.00    +0.000 A 
ATOM     20  C   UNL     1       2.133  15.371  19.403  0.00  0.00    +0.000 A 
ENDBRANCH   1  18
BRANCH   3  21
ATOM     21  N   UNL     1      -3.765  13.888  22.295  0.00  0.00    +0.000 N 
ATOM     22  H   UNL     1      -3.827  14.766  21.783  0.00  0.00    +0.000 HD
BRANCH  21  23
ATOM     23  C   UNL     1      -5.022  13.261  22.474  0.00  0.00    +0.000 A 
ATOM     24  C   UNL     1      -5.441  12.858  23.749  0.00  0.00    +0.000 A 
ATOM     25  N   UNL     1      -6.654  12.341  24.054  0.00  0.00    +0.000 NA
ATOM     26  C   UNL     1      -7.501  12.156  23.027  0.00  0.00    +0.000 A 
ATOM     27  C   UNL     1      -7.174  12.434  21.714  0.00  0.00    +0.000 A 
ATOM     28  C   UNL     1      -5.912  12.986  21.426  0.00  0.00    +0.000 A 
BRANCH  28  29
ATOM     29  C   UNL     1      -5.655  13.269  19.986  0.00  0.00    +0.000 C 
ATOM     30  O   UNL     1      -5.235  14.368  19.650  0.00  0.00    +0.000 OA
ATOM     31  N   UNL     1      -5.878  12.253  19.087  0.00  0.00    +0.000 N 
ATOM     32  H   UNL     1      -6.240  11.363  19.414  0.00  0.00    +0.000 HD
BRANCH  31  33
ATOM     33  C   UNL     1      -5.652  12.412  17.659  0.00  0.00    +0.000 C 
BRANCH  33  34
ATOM     34  C   UNL     1      -4.772  11.291  17.069  0.00  0.00    +0.000 C 
ATOM     35  C   UNL     1      -4.070  10.495  18.192  0.00  0.00    +0.000 C 
ATOM     36  O   UNL     1      -3.236   9.455  17.654  0.00  0.00    +0.000 OA
ATOM     37  C   UNL     1      -2.254  10.015  16.773  0.00  0.00    +0.000 C 
ATOM     38  C   UNL     1      -2.928  10.756  15.613  0.00  0.00    +0.000 C 
ATOM     39  N   UNL     1      -3.787  11.849  16.101  0.00  0.00    +0.000 NA
ATOM     40  H   UNL     1      -4.293  12.245  15.307  0.00  0.00    +0.000 HD
ENDBRANCH  33  34
ENDBRANCH  31  33
ENDBRANCH  28  29
ENDBRANCH  21  23
ENDBRANCH   3  21
TORSDOF 6
ENDMDL
MODEL 7
REMARK VINA RESULT:      -8.2      4.827     10.197
REMARK  Name = 
REMARK  7 active torsions:
REMARK  status: ('A' for Active; 'I' for Inactive)
REMARK    1  A    between atoms: C_1  and  N_2
REMARK    2  A    between atoms: C_8  and  C_9
REMARK    3  A    between atoms: C_11  and  N_12
REMARK    4  A    between atoms: N_12  and  C_13
REMARK    5  A    between atoms: C_18  and  C_19
REMARK    6  A    between atoms: N_21  and  C_22
REMARK    7  A    between atoms: C_22  and  C_23
REMARK                            x       y       z     vdW  Elec       q    Type
REMARK                         _______ _______ _______ _____ _____    ______ ____
ROOT
ATOM      1  C   UNL     1       3.697   5.106  18.632  0.00  0.00    +0.000 A 
ATOM      2  C   UNL     1       3.256   6.294  19.255  0.00  0.00    +0.000 A 
ATOM      3  C   UNL     1       2.164   6.358  20.121  0.00  0.00    +0.000 A 
ATOM      4  C   UNL     1       1.504   5.166  20.394  0.00  0.00    +0.000 A 
ATOM      5  C   UNL     1       1.893   3.964  19.812  0.00  0.00    +0.000 A 
ATOM      6  N   UNL     1       1.178   2.860  20.113  0.00  0.00    +0.000 NA
ATOM      7  C   UNL     1       1.528   1.717  19.485  0.00  0.00    +0.000 A 
ATOM      8  C   UNL     1       2.562   1.666  18.583  0.00  0.00    +0.000 A 
ATOM      9  N   UNL     1       3.298   2.753  18.288  0.00  0.00    +0.000 NA
ATOM     10  C   UNL     1       2.986   3.922  18.900  0.00  0.00    +0.000 A 
ENDROOT
BRANCH   1  18
ATOM     11  C   UNL     1       4.920   3.670  13.443  0.00  0.00    +0.000 C 
ATOM     12  N   UNL     1       5.952   4.359  14.186  0.00  0.00    +0.000 N 
ATOM     13  C   UNL     1       7.181   4.707  13.696  0.00  0.00    +0.000 A 
ATOM     14  C   UNL     1       7.873   5.337  14.709  0.00  0.00    +0.000 A 
ATOM     15  C   UNL     1       7.026   5.389  15.848  0.00  0.00    +0.000 A 
ATOM     16  C   UNL     1       7.155   5.905  17.147  0.00  0.00    +0.000 A 
ATOM     17  C   UNL     1       6.071   5.817  18.038  0.00  0.00    +0.000 A 
ATOM     18  C   UNL     1       4.863   5.187  17.696  0.00  0.00    +0.000 A 
ATOM     19  C   UNL     1       4.765   4.638  16.399  0.00  0.00    +0.000 A 
ATOM     20  C   UNL     1       5.830   4.768  15.496  0.00  0.00    +0.000 A 
ENDBRANCH   1  18
BRANCH   3  21
ATOM     21  N   UNL     1       1.660   7.602  20.570  0.00  0.00    +0.000 N 
ATOM     22  H   UNL     1       1.804   7.790  21.561  0.00  0.00    +0.000 HD
BRANCH  21  23
ATOM     23  C   UNL     1       1.518   8.780  19.797  0.00  0.00    +0.000 A 
ATOM     24  C   UNL     1       1.987   8.827  18.477  0.00  0.00    +0.000 A 
ATOM     25  N   UNL     1       1.821   9.858  17.618  0.00  0.00    +0.000 NA
ATOM     26  C   UNL     1       1.193  10.944  18.100  0.00  0.00    +0.000 A 
ATOM     27  C   UNL     1       0.760  11.053  19.406  0.00  0.00    +0.000 A 
ATOM     28  C   UNL     1       0.931   9.960  20.277  0.00  0.00    +0.000 A 
BRANCH  28  29
ATOM     29  C   UNL     1       0.418  10.161  21.660  0.00  0.00    +0.000 C 
ATOM     30  O   UNL     1       1.102   9.821  22.616  0.00  0.00    +0.000 OA
ATOM     31  N   UNL     1      -0.813  10.757  21.803  0.00  0.00    +0.000 N 
ATOM     32  H   UNL     1      -1.348  11.009  20.979  0.00  0.00    +0.000 HD
BRANCH  31  33
ATOM     33  C   UNL     1      -1.409  11.014  23.105  0.00  0.00    +0.000 C 
BRANCH  33  34
ATOM     34  C   UNL     1      -2.352  12.234  23.096  0.00  0.00    +0.000 C 
ATOM     35  C   UNL     1      -1.596  13.517  23.505  0.00  0.00    +0.000 C 
ATOM     36  O   UNL     1      -2.469  14.659  23.513  0.00  0.00    +0.000 OA
ATOM     37  C   UNL     1      -3.565  14.438  24.411  0.00  0.00    +0.000 C 
ATOM     38  C   UNL     1      -4.370  13.205  23.987  0.00  0.00    +0.000 C 
ATOM     39  N   UNL     1      -3.531  11.993  23.975  0.00  0.00    +0.000 NA
ATOM     40  H   UNL     1      -4.078  11.222  23.589  0.00  0.00    +0.000 HD
ENDBRANCH  33  34
ENDBRANCH  31  33
ENDBRANCH  28  29
ENDBRANCH  21  23
ENDBRANCH   3  21
TORSDOF 6
ENDMDL
MODEL 8
REMARK VINA RESULT:      -8.0      1.529      1.685
REMARK  Name = 
REMARK  7 active torsions:
REMARK  status: ('A' for Active; 'I' for Inactive)
REMARK    1  A    between atoms: C_1  and  N_2
REMARK    2  A    between atoms: C_8  and  C_9
REMARK    3  A    between atoms: C_11  and  N_12
REMARK    4  A    between atoms: N_12  and  C_13
REMARK    5  A    between atoms: C_18  and  C_19
REMARK    6  A    between atoms: N_21  and  C_22
REMARK    7  A    between atoms: C_22  and  C_23
REMARK                            x       y       z     vdW  Elec       q    Type
REMARK                         _______ _______ _______ _____ _____    ______ ____
ROOT
ATOM      1  C   UNL     1       2.839  14.470  18.854  0.00  0.00    +0.000 A 
ATOM      2  C   UNL     1       2.397  13.130  18.796  0.00  0.00    +0.000 A 
ATOM      3  C   UNL     1       1.055  12.756  18.720  0.00  0.00    +0.000 A 
ATOM      4  C   UNL     1       0.116  13.780  18.672  0.00  0.00    +0.000 A 
ATOM      5  C   UNL     1       0.491  15.119  18.723  0.00  0.00    +0.000 A 
ATOM      6  N   UNL     1      -0.489  16.047  18.697  0.00  0.00    +0.000 NA
ATOM      7  C   UNL     1      -0.110  17.337  18.818  0.00  0.00    +0.000 A 
ATOM      8  C   UNL     1       1.206  17.702  18.958  0.00  0.00    +0.000 A 
ATOM      9  N   UNL     1       2.196  16.791  18.964  0.00  0.00    +0.000 NA
ATOM     10  C   UNL     1       1.863  15.483  18.839  0.00  0.00    +0.000 A 
ENDROOT
BRANCH   1  18
ATOM     11  C   UNL     1       6.570  15.330  22.831  0.00  0.00    +0.000 C 
ATOM     12  N   UNL     1       7.066  15.294  21.474  0.00  0.00    +0.000 N 
ATOM     13  C   UNL     1       8.378  15.422  21.106  0.00  0.00    +0.000 A 
ATOM     14  C   UNL     1       8.438  15.342  19.731  0.00  0.00    +0.000 A 
ATOM     15  C   UNL     1       7.118  15.139  19.248  0.00  0.00    +0.000 A 
ATOM     16  C   UNL     1       6.551  14.971  17.975  0.00  0.00    +0.000 A 
ATOM     17  C   UNL     1       5.167  14.747  17.857  0.00  0.00    +0.000 A 
ATOM     18  C   UNL     1       4.309  14.728  18.969  0.00  0.00    +0.000 A 
ATOM     19  C   UNL     1       4.890  14.938  20.238  0.00  0.00    +0.000 A 
ATOM     20  C   UNL     1       6.277  15.115  20.358  0.00  0.00    +0.000 A 
ENDBRANCH   1  18
BRANCH   3  21
ATOM     21  N   UNL     1       0.666  11.402  18.848  0.00  0.00    +0.000 N 
ATOM     22  H   UNL     1       0.716  10.859  17.988  0.00  0.00    +0.000 HD
BRANCH  21  23
ATOM     23  C   UNL     1       0.766  10.605  20.014  0.00  0.00    +0.000 A 
ATOM     24  C   UNL     1       0.385  11.116  21.262  0.00  0.00    +0.000 A 
ATOM     25  N   UNL     1       0.345  10.420  22.421  0.00  0.00    +0.000 NA
ATOM     26  C   UNL     1       0.757   9.142  22.366  0.00  0.00    +0.000 A 
ATOM     27  C   UNL     1       1.236   8.548  21.215  0.00  0.00    +0.000 A 
ATOM     28  C   UNL     1       1.252   9.290  20.018  0.00  0.00    +0.000 A 
BRANCH  28  29
ATOM     29  C   UNL     1       1.768   8.562  18.826  0.00  0.00    +0.000 C 
ATOM     30  O   UNL     1       1.652   9.060  17.714  0.00  0.00    +0.000 OA
ATOM     31  N   UNL     1       2.389   7.353  19.036  0.00  0.00    +0.000 N 
ATOM     32  H   UNL     1       2.448   6.975  19.975  0.00  0.00    +0.000 HD
BRANCH  31  33
ATOM     33  C   UNL     1       2.939   6.560  17.948  0.00  0.00    +0.000 C 
BRANCH  33  34
ATOM     34  C   UNL     1       4.479   6.630  17.882  0.00  0.00    +0.000 C 
ATOM     35  C   UNL     1       4.970   6.580  16.418  0.00  0.00    +0.000 C 
ATOM     36  O   UNL     1       6.404   6.632  16.345  0.00  0.00    +0.000 OA
ATOM     37  C   UNL     1       6.977   5.545  17.084  0.00  0.00    +0.000 C 
ATOM     38  C   UNL     1       6.555   5.610  18.556  0.00  0.00    +0.000 C 
ATOM     39  N   UNL     1       5.090   5.545  18.698  0.00  0.00    +0.000 NA
ATOM     40  H   UNL     1       4.851   5.696  19.680  0.00  0.00    +0.000 HD
ENDBRANCH  33  34
ENDBRANCH  31  33
ENDBRANCH  28  29
ENDBRANCH  21  23
ENDBRANCH   3  21
TORSDOF 6
ENDMDL
MODEL 9
REMARK VINA RESULT:      -7.9      3.924      6.121
REMARK  Name = 
REMARK  7 active torsions:
REMARK  status: ('A' for Active; 'I' for Inactive)
REMARK    1  A    between atoms: C_1  and  N_2
REMARK    2  A    between atoms: C_8  and  C_9
REMARK    3  A    between atoms: C_11  and  N_12
REMARK    4  A    between atoms: N_12  and  C_13
REMARK    5  A    between atoms: C_18  and  C_19
REMARK    6  A    between atoms: N_21  and  C_22
REMARK    7  A    between atoms: C_22  and  C_23
REMARK                            x       y       z     vdW  Elec       q    Type
REMARK                         _______ _______ _______ _____ _____    ______ ____
ROOT
ATOM      1  C   UNL     1      -0.294  10.981  20.225  0.00  0.00    +0.000 A 
ATOM      2  C   UNL     1       0.788  10.089  20.392  0.00  0.00    +0.000 A 
ATOM      3  C   UNL     1       1.150   9.122  19.454  0.00  0.00    +0.000 A 
ATOM      4  C   UNL     1       0.407   9.071  18.280  0.00  0.00    +0.000 A 
ATOM      5  C   UNL     1      -0.668   9.926  18.058  0.00  0.00    +0.000 A 
ATOM      6  N   UNL     1      -1.350   9.788  16.902  0.00  0.00    +0.000 NA
ATOM      7  C   UNL     1      -2.432  10.579  16.735  0.00  0.00    +0.000 A 
ATOM      8  C   UNL     1      -2.828  11.486  17.687  0.00  0.00    +0.000 A 
ATOM      9  N   UNL     1      -2.146  11.650  18.835  0.00  0.00    +0.000 NA
ATOM     10  C   UNL     1      -1.049  10.881  19.043  0.00  0.00    +0.000 A 
ENDROOT
BRANCH   1  18
ATOM     11  C   UNL     1       1.232  16.050  21.793  0.00  0.00    +0.000 C 
ATOM     12  N   UNL     1       0.231  15.394  22.605  0.00  0.00    +0.000 N 
ATOM     13  C   UNL     1      -0.383  15.939  23.699  0.00  0.00    +0.000 A 
ATOM     14  C   UNL     1      -1.262  15.001  24.198  0.00  0.00    +0.000 A 
ATOM     15  C   UNL     1      -1.192  13.853  23.365  0.00  0.00    +0.000 A 
ATOM     16  C   UNL     1      -1.838  12.607  23.351  0.00  0.00    +0.000 A 
ATOM     17  C   UNL     1      -1.548  11.687  22.327  0.00  0.00    +0.000 A 
ATOM     18  C   UNL     1      -0.594  11.946  21.330  0.00  0.00    +0.000 A 
ATOM     19  C   UNL     1       0.076  13.188  21.382  0.00  0.00    +0.000 A 
ATOM     20  C   UNL     1      -0.249  14.122  22.377  0.00  0.00    +0.000 A 
ENDBRANCH   1  18
BRANCH   3  21
ATOM     21  N   UNL     1       2.124   8.140  19.755  0.00  0.00    +0.000 N 
ATOM     22  H   UNL     1       2.835   8.434  20.423  0.00  0.00    +0.000 HD
BRANCH  21  23
ATOM     23  C   UNL     1       1.943   6.736  19.719  0.00  0.00    +0.000 A 
ATOM     24  C   UNL     1       1.110   6.102  20.650  0.00  0.00    +0.000 A 
ATOM     25  N   UNL     1       0.787   4.788  20.652  0.00  0.00    +0.000 NA
ATOM     26  C   UNL     1       1.362   4.029  19.704  0.00  0.00    +0.000 A 
ATOM     27  C   UNL     1       2.266   4.520  18.783  0.00  0.00    +0.000 A 
ATOM     28  C   UNL     1       2.573   5.894  18.792  0.00  0.00    +0.000 A 
BRANCH  28  29
ATOM     29  C   UNL     1       3.544   6.336  17.752  0.00  0.00    +0.000 C 
ATOM     30  O   UNL     1       3.708   7.531  17.546  0.00  0.00    +0.000 OA
ATOM     31  N   UNL     1       4.244   5.363  17.079  0.00  0.00    +0.000 N 
ATOM     32  H   UNL     1       4.062   4.385  17.277  0.00  0.00    +0.000 HD
BRANCH  31  33
ATOM     33  C   UNL     1       5.225   5.678  16.052  0.00  0.00    +0.000 C 
BRANCH  33  34
ATOM     34  C   UNL     1       6.599   6.057  16.639  0.00  0.00    +0.000 C 
ATOM     35  C   UNL     1       6.903   5.228  17.907  0.00  0.00    +0.000 C 
ATOM     36  O   UNL     1       8.177   5.582  18.471  0.00  0.00    +0.000 OA
ATOM     37  C   UNL     1       8.205   6.979  18.791  0.00  0.00    +0.000 C 
ATOM     38  C   UNL     1       7.970   7.825  17.535  0.00  0.00    +0.000 C 
ATOM     39  N   UNL     1       6.668   7.519  16.916  0.00  0.00    +0.000 NA
ATOM     40  H   UNL     1       6.599   8.026  16.032  0.00  0.00    +0.000 HD
ENDBRANCH  33  34
ENDBRANCH  31  33
ENDBRANCH  28  29
ENDBRANCH  21  23
ENDBRANCH   3  21
TORSDOF 6
ENDMDL
