MODEL 1
REMARK VINA RESULT:      -7.6      0.000      0.000
REMARK  Name = 
REMARK  7 active torsions:
REMARK  status: ('A' for Active; 'I' for Inactive)
REMARK    1  A    between atoms: C_1  and  N_2
REMARK    2  A    between atoms: N_2  and  C_3
REMARK    3  A    between atoms: N_2  and  C_4
REMARK    4  A    between atoms: C_4  and  C_5
REMARK    5  A    between atoms: C_6  and  O_7
REMARK    6  A    between atoms: C_12  and  C_13
REMARK    7  A    between atoms: C_13  and  C_14
REMARK                            x       y       z     vdW  Elec       q    Type
REMARK                         _______ _______ _______ _____ _____    ______ ____
ROOT
ATOM      1  C   UNL     1       4.798   4.641  17.508  0.00  0.00    +0.000 A 
ATOM      2  C   UNL     1       5.375   4.978  18.754  0.00  0.00    +0.000 A 
ATOM      3  C   UNL     1       6.656   5.518  18.875  0.00  0.00    +0.000 A 
ATOM      4  C   UNL     1       7.456   5.720  17.750  0.00  0.00    +0.000 A 
ATOM      5  C   UNL     1       6.914   5.326  16.532  0.00  0.00    +0.000 A 
ATOM      6  O   UNL     1       7.553   5.392  15.329  0.00  0.00    +0.000 OA
ATOM      7  C   UNL     1       6.704   4.876  14.395  0.00  0.00    +0.000 A 
ATOM      8  C   UNL     1       5.513   4.513  14.985  0.00  0.00    +0.000 A 
ATOM      9  C   UNL     1       5.637   4.794  16.375  0.00  0.00    +0.000 A 
ENDROOT
BRANCH   2  10
ATOM     10  O   UNL     1       4.683   4.807  19.926  0.00  0.00    +0.000 OA
ATOM     11  H   UNL     1       3.754   4.597  19.683  0.00  0.00    +0.000 HD
ENDBRANCH   2  10
BRANCH   1  12
ATOM     12  C   UNL     1       3.397   4.084  17.366  0.00  0.00    +0.000 C 
BRANCH  12  14
ATOM     13  C   UNL     1       1.508   3.195  18.630  0.00  0.00    +0.000 C 
ATOM     14  N   UNL     1       2.968   3.163  18.446  0.00  0.00    +0.000 NA
ATOM     15  C   UNL     1       3.363   1.793  18.079  0.00  0.00    +0.000 C 
ENDBRANCH  12  14
ENDBRANCH   1  12
BRANCH   7  16
ATOM     16  C   UNL     1       7.203   4.808  12.995  0.00  0.00    +0.000 C 
BRANCH  16  17
ATOM     17  C   UNL     1       6.695   3.602  12.236  0.00  0.00    +0.000 A 
ATOM     18  C   UNL     1       7.586   2.650  11.717  0.00  0.00    +0.000 A 
ATOM     19  C   UNL     1       7.107   1.520  11.051  0.00  0.00    +0.000 A 
ATOM     20  C   UNL     1       5.736   1.331  10.891  0.00  0.00    +0.000 A 
ATOM     21  C   UNL     1       4.840   2.272  11.391  0.00  0.00    +0.000 A 
ATOM     22  C   UNL     1       5.317   3.400  12.061  0.00  0.00    +0.000 A 
ENDBRANCH  16  17
ENDBRANCH   7  16
TORSDOF 5
ENDMDL
MODEL 2
REMARK VINA RESULT:      -7.5      0.152      1.064
REMARK  Name = 
REMARK  7 active torsions:
REMARK  status: ('A' for Active; 'I' for Inactive)
REMARK    1  A    between atoms: C_1  and  N_2
REMARK    2  A    between atoms: N_2  and  C_3
REMARK    3  A    between atoms: N_2  and  C_4
REMARK    4  A    between atoms: C_4  and  C_5
REMARK    5  A    between atoms: C_6  and  O_7
REMARK    6  A    between atoms: C_12  and  C_13
REMARK    7  A    between atoms: C_13  and  C_14
REMARK                            x       y       z     vdW  Elec       q    Type
REMARK                         _______ _______ _______ _____ _____    ______ ____
ROOT
ATOM      1  C   UNL     1       4.768   4.808  17.585  0.00  0.00    +0.000 A 
ATOM      2  C   UNL     1       5.343   5.154  18.829  0.00  0.00    +0.000 A 
ATOM      3  C   UNL     1       6.636   5.666  18.950  0.00  0.00    +0.000 A 
ATOM      4  C   UNL     1       7.449   5.828  17.828  0.00  0.00    +0.000 A 
ATOM      5  C   UNL     1       6.906   5.424  16.613  0.00  0.00    +0.000 A 
ATOM      6  O   UNL     1       7.556   5.453  15.414  0.00  0.00    +0.000 OA
ATOM      7  C   UNL     1       6.702   4.939  14.483  0.00  0.00    +0.000 A 
ATOM      8  C   UNL     1       5.498   4.616  15.071  0.00  0.00    +0.000 A 
ATOM      9  C   UNL     1       5.619   4.920  16.456  0.00  0.00    +0.000 A 
ENDROOT
BRANCH   2  10
ATOM     10  O   UNL     1       4.639   5.022  19.999  0.00  0.00    +0.000 OA
ATOM     11  H   UNL     1       3.696   4.896  19.753  0.00  0.00    +0.000 HD
ENDBRANCH   2  10
BRANCH   1  12
ATOM     12  C   UNL     1       3.355   4.282  17.443  0.00  0.00    +0.000 C 
BRANCH  12  14
ATOM     13  C   UNL     1       1.465   3.307  18.641  0.00  0.00    +0.000 C 
ATOM     14  N   UNL     1       2.929   3.318  18.486  0.00  0.00    +0.000 NA
ATOM     15  C   UNL     1       3.366   1.970  18.086  0.00  0.00    +0.000 C 
ENDBRANCH  12  14
ENDBRANCH   1  12
BRANCH   7  16
ATOM     16  C   UNL     1       7.209   4.833  13.088  0.00  0.00    +0.000 C 
BRANCH  16  17
ATOM     17  C   UNL     1       6.656   3.641  12.339  0.00  0.00    +0.000 A 
ATOM     18  C   UNL     1       5.276   3.499  12.131  0.00  0.00    +0.000 A 
ATOM     19  C   UNL     1       4.777   2.414  11.406  0.00  0.00    +0.000 A 
ATOM     20  C   UNL     1       5.648   1.459  10.886  0.00  0.00    +0.000 A 
ATOM     21  C   UNL     1       7.019   1.582  11.093  0.00  0.00    +0.000 A 
ATOM     22  C   UNL     1       7.521   2.667  11.814  0.00  0.00    +0.000 A 
ENDBRANCH  16  17
ENDBRANCH   7  16
TORSDOF 5
ENDMDL
MODEL 3
REMARK VINA RESULT:      -7.4      2.076      2.950
REMARK  Name = 
REMARK  7 active torsions:
REMARK  status: ('A' for Active; 'I' for Inactive)
REMARK    1  A    between atoms: C_1  and  N_2
REMARK    2  A    between atoms: N_2  and  C_3
REMARK    3  A    between atoms: N_2  and  C_4
REMARK    4  A    between atoms: C_4  and  C_5
REMARK    5  A    between atoms: C_6  and  O_7
REMARK    6  A    between atoms: C_12  and  C_13
REMARK    7  A    between atoms: C_13  and  C_14
REMARK                            x       y       z     vdW  Elec       q    Type
REMARK                         _______ _______ _______ _____ _____    ______ ____
ROOT
ATOM      1  C   UNL     1       3.340   5.137  19.215  0.00  0.00    +0.000 A 
ATOM      2  C   UNL     1       2.444   6.191  19.508  0.00  0.00    +0.000 A 
ATOM      3  C   UNL     1       2.426   7.391  18.797  0.00  0.00    +0.000 A 
ATOM      4  C   UNL     1       3.336   7.625  17.766  0.00  0.00    +0.000 A 
ATOM      5  C   UNL     1       4.261   6.616  17.523  0.00  0.00    +0.000 A 
ATOM      6  O   UNL     1       5.260   6.673  16.597  0.00  0.00    +0.000 OA
ATOM      7  C   UNL     1       5.968   5.511  16.699  0.00  0.00    +0.000 A 
ATOM      8  C   UNL     1       5.406   4.696  17.657  0.00  0.00    +0.000 A 
ATOM      9  C   UNL     1       4.299   5.404  18.206  0.00  0.00    +0.000 A 
ENDROOT
BRANCH   2  10
ATOM     10  O   UNL     1       1.515   6.075  20.512  0.00  0.00    +0.000 OA
ATOM     11  H   UNL     1       1.035   5.231  20.363  0.00  0.00    +0.000 HD
ENDBRANCH   2  10
BRANCH   1  12
ATOM     12  C   UNL     1       3.344   3.821  19.962  0.00  0.00    +0.000 C 
BRANCH  12  14
ATOM     13  C   UNL     1       1.776   2.095  19.238  0.00  0.00    +0.000 C 
ATOM     14  N   UNL     1       2.011   3.207  20.174  0.00  0.00    +0.000 NA
ATOM     15  C   UNL     1       1.949   2.681  21.548  0.00  0.00    +0.000 C 
ENDBRANCH  12  14
ENDBRANCH   1  12
BRANCH   7  16
ATOM     16  C   UNL     1       7.145   5.357  15.802  0.00  0.00    +0.000 C 
BRANCH  16  17
ATOM     17  C   UNL     1       6.795   4.778  14.449  0.00  0.00    +0.000 A 
ATOM     18  C   UNL     1       7.627   4.989  13.339  0.00  0.00    +0.000 A 
ATOM     19  C   UNL     1       7.317   4.420  12.102  0.00  0.00    +0.000 A 
ATOM     20  C   UNL     1       6.171   3.639  11.959  0.00  0.00    +0.000 A 
ATOM     21  C   UNL     1       5.330   3.431  13.048  0.00  0.00    +0.000 A 
ATOM     22  C   UNL     1       5.641   3.995  14.286  0.00  0.00    +0.000 A 
ENDBRANCH  16  17
ENDBRANCH   7  16
TORSDOF 5
ENDMDL
MODEL 4
REMARK VINA RESULT:      -7.1      1.908      2.952
REMARK  Name = 
REMARK  7 active torsions:
REMARK  status: ('A' for Active; 'I' for Inactive)
REMARK    1  A    between atoms: C_1  and  N_2
REMARK    2  A    between atoms: N_2  and  C_3
REMARK    3  A    between atoms: N_2  and  C_4
REMARK    4  A    between atoms: C_4  and  C_5
REMARK    5  A    between atoms: C_6  and  O_7
REMARK    6  A    between atoms: C_12  and  C_13
REMARK    7  A    between atoms: C_13  and  C_14
REMARK                            x       y       z     vdW  Elec       q    Type
REMARK                         _______ _______ _______ _____ _____    ______ ____
ROOT
ATOM      1  C   UNL     1       3.318   5.036  19.048  0.00  0.00    +0.000 A 
ATOM      2  C   UNL     1       2.445   6.075  19.443  0.00  0.00    +0.000 A 
ATOM      3  C   UNL     1       2.433   7.329  18.833  0.00  0.00    +0.000 A 
ATOM      4  C   UNL     1       3.327   7.634  17.806  0.00  0.00    +0.000 A 
ATOM      5  C   UNL     1       4.231   6.634  17.463  0.00  0.00    +0.000 A 
ATOM      6  O   UNL     1       5.214   6.751  16.525  0.00  0.00    +0.000 OA
ATOM      7  C   UNL     1       5.904   5.575  16.518  0.00  0.00    +0.000 A 
ATOM      8  C   UNL     1       5.347   4.693  17.418  0.00  0.00    +0.000 A 
ATOM      9  C   UNL     1       4.263   5.370  18.044  0.00  0.00    +0.000 A 
ENDROOT
BRANCH   2  10
ATOM     10  O   UNL     1       1.534   5.891  20.452  0.00  0.00    +0.000 OA
ATOM     11  H   UNL     1       1.101   6.758  20.610  0.00  0.00    +0.000 HD
ENDBRANCH   2  10
BRANCH   1  12
ATOM     12  C   UNL     1       3.315   3.663  19.685  0.00  0.00    +0.000 C 
BRANCH  12  14
ATOM     13  C   UNL     1       3.592   1.478  18.631  0.00  0.00    +0.000 C 
ATOM     14  N   UNL     1       2.666   2.594  18.887  0.00  0.00    +0.000 NA
ATOM     15  C   UNL     1       1.512   2.079  19.643  0.00  0.00    +0.000 C 
ENDBRANCH  12  14
ENDBRANCH   1  12
BRANCH   7  16
ATOM     16  C   UNL     1       7.062   5.479  15.588  0.00  0.00    +0.000 C 
BRANCH  16  17
ATOM     17  C   UNL     1       6.730   4.776  14.290  0.00  0.00    +0.000 A 
ATOM     18  C   UNL     1       5.550   4.030  14.157  0.00  0.00    +0.000 A 
ATOM     19  C   UNL     1       5.233   3.415  12.943  0.00  0.00    +0.000 A 
ATOM     20  C   UNL     1       6.092   3.536  11.852  0.00  0.00    +0.000 A 
ATOM     21  C   UNL     1       7.272   4.264  11.973  0.00  0.00    +0.000 A 
ATOM     22  C   UNL     1       7.589   4.882  13.184  0.00  0.00    +0.000 A 
ENDBRANCH  16  17
ENDBRANCH   7  16
TORSDOF 5
ENDMDL
MODEL 5
REMARK VINA RESULT:      -7.0      4.131      8.055
REMARK  Name = 
REMARK  7 active torsions:
REMARK  status: ('A' for Active; 'I' for Inactive)
REMARK    1  A    between atoms: C_1  and  N_2
REMARK    2  A    between atoms: N_2  and  C_3
REMARK    3  A    between atoms: N_2  and  C_4
REMARK    4  A    between atoms: C_4  and  C_5
REMARK    5  A    between atoms: C_6  and  O_7
REMARK    6  A    between atoms: C_12  and  C_13
REMARK    7  A    between atoms: C_13  and  C_14
REMARK                            x       y       z     vdW  Elec       q    Type
REMARK                         _______ _______ _______ _____ _____    ______ ____
ROOT
ATOM      1  C   UNL     1       3.705   3.720  18.516  0.00  0.00    +0.000 A 
ATOM      2  C   UNL     1       3.186   2.405  18.514  0.00  0.00    +0.000 A 
ATOM      3  C   UNL     1       1.979   2.066  19.126  0.00  0.00    +0.000 A 
ATOM      4  C   UNL     1       1.231   3.022  19.814  0.00  0.00    +0.000 A 
ATOM      5  C   UNL     1       1.777   4.300  19.873  0.00  0.00    +0.000 A 
ATOM      6  O   UNL     1       1.229   5.357  20.538  0.00  0.00    +0.000 OA
ATOM      7  C   UNL     1       2.083   6.410  20.389  0.00  0.00    +0.000 A 
ATOM      8  C   UNL     1       3.155   6.045  19.603  0.00  0.00    +0.000 A 
ATOM      9  C   UNL     1       2.971   4.674  19.266  0.00  0.00    +0.000 A 
ENDROOT
BRANCH   2  10
ATOM     10  O   UNL     1       3.845   1.382  17.880  0.00  0.00    +0.000 OA
ATOM     11  H   UNL     1       3.312   0.568  18.020  0.00  0.00    +0.000 HD
ENDBRANCH   2  10
BRANCH   1  12
ATOM     12  C   UNL     1       4.998   4.101  17.828  0.00  0.00    +0.000 C 
BRANCH  12  14
ATOM     13  C   UNL     1       5.057   5.997  16.291  0.00  0.00    +0.000 C 
ATOM     14  N   UNL     1       4.861   4.543  16.419  0.00  0.00    +0.000 NA
ATOM     15  C   UNL     1       5.886   3.862  15.611  0.00  0.00    +0.000 C 
ENDBRANCH  12  14
ENDBRANCH   1  12
BRANCH   7  16
ATOM     16  C   UNL     1       1.711   7.682  21.068  0.00  0.00    +0.000 C 
BRANCH  16  17
ATOM     17  C   UNL     1       1.062   8.686  20.141  0.00  0.00    +0.000 A 
ATOM     18  C   UNL     1       1.533   8.869  18.833  0.00  0.00    +0.000 A 
ATOM     19  C   UNL     1       0.904   9.771  17.972  0.00  0.00    +0.000 A 
ATOM     20  C   UNL     1      -0.198  10.503  18.410  0.00  0.00    +0.000 A 
ATOM     21  C   UNL     1      -0.670  10.341  19.709  0.00  0.00    +0.000 A 
ATOM     22  C   UNL     1      -0.046   9.437  20.570  0.00  0.00    +0.000 A 
ENDBRANCH  16  17
ENDBRANCH   7  16
TORSDOF 5
ENDMDL
MODEL 6
REMARK VINA RESULT:      -7.0      1.436      2.095
REMARK  Name = 
REMARK  7 active torsions:
REMARK  status: ('A' for Active; 'I' for Inactive)
REMARK    1  A    between atoms: C_1  and  N_2
REMARK    2  A    between atoms: N_2  and  C_3
REMARK    3  A    between atoms: N_2  and  C_4
REMARK    4  A    between atoms: C_4  and  C_5
REMARK    5  A    between atoms: C_6  and  O_7
REMARK    6  A    between atoms: C_12  and  C_13
REMARK    7  A    between atoms: C_13  and  C_14
REMARK                            x       y       z     vdW  Elec       q    Type
REMARK                         _______ _______ _______ _____ _____    ______ ____
ROOT
ATOM      1  C   UNL     1       4.362   4.773  18.244  0.00  0.00    +0.000 A 
ATOM      2  C   UNL     1       3.761   5.926  18.798  0.00  0.00    +0.000 A 
ATOM      3  C   UNL     1       3.701   7.147  18.125  0.00  0.00    +0.000 A 
ATOM      4  C   UNL     1       4.276   7.298  16.863  0.00  0.00    +0.000 A 
ATOM      5  C   UNL     1       4.926   6.181  16.348  0.00  0.00    +0.000 A 
ATOM      6  O   UNL     1       5.592   6.140  15.158  0.00  0.00    +0.000 OA
ATOM      7  C   UNL     1       6.120   4.888  15.038  0.00  0.00    +0.000 A 
ATOM      8  C   UNL     1       5.766   4.118  16.125  0.00  0.00    +0.000 A 
ATOM      9  C   UNL     1       4.995   4.948  16.987  0.00  0.00    +0.000 A 
ENDROOT
BRANCH   2  10
ATOM     10  O   UNL     1       3.177   5.896  20.039  0.00  0.00    +0.000 OA
ATOM     11  H   UNL     1       3.875   5.634  20.678  0.00  0.00    +0.000 HD
ENDBRANCH   2  10
BRANCH   1  12
ATOM     12  C   UNL     1       4.403   3.437  18.955  0.00  0.00    +0.000 C 
BRANCH  12  14
ATOM     13  C   UNL     1       3.755   1.150  18.398  0.00  0.00    +0.000 C 
ATOM     14  N   UNL     1       3.278   2.520  18.649  0.00  0.00    +0.000 NA
ATOM     15  C   UNL     1       2.368   2.492  19.806  0.00  0.00    +0.000 C 
ENDBRANCH  12  14
ENDBRANCH   1  12
BRANCH   7  16
ATOM     16  C   UNL     1       6.932   4.613  13.822  0.00  0.00    +0.000 C 
BRANCH  16  17
ATOM     17  C   UNL     1       6.227   3.724  12.821  0.00  0.00    +0.000 A 
ATOM     18  C   UNL     1       4.876   3.928  12.505  0.00  0.00    +0.000 A 
ATOM     19  C   UNL     1       4.242   3.127  11.551  0.00  0.00    +0.000 A 
ATOM     20  C   UNL     1       4.950   2.113  10.908  0.00  0.00    +0.000 A 
ATOM     21  C   UNL     1       6.288   1.892  11.219  0.00  0.00    +0.000 A 
ATOM     22  C   UNL     1       6.924   2.694  12.169  0.00  0.00    +0.000 A 
ENDBRANCH  16  17
ENDBRANCH   7  16
TORSDOF 5
ENDMDL
MODEL 7
REMARK VINA RESULT:      -7.0      4.147      8.128
REMARK  Name = 
REMARK  7 active torsions:
REMARK  status: ('A' for Active; 'I' for Inactive)
REMARK    1  A    between atoms: C_1  and  N_2
REMARK    2  A    between atoms: N_2  and  C_3
REMARK    3  A    between atoms: N_2  and  C_4
REMARK    4  A    between atoms: C_4  and  C_5
REMARK    5  A    between atoms: C_6  and  O_7
REMARK    6  A    between atoms: C_12  and  C_13
REMARK    7  A    between atoms: C_13  and  C_14
REMARK                            x       y       z     vdW  Elec       q    Type
REMARK                         _______ _______ _______ _____ _____    ______ ____
ROOT
ATOM      1  C   UNL     1       3.720   3.736  18.558  0.00  0.00    +0.000 A 
ATOM      2  C   UNL     1       3.215   2.416  18.564  0.00  0.00    +0.000 A 
ATOM      3  C   UNL     1       2.011   2.067  19.177  0.00  0.00    +0.000 A 
ATOM      4  C   UNL     1       1.254   3.019  19.860  0.00  0.00    +0.000 A 
ATOM      5  C   UNL     1       1.785   4.303  19.911  0.00  0.00    +0.000 A 
ATOM      6  O   UNL     1       1.226   5.359  20.570  0.00  0.00    +0.000 OA
ATOM      7  C   UNL     1       2.069   6.420  20.415  0.00  0.00    +0.000 A 
ATOM      8  C   UNL     1       3.144   6.061  19.631  0.00  0.00    +0.000 A 
ATOM      9  C   UNL     1       2.976   4.686  19.302  0.00  0.00    +0.000 A 
ENDROOT
BRANCH   2  10
ATOM     10  O   UNL     1       3.885   1.396  17.936  0.00  0.00    +0.000 OA
ATOM     11  H   UNL     1       4.845   1.572  18.048  0.00  0.00    +0.000 HD
ENDBRANCH   2  10
BRANCH   1  12
ATOM     12  C   UNL     1       5.009   4.127  17.868  0.00  0.00    +0.000 C 
BRANCH  12  14
ATOM     13  C   UNL     1       5.072   6.027  16.336  0.00  0.00    +0.000 C 
ATOM     14  N   UNL     1       4.866   4.574  16.461  0.00  0.00    +0.000 NA
ATOM     15  C   UNL     1       5.880   3.888  15.645  0.00  0.00    +0.000 C 
ENDBRANCH  12  14
ENDBRANCH   1  12
BRANCH   7  16
ATOM     16  C   UNL     1       1.683   7.691  21.086  0.00  0.00    +0.000 C 
BRANCH  16  17
ATOM     17  C   UNL     1       1.017   8.681  20.155  0.00  0.00    +0.000 A 
ATOM     18  C   UNL     1      -0.076   9.447  20.583  0.00  0.00    +0.000 A 
ATOM     19  C   UNL     1      -0.662  10.386  19.730  0.00  0.00    +0.000 A 
ATOM     20  C   UNL     1      -0.164  10.565  18.440  0.00  0.00    +0.000 A 
ATOM     21  C   UNL     1       0.914   9.804  17.998  0.00  0.00    +0.000 A 
ATOM     22  C   UNL     1       1.503   8.868  18.850  0.00  0.00    +0.000 A 
ENDBRANCH  16  17
ENDBRANCH   7  16
TORSDOF 5
ENDMDL
MODEL 8
REMARK VINA RESULT:      -7.0      4.543      7.704
REMARK  Name = 
REMARK  7 active torsions:
REMARK  status: ('A' for Active; 'I' for Inactive)
REMARK    1  A    between atoms: C_1  and  N_2
REMARK    2  A    between atoms: N_2  and  C_3
REMARK    3  A    between atoms: N_2  and  C_4
REMARK    4  A    between atoms: C_4  and  C_5
REMARK    5  A    between atoms: C_6  and  O_7
REMARK    6  A    between atoms: C_12  and  C_13
REMARK    7  A    between atoms: C_13  and  C_14
REMARK                            x       y       z     vdW  Elec       q    Type
REMARK                         _______ _______ _______ _____ _____    ______ ____
ROOT
ATOM      1  C   UNL     1       3.591   4.732  19.596  0.00  0.00    +0.000 A 
ATOM      2  C   UNL     1       4.669   3.972  19.087  0.00  0.00    +0.000 A 
ATOM      3  C   UNL     1       5.488   4.418  18.050  0.00  0.00    +0.000 A 
ATOM      4  C   UNL     1       5.253   5.646  17.429  0.00  0.00    +0.000 A 
ATOM      5  C   UNL     1       4.151   6.362  17.885  0.00  0.00    +0.000 A 
ATOM      6  O   UNL     1       3.725   7.553  17.377  0.00  0.00    +0.000 OA
ATOM      7  C   UNL     1       2.599   7.902  18.064  0.00  0.00    +0.000 A 
ATOM      8  C   UNL     1       2.324   6.961  19.032  0.00  0.00    +0.000 A 
ATOM      9  C   UNL     1       3.321   5.951  18.923  0.00  0.00    +0.000 A 
ENDROOT
BRANCH   2  10
ATOM     10  O   UNL     1       4.982   2.744  19.612  0.00  0.00    +0.000 OA
ATOM     11  H   UNL     1       5.543   2.904  20.403  0.00  0.00    +0.000 HD
ENDBRANCH   2  10
BRANCH   1  12
ATOM     12  C   UNL     1       2.717   4.268  20.742  0.00  0.00    +0.000 C 
BRANCH  12  14
ATOM     13  C   UNL     1       1.524   2.432  21.820  0.00  0.00    +0.000 C 
ATOM     14  N   UNL     1       2.076   2.944  20.555  0.00  0.00    +0.000 NA
ATOM     15  C   UNL     1       0.975   3.087  19.590  0.00  0.00    +0.000 C 
ENDBRANCH  12  14
ENDBRANCH   1  12
BRANCH   7  16
ATOM     16  C   UNL     1       1.924   9.164  17.656  0.00  0.00    +0.000 C 
BRANCH  16  17
ATOM     17  C   UNL     1       0.947   9.681  18.690  0.00  0.00    +0.000 A 
ATOM     18  C   UNL     1       1.268   9.662  20.055  0.00  0.00    +0.000 A 
ATOM     19  C   UNL     1       0.377  10.176  21.000  0.00  0.00    +0.000 A 
ATOM     20  C   UNL     1      -0.845  10.709  20.593  0.00  0.00    +0.000 A 
ATOM     21  C   UNL     1      -1.182  10.724  19.242  0.00  0.00    +0.000 A 
ATOM     22  C   UNL     1      -0.291  10.214  18.296  0.00  0.00    +0.000 A 
ENDBRANCH  16  17
ENDBRANCH   7  16
TORSDOF 5
ENDMDL
MODEL 9
REMARK VINA RESULT:      -6.9      4.514      7.716
REMARK  Name = 
REMARK  7 active torsions:
REMARK  status: ('A' for Active; 'I' for Inactive)
REMARK    1  A    between atoms: C_1  and  N_2
REMARK    2  A    between atoms: N_2  and  C_3
REMARK    3  A    between atoms: N_2  and  C_4
REMARK    4  A    between atoms: C_4  and  C_5
REMARK    5  A    between atoms: C_6  and  O_7
REMARK    6  A    between atoms: C_12  and  C_13
REMARK    7  A    between atoms: C_13  and  C_14
REMARK                            x       y       z     vdW  Elec       q    Type
REMARK                         _______ _______ _______ _____ _____    ______ ____
ROOT
ATOM      1  C   UNL     1       3.668   4.762  19.513  0.00  0.00    +0.000 A 
ATOM      2  C   UNL     1       4.746   4.015  18.986  0.00  0.00    +0.000 A 
ATOM      3  C   UNL     1       5.547   4.474  17.940  0.00  0.00    +0.000 A 
ATOM      4  C   UNL     1       5.292   5.703  17.330  0.00  0.00    +0.000 A 
ATOM      5  C   UNL     1       4.191   6.407  17.805  0.00  0.00    +0.000 A 
ATOM      6  O   UNL     1       3.747   7.597  17.310  0.00  0.00    +0.000 OA
ATOM      7  C   UNL     1       2.627   7.932  18.014  0.00  0.00    +0.000 A 
ATOM      8  C   UNL     1       2.374   6.983  18.980  0.00  0.00    +0.000 A 
ATOM      9  C   UNL     1       3.378   5.982  18.852  0.00  0.00    +0.000 A 
ENDROOT
BRANCH   2  10
ATOM     10  O   UNL     1       5.077   2.786  19.499  0.00  0.00    +0.000 OA
ATOM     11  H   UNL     1       5.765   2.405  18.911  0.00  0.00    +0.000 HD
ENDBRANCH   2  10
BRANCH   1  12
ATOM     12  C   UNL     1       2.814   4.283  20.668  0.00  0.00    +0.000 C 
BRANCH  12  14
ATOM     13  C   UNL     1       1.554   2.480  21.725  0.00  0.00    +0.000 C 
ATOM     14  N   UNL     1       2.179   2.957  20.480  0.00  0.00    +0.000 NA
ATOM     15  C   UNL     1       1.134   3.078  19.451  0.00  0.00    +0.000 C 
ENDBRANCH  12  14
ENDBRANCH   1  12
BRANCH   7  16
ATOM     16  C   UNL     1       1.936   9.190  17.623  0.00  0.00    +0.000 C 
BRANCH  16  17
ATOM     17  C   UNL     1       0.994   9.711  18.687  0.00  0.00    +0.000 A 
ATOM     18  C   UNL     1      -0.261  10.234  18.344  0.00  0.00    +0.000 A 
ATOM     19  C   UNL     1      -1.139  10.678  19.335  0.00  0.00    +0.000 A 
ATOM     20  C   UNL     1      -0.771  10.609  20.677  0.00  0.00    +0.000 A 
ATOM     21  C   UNL     1       0.476  10.103  21.032  0.00  0.00    +0.000 A 
ATOM     22  C   UNL     1       1.353   9.655  20.044  0.00  0.00    +0.000 A 
ENDBRANCH  16  17
ENDBRANCH   7  16
TORSDOF 5
ENDMDL
