MODEL 1
REMARK VINA RESULT:      -7.2      0.000      0.000
REMARK  Name = 
REMARK  3 active torsions:
REMARK  status: ('A' for Active; 'I' for Inactive)
REMARK    1  A    between atoms: S_2  and  C_4
REMARK    2  A    between atoms: S_2  and  C_13
REMARK    3  A    between atoms: C_5  and  C_6
REMARK                            x       y       z     vdW  Elec       q    Type
REMARK                         _______ _______ _______ _____ _____    ______ ____
ROOT
ATOM      1  O   UNL     1       6.488   6.495  17.714  0.00  0.00    +0.000 OA
ATOM      2  S   UNL     1       6.692   5.061  17.610  0.00  0.00    +0.000 S 
ATOM      3  O   UNL     1       7.893   4.447  18.144  0.00  0.00    +0.000 OA
ENDROOT
BRANCH   2   4
ATOM      4  C   UNL     1       6.642   4.684  15.863  0.00  0.00    +0.000 A 
ATOM      5  C   UNL     1       5.630   3.846  15.375  0.00  0.00    +0.000 A 
ATOM      6  C   UNL     1       5.572   3.558  14.010  0.00  0.00    +0.000 A 
ATOM      7  C   UNL     1       6.511   4.114  13.146  0.00  0.00    +0.000 A 
ATOM      8  F   UNL     1       6.451   3.833  11.839  0.00  0.00    +0.000 F 
ATOM      9  C   UNL     1       7.507   4.965  13.621  0.00  0.00    +0.000 A 
ATOM     10  C   UNL     1       7.578   5.254  14.986  0.00  0.00    +0.000 A 
ENDBRANCH   2   4
BRANCH   2  11
ATOM     11  C   UNL     1       5.319   4.232  18.257  0.00  0.00    +0.000 C 
ATOM     12  C   UNL     1       4.179   4.912  18.475  0.00  0.00    +0.000 C 
BRANCH  12  13
ATOM     13  C   UNL     1       2.987   4.281  19.068  0.00  0.00    +0.000 A 
ATOM     14  N   UNL     1       2.742   4.565  20.375  0.00  0.00    +0.000 NA
ATOM     15  C   UNL     1       1.639   4.021  20.936  0.00  0.00    +0.000 A 
ATOM     16  C   UNL     1       0.754   3.196  20.260  0.00  0.00    +0.000 A 
ATOM     17  C   UNL     1       1.017   2.906  18.926  0.00  0.00    +0.000 A 
ATOM     18  C   UNL     1       2.144   3.453  18.323  0.00  0.00    +0.000 A 
ATOM     19  F   UNL     1       2.397   3.178  17.035  0.00  0.00    +0.000 F 
ENDBRANCH  12  13
ENDBRANCH   2  11
TORSDOF 3
ENDMDL
MODEL 2
REMARK VINA RESULT:      -7.1      1.381      1.523
REMARK  Name = 
REMARK  3 active torsions:
REMARK  status: ('A' for Active; 'I' for Inactive)
REMARK    1  A    between atoms: S_2  and  C_4
REMARK    2  A    between atoms: S_2  and  C_13
REMARK    3  A    between atoms: C_5  and  C_6
REMARK                            x       y       z     vdW  Elec       q    Type
REMARK                         _______ _______ _______ _____ _____    ______ ____
ROOT
ATOM      1  O   UNL     1       5.190   7.001  15.720  0.00  0.00    +0.000 OA
ATOM      2  S   UNL     1       6.085   5.915  16.076  0.00  0.00    +0.000 S 
ATOM      3  O   UNL     1       7.375   6.189  16.679  0.00  0.00    +0.000 OA
ENDROOT
BRANCH   2   4
ATOM      4  C   UNL     1       6.395   5.017  14.560  0.00  0.00    +0.000 A 
ATOM      5  C   UNL     1       5.472   4.049  14.140  0.00  0.00    +0.000 A 
ATOM      6  C   UNL     1       5.696   3.354  12.950  0.00  0.00    +0.000 A 
ATOM      7  C   UNL     1       6.825   3.638  12.186  0.00  0.00    +0.000 A 
ATOM      8  F   UNL     1       7.034   2.968  11.047  0.00  0.00    +0.000 F 
ATOM      9  C   UNL     1       7.734   4.615  12.587  0.00  0.00    +0.000 A 
ATOM     10  C   UNL     1       7.523   5.311  13.779  0.00  0.00    +0.000 A 
ENDBRANCH   2   4
BRANCH   2  11
ATOM     11  C   UNL     1       5.245   4.776  17.072  0.00  0.00    +0.000 C 
ATOM     12  C   UNL     1       3.961   5.006  17.399  0.00  0.00    +0.000 C 
BRANCH  12  13
ATOM     13  C   UNL     1       3.200   4.105  18.281  0.00  0.00    +0.000 A 
ATOM     14  N   UNL     1       3.917   3.439  19.226  0.00  0.00    +0.000 NA
ATOM     15  C   UNL     1       3.239   2.626  20.066  0.00  0.00    +0.000 A 
ATOM     16  C   UNL     1       1.867   2.433  20.017  0.00  0.00    +0.000 A 
ATOM     17  C   UNL     1       1.144   3.113  19.044  0.00  0.00    +0.000 A 
ATOM     18  C   UNL     1       1.816   3.957  18.166  0.00  0.00    +0.000 A 
ATOM     19  F   UNL     1       1.120   4.617  17.230  0.00  0.00    +0.000 F 
ENDBRANCH  12  13
ENDBRANCH   2  11
TORSDOF 3
ENDMDL
MODEL 3
REMARK VINA RESULT:      -7.1      3.128      3.858
REMARK  Name = 
REMARK  3 active torsions:
REMARK  status: ('A' for Active; 'I' for Inactive)
REMARK    1  A    between atoms: S_2  and  C_4
REMARK    2  A    between atoms: S_2  and  C_13
REMARK    3  A    between atoms: C_5  and  C_6
REMARK                            x       y       z     vdW  Elec       q    Type
REMARK                         _______ _______ _______ _____ _____    ______ ____
ROOT
ATOM      1  O   UNL     1       6.564   3.539  15.410  0.00  0.00    +0.000 OA
ATOM      2  S   UNL     1       5.664   4.593  15.841  0.00  0.00    +0.000 S 
ATOM      3  O   UNL     1       5.007   5.446  14.869  0.00  0.00    +0.000 OA
ENDROOT
BRANCH   2   4
ATOM      4  C   UNL     1       6.631   5.659  16.904  0.00  0.00    +0.000 A 
ATOM      5  C   UNL     1       7.239   5.114  18.044  0.00  0.00    +0.000 A 
ATOM      6  C   UNL     1       8.009   5.934  18.871  0.00  0.00    +0.000 A 
ATOM      7  C   UNL     1       8.177   7.278  18.551  0.00  0.00    +0.000 A 
ATOM      8  F   UNL     1       8.916   8.057  19.349  0.00  0.00    +0.000 F 
ATOM      9  C   UNL     1       7.593   7.820  17.408  0.00  0.00    +0.000 A 
ATOM     10  C   UNL     1       6.815   7.010  16.577  0.00  0.00    +0.000 A 
ENDBRANCH   2   4
BRANCH   2  11
ATOM     11  C   UNL     1       4.460   3.934  16.894  0.00  0.00    +0.000 C 
ATOM     12  C   UNL     1       3.617   4.763  17.534  0.00  0.00    +0.000 C 
BRANCH  12  13
ATOM     13  C   UNL     1       2.600   4.276  18.481  0.00  0.00    +0.000 A 
ATOM     14  N   UNL     1       1.979   3.111  18.152  0.00  0.00    +0.000 NA
ATOM     15  C   UNL     1       1.060   2.627  19.016  0.00  0.00    +0.000 A 
ATOM     16  C   UNL     1       0.716   3.248  20.208  0.00  0.00    +0.000 A 
ATOM     17  C   UNL     1       1.351   4.442  20.532  0.00  0.00    +0.000 A 
ATOM     18  C   UNL     1       2.302   4.962  19.660  0.00  0.00    +0.000 A 
ATOM     19  F   UNL     1       2.919   6.110  19.974  0.00  0.00    +0.000 F 
ENDBRANCH  12  13
ENDBRANCH   2  11
TORSDOF 3
ENDMDL
MODEL 4
REMARK VINA RESULT:      -7.1      3.134      3.937
REMARK  Name = 
REMARK  3 active torsions:
REMARK  status: ('A' for Active; 'I' for Inactive)
REMARK    1  A    between atoms: S_2  and  C_4
REMARK    2  A    between atoms: S_2  and  C_13
REMARK    3  A    between atoms: C_5  and  C_6
REMARK                            x       y       z     vdW  Elec       q    Type
REMARK                         _______ _______ _______ _____ _____    ______ ____
ROOT
ATOM      1  O   UNL     1       6.568   3.618  15.396  0.00  0.00    +0.000 OA
ATOM      2  S   UNL     1       5.692   4.678  15.860  0.00  0.00    +0.000 S 
ATOM      3  O   UNL     1       5.027   5.553  14.913  0.00  0.00    +0.000 OA
ENDROOT
BRANCH   2   4
ATOM      4  C   UNL     1       6.693   5.715  16.920  0.00  0.00    +0.000 A 
ATOM      5  C   UNL     1       6.775   7.088  16.649  0.00  0.00    +0.000 A 
ATOM      6  C   UNL     1       7.541   7.909  17.479  0.00  0.00    +0.000 A 
ATOM      7  C   UNL     1       8.203   7.360  18.574  0.00  0.00    +0.000 A 
ATOM      8  F   UNL     1       8.935   8.152  19.365  0.00  0.00    +0.000 F 
ATOM      9  C   UNL     1       8.107   6.000  18.861  0.00  0.00    +0.000 A 
ATOM     10  C   UNL     1       7.349   5.168  18.032  0.00  0.00    +0.000 A 
ENDBRANCH   2   4
BRANCH   2  11
ATOM     11  C   UNL     1       4.499   4.019  16.926  0.00  0.00    +0.000 C 
ATOM     12  C   UNL     1       3.680   4.849  17.595  0.00  0.00    +0.000 C 
BRANCH  12  13
ATOM     13  C   UNL     1       2.675   4.361  18.555  0.00  0.00    +0.000 A 
ATOM     14  N   UNL     1       2.208   3.100  18.349  0.00  0.00    +0.000 NA
ATOM     15  C   UNL     1       1.305   2.617  19.231  0.00  0.00    +0.000 A 
ATOM     16  C   UNL     1       0.829   3.330  20.321  0.00  0.00    +0.000 A 
ATOM     17  C   UNL     1       1.307   4.621  20.518  0.00  0.00    +0.000 A 
ATOM     18  C   UNL     1       2.239   5.143  19.627  0.00  0.00    +0.000 A 
ATOM     19  F   UNL     1       2.704   6.385  19.818  0.00  0.00    +0.000 F 
ENDBRANCH  12  13
ENDBRANCH   2  11
TORSDOF 3
ENDMDL
MODEL 5
REMARK VINA RESULT:      -7.1      0.608      1.269
REMARK  Name = 
REMARK  3 active torsions:
REMARK  status: ('A' for Active; 'I' for Inactive)
REMARK    1  A    between atoms: S_2  and  C_4
REMARK    2  A    between atoms: S_2  and  C_13
REMARK    3  A    between atoms: C_5  and  C_6
REMARK                            x       y       z     vdW  Elec       q    Type
REMARK                         _______ _______ _______ _____ _____    ______ ____
ROOT
ATOM      1  O   UNL     1       6.962   6.556  17.212  0.00  0.00    +0.000 OA
ATOM      2  S   UNL     1       6.991   5.108  17.123  0.00  0.00    +0.000 S 
ATOM      3  O   UNL     1       8.141   4.362  17.598  0.00  0.00    +0.000 OA
ENDROOT
BRANCH   2   4
ATOM      4  C   UNL     1       6.795   4.719  15.388  0.00  0.00    +0.000 A 
ATOM      5  C   UNL     1       7.673   5.291  14.457  0.00  0.00    +0.000 A 
ATOM      6  C   UNL     1       7.538   4.981  13.102  0.00  0.00    +0.000 A 
ATOM      7  C   UNL     1       6.544   4.098  12.691  0.00  0.00    +0.000 A 
ATOM      8  F   UNL     1       6.420   3.807  11.391  0.00  0.00    +0.000 F 
ATOM      9  C   UNL     1       5.681   3.510  13.613  0.00  0.00    +0.000 A 
ATOM     10  C   UNL     1       5.803   3.819  14.970  0.00  0.00    +0.000 A 
ENDBRANCH   2   4
BRANCH   2  11
ATOM     11  C   UNL     1       5.570   4.453  17.861  0.00  0.00    +0.000 C 
ATOM     12  C   UNL     1       4.534   5.266  18.136  0.00  0.00    +0.000 C 
BRANCH  12  13
ATOM     13  C   UNL     1       3.313   4.788  18.807  0.00  0.00    +0.000 A 
ATOM     14  N   UNL     1       3.117   5.220  20.081  0.00  0.00    +0.000 NA
ATOM     15  C   UNL     1       1.991   4.818  20.710  0.00  0.00    +0.000 A 
ATOM     16  C   UNL     1       1.036   3.994  20.136  0.00  0.00    +0.000 A 
ATOM     17  C   UNL     1       1.249   3.551  18.835  0.00  0.00    +0.000 A 
ATOM     18  C   UNL     1       2.399   3.951  18.163  0.00  0.00    +0.000 A 
ATOM     19  F   UNL     1       2.604   3.529  16.907  0.00  0.00    +0.000 F 
ENDBRANCH  12  13
ENDBRANCH   2  11
TORSDOF 3
ENDMDL
MODEL 6
REMARK VINA RESULT:      -7.0      0.976      1.486
REMARK  Name = 
REMARK  3 active torsions:
REMARK  status: ('A' for Active; 'I' for Inactive)
REMARK    1  A    between atoms: S_2  and  C_4
REMARK    2  A    between atoms: S_2  and  C_13
REMARK    3  A    between atoms: C_5  and  C_6
REMARK                            x       y       z     vdW  Elec       q    Type
REMARK                         _______ _______ _______ _____ _____    ______ ____
ROOT
ATOM      1  O   UNL     1       7.011   6.780  17.930  0.00  0.00    +0.000 OA
ATOM      2  S   UNL     1       6.719   5.359  17.976  0.00  0.00    +0.000 S 
ATOM      3  O   UNL     1       7.688   4.424  18.515  0.00  0.00    +0.000 OA
ENDROOT
BRANCH   2   4
ATOM      4  C   UNL     1       6.402   4.869  16.285  0.00  0.00    +0.000 A 
ATOM      5  C   UNL     1       7.415   5.025  15.329  0.00  0.00    +0.000 A 
ATOM      6  C   UNL     1       7.183   4.631  14.009  0.00  0.00    +0.000 A 
ATOM      7  C   UNL     1       5.955   4.075  13.660  0.00  0.00    +0.000 A 
ATOM      8  F   UNL     1       5.740   3.699  12.394  0.00  0.00    +0.000 F 
ATOM      9  C   UNL     1       4.952   3.897  14.610  0.00  0.00    +0.000 A 
ATOM     10  C   UNL     1       5.172   4.295  15.932  0.00  0.00    +0.000 A 
ENDBRANCH   2   4
BRANCH   2  11
ATOM     11  C   UNL     1       5.206   5.103  18.776  0.00  0.00    +0.000 C 
ATOM     12  C   UNL     1       4.788   3.847  19.010  0.00  0.00    +0.000 C 
BRANCH  12  13
ATOM     13  C   UNL     1       3.490   3.554  19.642  0.00  0.00    +0.000 A 
ATOM     14  N   UNL     1       3.535   2.944  20.857  0.00  0.00    +0.000 NA
ATOM     15  C   UNL     1       2.360   2.689  21.472  0.00  0.00    +0.000 A 
ATOM     16  C   UNL     1       1.121   3.007  20.937  0.00  0.00    +0.000 A 
ATOM     17  C   UNL     1       1.084   3.624  19.691  0.00  0.00    +0.000 A 
ATOM     18  C   UNL     1       2.280   3.901  19.036  0.00  0.00    +0.000 A 
ATOM     19  F   UNL     1       2.247   4.499  17.837  0.00  0.00    +0.000 F 
ENDBRANCH  12  13
ENDBRANCH   2  11
TORSDOF 3
ENDMDL
MODEL 7
REMARK VINA RESULT:      -7.0      3.058      3.836
REMARK  Name = 
REMARK  3 active torsions:
REMARK  status: ('A' for Active; 'I' for Inactive)
REMARK    1  A    between atoms: S_2  and  C_4
REMARK    2  A    between atoms: S_2  and  C_13
REMARK    3  A    between atoms: C_5  and  C_6
REMARK                            x       y       z     vdW  Elec       q    Type
REMARK                         _______ _______ _______ _____ _____    ______ ____
ROOT
ATOM      1  O   UNL     1       6.448   3.441  15.496  0.00  0.00    +0.000 OA
ATOM      2  S   UNL     1       5.559   4.465  16.014  0.00  0.00    +0.000 S 
ATOM      3  O   UNL     1       4.781   5.292  15.112  0.00  0.00    +0.000 OA
ENDROOT
BRANCH   2   4
ATOM      4  C   UNL     1       6.587   5.565  16.980  0.00  0.00    +0.000 A 
ATOM      5  C   UNL     1       6.683   6.912  16.605  0.00  0.00    +0.000 A 
ATOM      6  C   UNL     1       7.470   7.783  17.362  0.00  0.00    +0.000 A 
ATOM      7  C   UNL     1       8.139   7.309  18.487  0.00  0.00    +0.000 A 
ATOM      8  F   UNL     1       8.891   8.149  19.207  0.00  0.00    +0.000 F 
ATOM      9  C   UNL     1       8.030   5.976  18.877  0.00  0.00    +0.000 A 
ATOM     10  C   UNL     1       7.251   5.095  18.123  0.00  0.00    +0.000 A 
ENDBRANCH   2   4
BRANCH   2  11
ATOM     11  C   UNL     1       4.486   3.766  17.178  0.00  0.00    +0.000 C 
ATOM     12  C   UNL     1       3.934   4.549  18.121  0.00  0.00    +0.000 C 
BRANCH  12  13
ATOM     13  C   UNL     1       3.050   4.015  19.171  0.00  0.00    +0.000 A 
ATOM     14  N   UNL     1       1.754   4.424  19.135  0.00  0.00    +0.000 NA
ATOM     15  C   UNL     1       0.916   3.928  20.071  0.00  0.00    +0.000 A 
ATOM     16  C   UNL     1       1.301   3.035  21.060  0.00  0.00    +0.000 A 
ATOM     17  C   UNL     1       2.630   2.628  21.093  0.00  0.00    +0.000 A 
ATOM     18  C   UNL     1       3.514   3.122  20.140  0.00  0.00    +0.000 A 
ATOM     19  F   UNL     1       4.795   2.726  20.168  0.00  0.00    +0.000 F 
ENDBRANCH  12  13
ENDBRANCH   2  11
TORSDOF 3
ENDMDL
MODEL 8
REMARK VINA RESULT:      -7.0      2.945      3.698
REMARK  Name = 
REMARK  3 active torsions:
REMARK  status: ('A' for Active; 'I' for Inactive)
REMARK    1  A    between atoms: S_2  and  C_4
REMARK    2  A    between atoms: S_2  and  C_13
REMARK    3  A    between atoms: C_5  and  C_6
REMARK                            x       y       z     vdW  Elec       q    Type
REMARK                         _______ _______ _______ _____ _____    ______ ____
ROOT
ATOM      1  O   UNL     1       6.345   3.489  15.942  0.00  0.00    +0.000 OA
ATOM      2  S   UNL     1       5.635   4.753  16.012  0.00  0.00    +0.000 S 
ATOM      3  O   UNL     1       5.284   5.470  14.801  0.00  0.00    +0.000 OA
ENDROOT
BRANCH   2   4
ATOM      4  C   UNL     1       6.667   5.842  16.985  0.00  0.00    +0.000 A 
ATOM      5  C   UNL     1       6.722   7.204  16.657  0.00  0.00    +0.000 A 
ATOM      6  C   UNL     1       7.512   8.065  17.421  0.00  0.00    +0.000 A 
ATOM      7  C   UNL     1       8.226   7.568  18.507  0.00  0.00    +0.000 A 
ATOM      8  F   UNL     1       8.982   8.399  19.234  0.00  0.00    +0.000 F 
ATOM      9  C   UNL     1       8.159   6.219  18.851  0.00  0.00    +0.000 A 
ATOM     10  C   UNL     1       7.377   5.347  18.089  0.00  0.00    +0.000 A 
ENDBRANCH   2   4
BRANCH   2  11
ATOM     11  C   UNL     1       4.207   4.564  16.970  0.00  0.00    +0.000 C 
ATOM     12  C   UNL     1       4.258   3.824  18.091  0.00  0.00    +0.000 C 
BRANCH  12  13
ATOM     13  C   UNL     1       3.071   3.580  18.929  0.00  0.00    +0.000 A 
ATOM     14  N   UNL     1       2.993   4.292  20.085  0.00  0.00    +0.000 NA
ATOM     15  C   UNL     1       1.901   4.108  20.859  0.00  0.00    +0.000 A 
ATOM     16  C   UNL     1       0.867   3.239  20.546  0.00  0.00    +0.000 A 
ATOM     17  C   UNL     1       0.960   2.509  19.365  0.00  0.00    +0.000 A 
ATOM     18  C   UNL     1       2.073   2.681  18.548  0.00  0.00    +0.000 A 
ATOM     19  F   UNL     1       2.161   1.982  17.408  0.00  0.00    +0.000 F 
ENDBRANCH  12  13
ENDBRANCH   2  11
TORSDOF 3
ENDMDL
MODEL 9
REMARK VINA RESULT:      -7.0      1.247      1.315
REMARK  Name = 
REMARK  3 active torsions:
REMARK  status: ('A' for Active; 'I' for Inactive)
REMARK    1  A    between atoms: S_2  and  C_4
REMARK    2  A    between atoms: S_2  and  C_13
REMARK    3  A    between atoms: C_5  and  C_6
REMARK                            x       y       z     vdW  Elec       q    Type
REMARK                         _______ _______ _______ _____ _____    ______ ____
ROOT
ATOM      1  O   UNL     1       7.411   6.852  16.972  0.00  0.00    +0.000 OA
ATOM      2  S   UNL     1       7.025   5.459  17.103  0.00  0.00    +0.000 S 
ATOM      3  O   UNL     1       7.896   4.512  17.772  0.00  0.00    +0.000 OA
ENDROOT
BRANCH   2   4
ATOM      4  C   UNL     1       6.780   4.859  15.435  0.00  0.00    +0.000 A 
ATOM      5  C   UNL     1       5.697   4.010  15.168  0.00  0.00    +0.000 A 
ATOM      6  C   UNL     1       5.488   3.549  13.867  0.00  0.00    +0.000 A 
ATOM      7  C   UNL     1       6.347   3.947  12.847  0.00  0.00    +0.000 A 
ATOM      8  F   UNL     1       6.141   3.501  11.602  0.00  0.00    +0.000 F 
ATOM      9  C   UNL     1       7.413   4.807  13.101  0.00  0.00    +0.000 A 
ATOM     10  C   UNL     1       7.635   5.269  14.401  0.00  0.00    +0.000 A 
ENDBRANCH   2   4
BRANCH   2  11
ATOM     11  C   UNL     1       5.453   5.357  17.818  0.00  0.00    +0.000 C 
ATOM     12  C   UNL     1       5.275   4.603  18.917  0.00  0.00    +0.000 C 
BRANCH  12  13
ATOM     13  C   UNL     1       3.957   4.432  19.551  0.00  0.00    +0.000 A 
ATOM     14  N   UNL     1       3.245   5.569  19.778  0.00  0.00    +0.000 NA
ATOM     15  C   UNL     1       2.021   5.438  20.334  0.00  0.00    +0.000 A 
ATOM     16  C   UNL     1       1.456   4.222  20.685  0.00  0.00    +0.000 A 
ATOM     17  C   UNL     1       2.193   3.066  20.456  0.00  0.00    +0.000 A 
ATOM     18  C   UNL     1       3.457   3.171  19.883  0.00  0.00    +0.000 A 
ATOM     19  F   UNL     1       4.167   2.057  19.656  0.00  0.00    +0.000 F 
ENDBRANCH  12  13
ENDBRANCH   2  11
TORSDOF 3
ENDMDL
