MODEL 1
REMARK VINA RESULT:      -7.9      0.000      0.000
REMARK  Name = 
REMARK  5 active torsions:
REMARK  status: ('A' for Active; 'I' for Inactive)
REMARK    1  A    between atoms: C_1  and  N_2
REMARK    2  A    between atoms: C_7  and  C_8
REMARK    3  A    between atoms: N_10  and  C_11
REMARK    4  A    between atoms: C_14  and  N_15
REMARK    5  A    between atoms: C_16  and  C_18
REMARK                            x       y       z     vdW  Elec       q    Type
REMARK                         _______ _______ _______ _____ _____    ______ ____
ROOT
ATOM      1  C   UNL     1       7.121   5.238  16.421  0.00  0.00    +0.000 C 
ATOM      2  C   UNL     1       6.538   5.109  14.993  0.00  0.00    +0.000 C 
ATOM      3  C   UNL     1       5.567   4.047  15.544  0.00  0.00    +0.000 C 
ATOM      4  C   UNL     1       5.772   4.658  16.951  0.00  0.00    +0.000 C 
ENDROOT
BRANCH   1   7
ATOM      5  C   UNL     1       7.818   6.956  18.122  0.00  0.00    +0.000 C 
ATOM      6  O   UNL     1       7.760   6.130  19.032  0.00  0.00    +0.000 OA
ATOM      7  N   UNL     1       7.459   6.618  16.823  0.00  0.00    +0.000 N 
ATOM      8  H   UNL     1       7.588   7.357  16.135  0.00  0.00    +0.000 HD
BRANCH   5  15
ATOM      9  C   UNL     1       9.147  14.364  18.632  0.00  0.00    +0.000 C 
ATOM     10  N   UNL     1       8.962  12.955  18.966  0.00  0.00    +0.000 NA
ATOM     11  C   UNL     1      10.205  12.367  19.518  0.00  0.00    +0.000 C 
ATOM     12  C   UNL     1       9.961  10.950  20.088  0.00  0.00    +0.000 C 
ATOM     13  C   UNL     1       9.158  10.139  19.130  0.00  0.00    +0.000 A 
ATOM     14  N   UNL     1       9.024   8.768  19.239  0.00  0.00    +0.000 NA
ATOM     15  C   UNL     1       8.203   8.353  18.287  0.00  0.00    +0.000 A 
ATOM     16  S   UNL     1       7.616   9.558  17.208  0.00  0.00    +0.000 S 
ATOM     17  C   UNL     1       8.465  10.732  18.094  0.00  0.00    +0.000 A 
ATOM     18  C   UNL     1       8.484  12.194  17.785  0.00  0.00    +0.000 C 
ENDBRANCH   5  15
ENDBRANCH   1   7
BRANCH   4  19
ATOM     19  N   UNL     1       4.762   5.670  17.338  0.00  0.00    +0.000 N 
ATOM     20  C   UNL     1       3.925   5.497  18.412  0.00  0.00    +0.000 C 
ATOM     21  O   UNL     1       3.876   4.452  19.053  0.00  0.00    +0.000 OA
ATOM     22  H   UNL     1       4.831   6.597  16.946  0.00  0.00    +0.000 HD
BRANCH  20  23
ATOM     23  C   UNL     1       3.090   6.629  18.745  0.00  0.00    +0.000 A 
ATOM     24  C   UNL     1       2.626   7.719  18.026  0.00  0.00    +0.000 A 
ATOM     25  C   UNL     1       1.841   8.530  18.898  0.00  0.00    +0.000 A 
ATOM     26  C   UNL     1       1.133   9.736  18.745  0.00  0.00    +0.000 A 
ATOM     27  C   UNL     1       0.457  10.267  19.849  0.00  0.00    +0.000 A 
ATOM     28 CL   UNL     1      -0.411  11.745  19.676  0.00  0.00    +0.000 Cl
ATOM     29  C   UNL     1       0.473   9.624  21.085  0.00  0.00    +0.000 A 
ATOM     30  C   UNL     1       1.169   8.425  21.256  0.00  0.00    +0.000 A 
ATOM     31  C   UNL     1       1.842   7.906  20.145  0.00  0.00    +0.000 A 
ATOM     32  N   UNL     1       2.597   6.769  20.024  0.00  0.00    +0.000 N 
ATOM     33  H   UNL     1       2.786   6.106  20.764  0.00  0.00    +0.000 HD
ENDBRANCH  20  23
ENDBRANCH   4  19
TORSDOF 4
ENDMDL
MODEL 2
REMARK VINA RESULT:      -7.8      1.135      1.525
REMARK  Name = 
REMARK  5 active torsions:
REMARK  status: ('A' for Active; 'I' for Inactive)
REMARK    1  A    between atoms: C_1  and  N_2
REMARK    2  A    between atoms: C_7  and  C_8
REMARK    3  A    between atoms: N_10  and  C_11
REMARK    4  A    between atoms: C_14  and  N_15
REMARK    5  A    between atoms: C_16  and  C_18
REMARK                            x       y       z     vdW  Elec       q    Type
REMARK                         _______ _______ _______ _____ _____    ______ ____
ROOT
ATOM      1  C   UNL     1       7.013   6.089  16.746  0.00  0.00    +0.000 C 
ATOM      2  C   UNL     1       6.368   5.859  15.358  0.00  0.00    +0.000 C 
ATOM      3  C   UNL     1       5.478   4.784  16.010  0.00  0.00    +0.000 C 
ATOM      4  C   UNL     1       5.721   5.476  17.373  0.00  0.00    +0.000 C 
ENDROOT
BRANCH   1   7
ATOM      5  C   UNL     1       8.092   7.886  18.137  0.00  0.00    +0.000 C 
ATOM      6  O   UNL     1       8.499   7.060  18.953  0.00  0.00    +0.000 OA
ATOM      7  N   UNL     1       7.302   7.503  17.061  0.00  0.00    +0.000 N 
ATOM      8  H   UNL     1       7.058   8.253  16.417  0.00  0.00    +0.000 HD
BRANCH   5  15
ATOM      9  C   UNL     1      10.024  15.149  18.792  0.00  0.00    +0.000 C 
ATOM     10  N   UNL     1       9.554  13.875  18.257  0.00  0.00    +0.000 NA
ATOM     11  C   UNL     1       8.132  13.957  17.849  0.00  0.00    +0.000 C 
ATOM     12  C   UNL     1       7.688  12.694  17.073  0.00  0.00    +0.000 C 
ATOM     13  C   UNL     1       8.155  11.465  17.774  0.00  0.00    +0.000 A 
ATOM     14  N   UNL     1       7.677  10.204  17.473  0.00  0.00    +0.000 NA
ATOM     15  C   UNL     1       8.329   9.323  18.216  0.00  0.00    +0.000 A 
ATOM     16  S   UNL     1       9.478   9.964  19.326  0.00  0.00    +0.000 S 
ATOM     17  C   UNL     1       9.132  11.523  18.748  0.00  0.00    +0.000 A 
ATOM     18  C   UNL     1       9.772  12.782  19.237  0.00  0.00    +0.000 C 
ENDBRANCH   5  15
ENDBRANCH   1   7
BRANCH   4  19
ATOM     19  N   UNL     1       4.682   6.459  17.759  0.00  0.00    +0.000 N 
ATOM     20  C   UNL     1       3.514   6.086  18.374  0.00  0.00    +0.000 C 
ATOM     21  O   UNL     1       3.198   4.912  18.542  0.00  0.00    +0.000 OA
ATOM     22  H   UNL     1       4.924   7.438  17.773  0.00  0.00    +0.000 HD
BRANCH  20  23
ATOM     23  C   UNL     1       2.662   7.169  18.812  0.00  0.00    +0.000 A 
ATOM     24  C   UNL     1       2.090   8.254  18.170  0.00  0.00    +0.000 A 
ATOM     25  C   UNL     1       1.350   9.005  19.131  0.00  0.00    +0.000 A 
ATOM     26  C   UNL     1       0.579  10.181  19.076  0.00  0.00    +0.000 A 
ATOM     27  C   UNL     1      -0.019  10.651  20.250  0.00  0.00    +0.000 A 
ATOM     28 CL   UNL     1      -0.964  12.091  20.198  0.00  0.00    +0.000 Cl
ATOM     29  C   UNL     1       0.134   9.978  21.461  0.00  0.00    +0.000 A 
ATOM     30  C   UNL     1       0.894   8.807  21.534  0.00  0.00    +0.000 A 
ATOM     31  C   UNL     1       1.488   8.350  20.353  0.00  0.00    +0.000 A 
ATOM     32  N   UNL     1       2.279   7.252  20.133  0.00  0.00    +0.000 N 
ATOM     33  H   UNL     1       2.561   6.579  20.834  0.00  0.00    +0.000 HD
ENDBRANCH  20  23
ENDBRANCH   4  19
TORSDOF 4
ENDMDL
MODEL 3
REMARK VINA RESULT:      -7.6      0.624      1.145
REMARK  Name = 
REMARK  5 active torsions:
REMARK  status: ('A' for Active; 'I' for Inactive)
REMARK    1  A    between atoms: C_1  and  N_2
REMARK    2  A    between atoms: C_7  and  C_8
REMARK    3  A    between atoms: N_10  and  C_11
REMARK    4  A    between atoms: C_14  and  N_15
REMARK    5  A    between atoms: C_16  and  C_18
REMARK                            x       y       z     vdW  Elec       q    Type
REMARK                         _______ _______ _______ _____ _____    ______ ____
ROOT
ATOM      1  C   UNL     1       7.179   5.231  16.514  0.00  0.00    +0.000 C 
ATOM      2  C   UNL     1       6.555   5.082  15.107  0.00  0.00    +0.000 C 
ATOM      3  C   UNL     1       5.614   4.014  15.697  0.00  0.00    +0.000 C 
ATOM      4  C   UNL     1       5.854   4.642  17.091  0.00  0.00    +0.000 C 
ENDROOT
BRANCH   1   7
ATOM      5  C   UNL     1       7.862   6.982  18.188  0.00  0.00    +0.000 C 
ATOM      6  O   UNL     1       7.799   6.174  19.113  0.00  0.00    +0.000 OA
ATOM      7  N   UNL     1       7.514   6.620  16.893  0.00  0.00    +0.000 N 
ATOM      8  H   UNL     1       7.647   7.345  16.191  0.00  0.00    +0.000 HD
BRANCH   5  15
ATOM      9  C   UNL     1       9.179  14.401  18.573  0.00  0.00    +0.000 C 
ATOM     10  N   UNL     1       8.998  12.997  18.930  0.00  0.00    +0.000 NA
ATOM     11  C   UNL     1      10.245  12.420  19.485  0.00  0.00    +0.000 C 
ATOM     12  C   UNL     1      10.007  11.011  20.079  0.00  0.00    +0.000 C 
ATOM     13  C   UNL     1       9.201  10.184  19.138  0.00  0.00    +0.000 A 
ATOM     14  N   UNL     1       9.070   8.814  19.269  0.00  0.00    +0.000 NA
ATOM     15  C   UNL     1       8.245   8.382  18.328  0.00  0.00    +0.000 A 
ATOM     16  S   UNL     1       7.651   9.569  17.233  0.00  0.00    +0.000 S 
ATOM     17  C   UNL     1       8.502  10.759  18.096  0.00  0.00    +0.000 A 
ATOM     18  C   UNL     1       8.516  12.216  17.764  0.00  0.00    +0.000 C 
ENDBRANCH   5  15
ENDBRANCH   1   7
BRANCH   4  19
ATOM     19  N   UNL     1       4.844   5.646  17.498  0.00  0.00    +0.000 N 
ATOM     20  C   UNL     1       3.894   5.385  18.454  0.00  0.00    +0.000 C 
ATOM     21  O   UNL     1       3.743   4.274  18.952  0.00  0.00    +0.000 OA
ATOM     22  H   UNL     1       4.985   6.609  17.234  0.00  0.00    +0.000 HD
BRANCH  20  23
ATOM     23  C   UNL     1       3.068   6.507  18.840  0.00  0.00    +0.000 A 
ATOM     24  C   UNL     1       2.330   6.804  19.975  0.00  0.00    +0.000 A 
ATOM     25  C   UNL     1       1.697   8.067  19.779  0.00  0.00    +0.000 A 
ATOM     26  C   UNL     1       0.840   8.867  20.557  0.00  0.00    +0.000 A 
ATOM     27  C   UNL     1       0.392  10.085  20.033  0.00  0.00    +0.000 A 
ATOM     28 CL   UNL     1      -0.660  11.072  20.974  0.00  0.00    +0.000 Cl
ATOM     29  C   UNL     1       0.779  10.513  18.765  0.00  0.00    +0.000 A 
ATOM     30  C   UNL     1       1.632   9.734  17.979  0.00  0.00    +0.000 A 
ATOM     31  C   UNL     1       2.070   8.518  18.514  0.00  0.00    +0.000 A 
ATOM     32  N   UNL     1       2.893   7.564  17.974  0.00  0.00    +0.000 N 
ATOM     33  H   UNL     1       3.323   7.606  17.059  0.00  0.00    +0.000 HD
ENDBRANCH  20  23
ENDBRANCH   4  19
TORSDOF 4
ENDMDL
MODEL 4
REMARK VINA RESULT:      -7.5      4.588      7.306
REMARK  Name = 
REMARK  5 active torsions:
REMARK  status: ('A' for Active; 'I' for Inactive)
REMARK    1  A    between atoms: C_1  and  N_2
REMARK    2  A    between atoms: C_7  and  C_8
REMARK    3  A    between atoms: N_10  and  C_11
REMARK    4  A    between atoms: C_14  and  N_15
REMARK    5  A    between atoms: C_16  and  C_18
REMARK                            x       y       z     vdW  Elec       q    Type
REMARK                         _______ _______ _______ _____ _____    ______ ____
ROOT
ATOM      1  C   UNL     1       2.200  16.060  19.061  0.00  0.00    +0.000 C 
ATOM      2  C   UNL     1       1.730  16.316  20.513  0.00  0.00    +0.000 C 
ATOM      3  C   UNL     1       0.311  15.915  20.067  0.00  0.00    +0.000 C 
ATOM      4  C   UNL     1       0.951  15.139  18.891  0.00  0.00    +0.000 C 
ENDROOT
BRANCH   1   7
ATOM      5  C   UNL     1       4.705  16.142  18.838  0.00  0.00    +0.000 C 
ATOM      6  O   UNL     1       4.690  17.365  18.713  0.00  0.00    +0.000 OA
ATOM      7  N   UNL     1       3.525  15.417  18.949  0.00  0.00    +0.000 N 
ATOM      8  H   UNL     1       3.646  14.417  19.098  0.00  0.00    +0.000 HD
BRANCH   5  15
ATOM      9  C   UNL     1      10.890  11.887  19.584  0.00  0.00    +0.000 C 
ATOM     10  N   UNL     1       9.571  12.371  19.188  0.00  0.00    +0.000 NA
ATOM     11  C   UNL     1       9.488  12.562  17.721  0.00  0.00    +0.000 C 
ATOM     12  C   UNL     1       8.037  12.851  17.265  0.00  0.00    +0.000 C 
ATOM     13  C   UNL     1       7.411  13.873  18.150  0.00  0.00    +0.000 A 
ATOM     14  N   UNL     1       6.238  14.527  17.825  0.00  0.00    +0.000 NA
ATOM     15  C   UNL     1       5.908  15.317  18.834  0.00  0.00    +0.000 A 
ATOM     16  S   UNL     1       7.001  15.352  20.163  0.00  0.00    +0.000 S 
ATOM     17  C   UNL     1       7.960  14.193  19.375  0.00  0.00    +0.000 A 
ATOM     18  C   UNL     1       9.230  13.620  19.914  0.00  0.00    +0.000 C 
ENDBRANCH   5  15
ENDBRANCH   1   7
BRANCH   4  19
ATOM     19  N   UNL     1       1.190  13.701  19.159  0.00  0.00    +0.000 N 
ATOM     20  C   UNL     1       0.330  12.723  18.727  0.00  0.00    +0.000 C 
ATOM     21  O   UNL     1      -0.746  12.974  18.193  0.00  0.00    +0.000 OA
ATOM     22  H   UNL     1       2.105  13.412  19.470  0.00  0.00    +0.000 HD
BRANCH  20  23
ATOM     23  C   UNL     1       0.768  11.362  18.944  0.00  0.00    +0.000 A 
ATOM     24  C   UNL     1       0.695  10.496  20.023  0.00  0.00    +0.000 A 
ATOM     25  C   UNL     1       1.321   9.268  19.654  0.00  0.00    +0.000 A 
ATOM     26  C   UNL     1       1.554   8.048  20.315  0.00  0.00    +0.000 A 
ATOM     27  C   UNL     1       2.223   7.027  19.631  0.00  0.00    +0.000 A 
ATOM     28 CL   UNL     1       2.517   5.528  20.429  0.00  0.00    +0.000 Cl
ATOM     29  C   UNL     1       2.657   7.198  18.318  0.00  0.00    +0.000 A 
ATOM     30  C   UNL     1       2.433   8.402  17.645  0.00  0.00    +0.000 A 
ATOM     31  C   UNL     1       1.764   9.415  18.341  0.00  0.00    +0.000 A 
ATOM     32  N   UNL     1       1.419  10.679  17.940  0.00  0.00    +0.000 N 
ATOM     33  H   UNL     1       1.610  11.082  17.032  0.00  0.00    +0.000 HD
ENDBRANCH  20  23
ENDBRANCH   4  19
TORSDOF 4
ENDMDL
MODEL 5
REMARK VINA RESULT:      -7.4      1.263      1.883
REMARK  Name = 
REMARK  5 active torsions:
REMARK  status: ('A' for Active; 'I' for Inactive)
REMARK    1  A    between atoms: C_1  and  N_2
REMARK    2  A    between atoms: C_7  and  C_8
REMARK    3  A    between atoms: N_10  and  C_11
REMARK    4  A    between atoms: C_14  and  N_15
REMARK    5  A    between atoms: C_16  and  C_18
REMARK                            x       y       z     vdW  Elec       q    Type
REMARK                         _______ _______ _______ _____ _____    ______ ____
ROOT
ATOM      1  C   UNL     1       6.821   6.058  16.605  0.00  0.00    +0.000 C 
ATOM      2  C   UNL     1       6.066   5.888  15.266  0.00  0.00    +0.000 C 
ATOM      3  C   UNL     1       5.220   4.794  15.944  0.00  0.00    +0.000 C 
ATOM      4  C   UNL     1       5.577   5.429  17.309  0.00  0.00    +0.000 C 
ENDROOT
BRANCH   1   7
ATOM      5  C   UNL     1       7.951   7.793  18.035  0.00  0.00    +0.000 C 
ATOM      6  O   UNL     1       8.337   6.938  18.830  0.00  0.00    +0.000 OA
ATOM      7  N   UNL     1       7.148   7.456  16.952  0.00  0.00    +0.000 N 
ATOM      8  H   UNL     1       6.923   8.226  16.326  0.00  0.00    +0.000 HD
BRANCH   5  15
ATOM      9  C   UNL     1      10.078  14.985  18.851  0.00  0.00    +0.000 C 
ATOM     10  N   UNL     1       9.574  13.736  18.288  0.00  0.00    +0.000 NA
ATOM     11  C   UNL     1       8.155  13.865  17.880  0.00  0.00    +0.000 C 
ATOM     12  C   UNL     1       7.679  12.632  17.076  0.00  0.00    +0.000 C 
ATOM     13  C   UNL     1       8.111  11.377  17.750  0.00  0.00    +0.000 A 
ATOM     14  N   UNL     1       7.600  10.135  17.421  0.00  0.00    +0.000 NA
ATOM     15  C   UNL     1       8.227   9.221  18.145  0.00  0.00    +0.000 A 
ATOM     16  S   UNL     1       9.390   9.806  19.270  0.00  0.00    +0.000 S 
ATOM     17  C   UNL     1       9.088  11.386  18.726  0.00  0.00    +0.000 A 
ATOM     18  C   UNL     1       9.760  12.616  19.244  0.00  0.00    +0.000 C 
ENDBRANCH   5  15
ENDBRANCH   1   7
BRANCH   4  19
ATOM     19  N   UNL     1       4.582   6.403  17.815  0.00  0.00    +0.000 N 
ATOM     20  C   UNL     1       3.429   6.011  18.447  0.00  0.00    +0.000 C 
ATOM     21  O   UNL     1       3.087   4.835  18.536  0.00  0.00    +0.000 OA
ATOM     22  H   UNL     1       4.850   7.372  17.896  0.00  0.00    +0.000 HD
BRANCH  20  23
ATOM     23  C   UNL     1       2.626   7.076  19.005  0.00  0.00    +0.000 A 
ATOM     24  C   UNL     1       2.020   7.271  20.236  0.00  0.00    +0.000 A 
ATOM     25  C   UNL     1       1.337   8.523  20.205  0.00  0.00    +0.000 A 
ATOM     26  C   UNL     1       0.557   9.239  21.132  0.00  0.00    +0.000 A 
ATOM     27  C   UNL     1       0.020  10.473  20.751  0.00  0.00    +0.000 A 
ATOM     28 CL   UNL     1      -0.938  11.360  21.875  0.00  0.00    +0.000 Cl
ATOM     29  C   UNL     1       0.244  10.999  19.480  0.00  0.00    +0.000 A 
ATOM     30  C   UNL     1       1.016  10.303  18.547  0.00  0.00    +0.000 A 
ATOM     31  C   UNL     1       1.546   9.070  18.940  0.00  0.00    +0.000 A 
ATOM     32  N   UNL     1       2.323   8.182  18.242  0.00  0.00    +0.000 N 
ATOM     33  H   UNL     1       2.641   8.300  17.289  0.00  0.00    +0.000 HD
ENDBRANCH  20  23
ENDBRANCH   4  19
TORSDOF 4
ENDMDL
MODEL 6
REMARK VINA RESULT:      -7.2      2.674      7.250
REMARK  Name = 
REMARK  5 active torsions:
REMARK  status: ('A' for Active; 'I' for Inactive)
REMARK    1  A    between atoms: C_1  and  N_2
REMARK    2  A    between atoms: C_7  and  C_8
REMARK    3  A    between atoms: N_10  and  C_11
REMARK    4  A    between atoms: C_14  and  N_15
REMARK    5  A    between atoms: C_16  and  C_18
REMARK                            x       y       z     vdW  Elec       q    Type
REMARK                         _______ _______ _______ _____ _____    ______ ____
ROOT
ATOM      1  C   UNL     1       5.142   5.584  17.304  0.00  0.00    +0.000 C 
ATOM      2  C   UNL     1       5.964   4.878  18.408  0.00  0.00    +0.000 C 
ATOM      3  C   UNL     1       7.158   4.864  17.434  0.00  0.00    +0.000 C 
ATOM      4  C   UNL     1       6.498   6.044  16.683  0.00  0.00    +0.000 C 
ENDROOT
BRANCH   1   7
ATOM      5  C   UNL     1       2.965   6.381  18.282  0.00  0.00    +0.000 C 
ATOM      6  O   UNL     1       2.483   5.251  18.221  0.00  0.00    +0.000 OA
ATOM      7  N   UNL     1       4.239   6.645  17.795  0.00  0.00    +0.000 N 
ATOM      8  H   UNL     1       4.565   7.599  17.937  0.00  0.00    +0.000 HD
BRANCH   5  15
ATOM      9  C   UNL     1      -0.845  12.585  20.260  0.00  0.00    +0.000 C 
ATOM     10  N   UNL     1      -0.356  11.211  20.195  0.00  0.00    +0.000 NA
ATOM     11  C   UNL     1       0.288  10.810  21.468  0.00  0.00    +0.000 C 
ATOM     12  C   UNL     1       0.601   9.295  21.496  0.00  0.00    +0.000 C 
ATOM     13  C   UNL     1       1.238   8.876  20.217  0.00  0.00    +0.000 A 
ATOM     14  N   UNL     1       1.875   7.659  20.061  0.00  0.00    +0.000 NA
ATOM     15  C   UNL     1       2.275   7.556  18.803  0.00  0.00    +0.000 A 
ATOM     16  S   UNL     1       1.962   8.911  17.791  0.00  0.00    +0.000 S 
ATOM     17  C   UNL     1       1.189   9.678  19.094  0.00  0.00    +0.000 A 
ATOM     18  C   UNL     1       0.566  11.035  19.046  0.00  0.00    +0.000 C 
ENDBRANCH   5  15
ENDBRANCH   1   7
BRANCH   4  19
ATOM     19  N   UNL     1       6.963   7.384  17.111  0.00  0.00    +0.000 N 
ATOM     20  C   UNL     1       7.924   7.553  18.076  0.00  0.00    +0.000 C 
ATOM     21  O   UNL     1       8.379   6.618  18.729  0.00  0.00    +0.000 OA
ATOM     22  H   UNL     1       6.736   8.182  16.537  0.00  0.00    +0.000 HD
BRANCH  20  23
ATOM     23  C   UNL     1       8.370   8.911  18.287  0.00  0.00    +0.000 A 
ATOM     24  C   UNL     1       8.248  10.081  17.555  0.00  0.00    +0.000 A 
ATOM     25  C   UNL     1       8.914  11.125  18.264  0.00  0.00    +0.000 A 
ATOM     26  C   UNL     1       9.127  12.495  18.023  0.00  0.00    +0.000 A 
ATOM     27  C   UNL     1       9.852  13.240  18.959  0.00  0.00    +0.000 A 
ATOM     28 CL   UNL     1      10.123  14.918  18.676  0.00  0.00    +0.000 Cl
ATOM     29  C   UNL     1      10.360  12.652  20.116  0.00  0.00    +0.000 A 
ATOM     30  C   UNL     1      10.156  11.294  20.373  0.00  0.00    +0.000 A 
ATOM     31  C   UNL     1       9.432  10.560  19.428  0.00  0.00    +0.000 A 
ATOM     32  N   UNL     1       9.091   9.233  19.417  0.00  0.00    +0.000 N 
ATOM     33  H   UNL     1       9.328   8.557  20.131  0.00  0.00    +0.000 HD
ENDBRANCH  20  23
ENDBRANCH   4  19
TORSDOF 4
ENDMDL
MODEL 7
REMARK VINA RESULT:      -7.2      2.817      7.106
REMARK  Name = 
REMARK  5 active torsions:
REMARK  status: ('A' for Active; 'I' for Inactive)
REMARK    1  A    between atoms: C_1  and  N_2
REMARK    2  A    between atoms: C_7  and  C_8
REMARK    3  A    between atoms: N_10  and  C_11
REMARK    4  A    between atoms: C_14  and  N_15
REMARK    5  A    between atoms: C_16  and  C_18
REMARK                            x       y       z     vdW  Elec       q    Type
REMARK                         _______ _______ _______ _____ _____    ______ ____
ROOT
ATOM      1  C   UNL     1       4.526   5.317  18.233  0.00  0.00    +0.000 C 
ATOM      2  C   UNL     1       5.022   4.602  19.512  0.00  0.00    +0.000 C 
ATOM      3  C   UNL     1       6.319   4.261  18.753  0.00  0.00    +0.000 C 
ATOM      4  C   UNL     1       6.022   5.450  17.807  0.00  0.00    +0.000 C 
ENDROOT
BRANCH   1   7
ATOM      5  C   UNL     1       2.481   6.596  18.950  0.00  0.00    +0.000 C 
ATOM      6  O   UNL     1       1.833   5.558  19.079  0.00  0.00    +0.000 OA
ATOM      7  N   UNL     1       3.787   6.572  18.479  0.00  0.00    +0.000 N 
ATOM      8  H   UNL     1       4.253   7.477  18.455  0.00  0.00    +0.000 HD
BRANCH   5  15
ATOM      9  C   UNL     1      -0.324  13.572  19.565  0.00  0.00    +0.000 C 
ATOM     10  N   UNL     1      -0.078  12.147  19.761  0.00  0.00    +0.000 NA
ATOM     11  C   UNL     1       0.395  11.868  21.138  0.00  0.00    +0.000 C 
ATOM     12  C   UNL     1       0.438  10.349  21.430  0.00  0.00    +0.000 C 
ATOM     13  C   UNL     1       1.081   9.624  20.299  0.00  0.00    +0.000 A 
ATOM     14  N   UNL     1       1.506   8.312  20.396  0.00  0.00    +0.000 NA
ATOM     15  C   UNL     1       1.970   7.936  19.214  0.00  0.00    +0.000 A 
ATOM     16  S   UNL     1       1.970   9.134  17.979  0.00  0.00    +0.000 S 
ATOM     17  C   UNL     1       1.251  10.223  19.067  0.00  0.00    +0.000 A 
ATOM     18  C   UNL     1       0.879  11.634  18.749  0.00  0.00    +0.000 C 
ENDBRANCH   5  15
ENDBRANCH   1   7
BRANCH   4  19
ATOM     19  N   UNL     1       6.674   6.723  18.193  0.00  0.00    +0.000 N 
ATOM     20  C   UNL     1       7.594   7.348  17.389  0.00  0.00    +0.000 C 
ATOM     21  O   UNL     1       8.024   6.843  16.356  0.00  0.00    +0.000 OA
ATOM     22  H   UNL     1       6.282   7.257  18.953  0.00  0.00    +0.000 HD
BRANCH  20  23
ATOM     23  C   UNL     1       8.039   8.648  17.838  0.00  0.00    +0.000 A 
ATOM     24  C   UNL     1       7.903   9.931  17.332  0.00  0.00    +0.000 A 
ATOM     25  C   UNL     1       8.574  10.832  18.211  0.00  0.00    +0.000 A 
ATOM     26  C   UNL     1       8.780  12.224  18.220  0.00  0.00    +0.000 A 
ATOM     27  C   UNL     1       9.513  12.791  19.268  0.00  0.00    +0.000 A 
ATOM     28 CL   UNL     1       9.775  14.494  19.291  0.00  0.00    +0.000 Cl
ATOM     29  C   UNL     1      10.038  12.005  20.294  0.00  0.00    +0.000 A 
ATOM     30  C   UNL     1       9.842  10.622  20.302  0.00  0.00    +0.000 A 
ATOM     31  C   UNL     1       9.108  10.068  19.247  0.00  0.00    +0.000 A 
ATOM     32  N   UNL     1       8.772   8.763  18.999  0.00  0.00    +0.000 N 
ATOM     33  H   UNL     1       9.021   7.970  19.576  0.00  0.00    +0.000 HD
ENDBRANCH  20  23
ENDBRANCH   4  19
TORSDOF 4
ENDMDL
MODEL 8
REMARK VINA RESULT:      -7.2      4.519      7.187
REMARK  Name = 
REMARK  5 active torsions:
REMARK  status: ('A' for Active; 'I' for Inactive)
REMARK    1  A    between atoms: C_1  and  N_2
REMARK    2  A    between atoms: C_7  and  C_8
REMARK    3  A    between atoms: N_10  and  C_11
REMARK    4  A    between atoms: C_14  and  N_15
REMARK    5  A    between atoms: C_16  and  C_18
REMARK                            x       y       z     vdW  Elec       q    Type
REMARK                         _______ _______ _______ _____ _____    ______ ____
ROOT
ATOM      1  C   UNL     1       2.586  16.072  19.215  0.00  0.00    +0.000 C 
ATOM      2  C   UNL     1       1.933  16.325  20.595  0.00  0.00    +0.000 C 
ATOM      3  C   UNL     1       0.576  15.971  19.956  0.00  0.00    +0.000 C 
ATOM      4  C   UNL     1       1.346  15.190  18.865  0.00  0.00    +0.000 C 
ENDROOT
BRANCH   1   7
ATOM      5  C   UNL     1       5.095  16.046  19.023  0.00  0.00    +0.000 C 
ATOM      6  O   UNL     1       5.112  17.211  18.627  0.00  0.00    +0.000 OA
ATOM      7  N   UNL     1       3.896  15.391  19.272  0.00  0.00    +0.000 N 
ATOM      8  H   UNL     1       3.989  14.448  19.643  0.00  0.00    +0.000 HD
BRANCH   5  15
ATOM      9  C   UNL     1      11.434  11.970  19.362  0.00  0.00    +0.000 C 
ATOM     10  N   UNL     1      10.369  12.919  19.672  0.00  0.00    +0.000 NA
ATOM     11  C   UNL     1       9.694  12.570  20.945  0.00  0.00    +0.000 C 
ATOM     12  C   UNL     1       8.726  13.687  21.402  0.00  0.00    +0.000 C 
ATOM     13  C   UNL     1       7.888  14.144  20.258  0.00  0.00    +0.000 A 
ATOM     14  N   UNL     1       6.758  14.922  20.421  0.00  0.00    +0.000 NA
ATOM     15  C   UNL     1       6.277  15.215  19.223  0.00  0.00    +0.000 A 
ATOM     16  S   UNL     1       7.110  14.534  17.881  0.00  0.00    +0.000 S 
ATOM     17  C   UNL     1       8.228  13.841  18.955  0.00  0.00    +0.000 A 
ATOM     18  C   UNL     1       9.398  13.002  18.554  0.00  0.00    +0.000 C 
ENDBRANCH   5  15
ENDBRANCH   1   7
BRANCH   4  19
ATOM     19  N   UNL     1       1.507  13.743  19.140  0.00  0.00    +0.000 N 
ATOM     20  C   UNL     1       0.597  12.810  18.709  0.00  0.00    +0.000 C 
ATOM     21  O   UNL     1      -0.463  13.116  18.171  0.00  0.00    +0.000 OA
ATOM     22  H   UNL     1       2.404  13.407  19.456  0.00  0.00    +0.000 HD
BRANCH  20  23
ATOM     23  C   UNL     1       0.960  11.429  18.934  0.00  0.00    +0.000 A 
ATOM     24  C   UNL     1       0.797  10.560  20.001  0.00  0.00    +0.000 A 
ATOM     25  C   UNL     1       1.381   9.307  19.650  0.00  0.00    +0.000 A 
ATOM     26  C   UNL     1       1.526   8.072  20.310  0.00  0.00    +0.000 A 
ATOM     27  C   UNL     1       2.177   7.025  19.648  0.00  0.00    +0.000 A 
ATOM     28 CL   UNL     1       2.364   5.510  20.445  0.00  0.00    +0.000 Cl
ATOM     29  C   UNL     1       2.679   7.185  18.357  0.00  0.00    +0.000 A 
ATOM     30  C   UNL     1       2.543   8.403  17.686  0.00  0.00    +0.000 A 
ATOM     31  C   UNL     1       1.891   9.441  18.360  0.00  0.00    +0.000 A 
ATOM     32  N   UNL     1       1.624  10.724  17.954  0.00  0.00    +0.000 N 
ATOM     33  H   UNL     1       1.876  11.123  17.060  0.00  0.00    +0.000 HD
ENDBRANCH  20  23
ENDBRANCH   4  19
TORSDOF 4
ENDMDL
MODEL 9
REMARK VINA RESULT:      -7.1      4.436      7.052
REMARK  Name = 
REMARK  5 active torsions:
REMARK  status: ('A' for Active; 'I' for Inactive)
REMARK    1  A    between atoms: C_1  and  N_2
REMARK    2  A    between atoms: C_7  and  C_8
REMARK    3  A    between atoms: N_10  and  C_11
REMARK    4  A    between atoms: C_14  and  N_15
REMARK    5  A    between atoms: C_16  and  C_18
REMARK                            x       y       z     vdW  Elec       q    Type
REMARK                         _______ _______ _______ _____ _____    ______ ____
ROOT
ATOM      1  C   UNL     1       1.864  15.372  19.567  0.00  0.00    +0.000 C 
ATOM      2  C   UNL     1       1.417  15.316  21.047  0.00  0.00    +0.000 C 
ATOM      3  C   UNL     1       0.058  14.780  20.560  0.00  0.00    +0.000 C 
ATOM      4  C   UNL     1       0.761  14.310  19.264  0.00  0.00    +0.000 C 
ENDROOT
BRANCH   1   7
ATOM      5  C   UNL     1       4.218  15.823  18.801  0.00  0.00    +0.000 C 
ATOM      6  O   UNL     1       3.908  16.940  18.389  0.00  0.00    +0.000 OA
ATOM      7  N   UNL     1       3.265  14.964  19.334  0.00  0.00    +0.000 N 
ATOM      8  H   UNL     1       3.630  14.084  19.691  0.00  0.00    +0.000 HD
BRANCH   5  15
ATOM      9  C   UNL     1      11.202  13.002  19.237  0.00  0.00    +0.000 C 
ATOM     10  N   UNL     1       9.775  13.156  18.969  0.00  0.00    +0.000 NA
ATOM     11  C   UNL     1       9.493  13.091  17.515  0.00  0.00    +0.000 C 
ATOM     12  C   UNL     1       7.973  13.021  17.232  0.00  0.00    +0.000 C 
ATOM     13  C   UNL     1       7.248  14.032  18.051  0.00  0.00    +0.000 A 
ATOM     14  N   UNL     1       5.935  14.390  17.808  0.00  0.00    +0.000 NA
ATOM     15  C   UNL     1       5.560  15.254  18.739  0.00  0.00    +0.000 A 
ATOM     16  S   UNL     1       6.760  15.708  19.885  0.00  0.00    +0.000 S 
ATOM     17  C   UNL     1       7.849  14.643  19.133  0.00  0.00    +0.000 A 
ATOM     18  C   UNL     1       9.262  14.416  19.561  0.00  0.00    +0.000 C 
ENDBRANCH   5  15
ENDBRANCH   1   7
BRANCH   4  19
ATOM     19  N   UNL     1       1.220  12.902  19.287  0.00  0.00    +0.000 N 
ATOM     20  C   UNL     1       0.441  11.870  18.828  0.00  0.00    +0.000 C 
ATOM     21  O   UNL     1      -0.725  12.024  18.475  0.00  0.00    +0.000 OA
ATOM     22  H   UNL     1       2.199  12.714  19.437  0.00  0.00    +0.000 HD
BRANCH  20  23
ATOM     23  C   UNL     1       1.078  10.573  18.788  0.00  0.00    +0.000 A 
ATOM     24  C   UNL     1       1.884   9.932  17.861  0.00  0.00    +0.000 A 
ATOM     25  C   UNL     1       2.205   8.637  18.366  0.00  0.00    +0.000 A 
ATOM     26  C   UNL     1       2.965   7.555  17.883  0.00  0.00    +0.000 A 
ATOM     27  C   UNL     1       3.065   6.399  18.664  0.00  0.00    +0.000 A 
ATOM     28 CL   UNL     1       3.990   5.066  18.084  0.00  0.00    +0.000 Cl
ATOM     29  C   UNL     1       2.432   6.304  19.902  0.00  0.00    +0.000 A 
ATOM     30  C   UNL     1       1.675   7.368  20.399  0.00  0.00    +0.000 A 
ATOM     31  C   UNL     1       1.581   8.517  19.607  0.00  0.00    +0.000 A 
ATOM     32  N   UNL     1       0.913   9.692  19.835  0.00  0.00    +0.000 N 
ATOM     33  H   UNL     1       0.362   9.906  20.656  0.00  0.00    +0.000 HD
ENDBRANCH  20  23
ENDBRANCH   4  19
TORSDOF 4
ENDMDL
