MODEL 1
REMARK VINA RESULT:      -7.9      0.000      0.000
REMARK  Name = 
REMARK  6 active torsions:
REMARK  status: ('A' for Active; 'I' for Inactive)
REMARK    1  A    between atoms: C_2  and  C_15
REMARK    2  A    between atoms: N_3  and  N_4
REMARK    3  A    between atoms: C_5  and  C_6
REMARK    4  A    between atoms: C_8  and  O_9
REMARK    5  A    between atoms: C_10  and  O_11
REMARK    6  A    between atoms: C_12  and  O_13
REMARK                            x       y       z     vdW  Elec       q    Type
REMARK                         _______ _______ _______ _____ _____    ______ ____
ROOT
ATOM      1  O   UNL     1       8.270   6.491  18.986  0.00  0.00    +0.000 OA
ATOM      2  C   UNL     1       7.337   6.677  18.206  0.00  0.00    +0.000 C 
ATOM      3  N   UNL     1       7.235   7.790  17.380  0.00  0.00    +0.000 N 
ATOM      4  H   UNL     1       6.439   7.914  16.770  0.00  0.00    +0.000 HD
ENDROOT
BRANCH   2   5
ATOM      5  C   UNL     1       6.260   5.711  18.097  0.00  0.00    +0.000 A 
ATOM      6  C   UNL     1       5.304   5.459  17.127  0.00  0.00    +0.000 A 
ATOM      7  C   UNL     1       4.517   4.347  17.549  0.00  0.00    +0.000 A 
ATOM      8  C   UNL     1       3.441   3.636  16.983  0.00  0.00    +0.000 A 
ATOM      9  C   UNL     1       2.889   2.557  17.684  0.00  0.00    +0.000 A 
ATOM     10  C   UNL     1       3.386   2.190  18.933  0.00  0.00    +0.000 A 
ATOM     11  C   UNL     1       4.451   2.884  19.515  0.00  0.00    +0.000 A 
ATOM     12  C   UNL     1       4.998   3.953  18.794  0.00  0.00    +0.000 A 
ATOM     13  N   UNL     1       6.043   4.789  19.101  0.00  0.00    +0.000 N 
ATOM     14  H   UNL     1       6.605   4.740  19.941  0.00  0.00    +0.000 HD
ENDBRANCH   2   5
BRANCH   3  15
ATOM     15  N   UNL     1       8.211   8.743  17.427  0.00  0.00    +0.000 NA
ATOM     16  C   UNL     1       7.998   9.778  18.172  0.00  0.00    +0.000 C 
BRANCH  16  17
ATOM     17  C   UNL     1       9.030  10.832  18.291  0.00  0.00    +0.000 A 
ATOM     18  C   UNL     1      10.154  10.615  19.106  0.00  0.00    +0.000 A 
ATOM     19  C   UNL     1      11.096  11.626  19.253  0.00  0.00    +0.000 A 
ATOM     20  C   UNL     1      10.924  12.838  18.596  0.00  0.00    +0.000 A 
ATOM     21  C   UNL     1       9.817  13.043  17.781  0.00  0.00    +0.000 A 
ATOM     22  C   UNL     1       8.862  12.046  17.614  0.00  0.00    +0.000 A 
BRANCH  19  23
ATOM     23  O   UNL     1      12.201  11.476  20.042  0.00  0.00    +0.000 OA
ATOM     24  H   UNL     1      12.989  11.642  19.494  0.00  0.00    +0.000 HD
ENDBRANCH  19  23
BRANCH  20  25
ATOM     25  O   UNL     1      11.835  13.847  18.751  0.00  0.00    +0.000 OA
ATOM     26  H   UNL     1      12.175  14.005  17.845  0.00  0.00    +0.000 HD
ENDBRANCH  20  25
BRANCH  21  27
ATOM     27  O   UNL     1       9.657  14.240  17.144  0.00  0.00    +0.000 OA
ATOM     28  H   UNL     1       9.830  14.043  16.200  0.00  0.00    +0.000 HD
ENDBRANCH  21  27
ENDBRANCH  16  17
ENDBRANCH   3  15
TORSDOF 6
ENDMDL
MODEL 2
REMARK VINA RESULT:      -7.7      6.446      8.758
REMARK  Name = 
REMARK  6 active torsions:
REMARK  status: ('A' for Active; 'I' for Inactive)
REMARK    1  A    between atoms: C_2  and  C_15
REMARK    2  A    between atoms: N_3  and  N_4
REMARK    3  A    between atoms: C_5  and  C_6
REMARK    4  A    between atoms: C_8  and  O_9
REMARK    5  A    between atoms: C_10  and  O_11
REMARK    6  A    between atoms: C_12  and  O_13
REMARK                            x       y       z     vdW  Elec       q    Type
REMARK                         _______ _______ _______ _____ _____    ______ ____
ROOT
ATOM      1  O   UNL     1       2.499  10.486  18.127  0.00  0.00    +0.000 OA
ATOM      2  C   UNL     1       1.566   9.688  18.060  0.00  0.00    +0.000 C 
ATOM      3  N   UNL     1       1.735   8.317  17.903  0.00  0.00    +0.000 N 
ATOM      4  H   UNL     1       0.939   7.700  17.829  0.00  0.00    +0.000 HD
ENDROOT
BRANCH   2   5
ATOM      5  C   UNL     1       0.192  10.146  18.150  0.00  0.00    +0.000 A 
ATOM      6  C   UNL     1      -0.461  11.037  18.986  0.00  0.00    +0.000 A 
ATOM      7  C   UNL     1      -1.824  11.121  18.578  0.00  0.00    +0.000 A 
ATOM      8  C   UNL     1      -2.937  11.862  19.022  0.00  0.00    +0.000 A 
ATOM      9  C   UNL     1      -4.168  11.706  18.371  0.00  0.00    +0.000 A 
ATOM     10  C   UNL     1      -4.300  10.822  17.302  0.00  0.00    +0.000 A 
ATOM     11  C   UNL     1      -3.210  10.074  16.847  0.00  0.00    +0.000 A 
ATOM     12  C   UNL     1      -1.985  10.252  17.502  0.00  0.00    +0.000 A 
ATOM     13  N   UNL     1      -0.760   9.678  17.267  0.00  0.00    +0.000 N 
ATOM     14  H   UNL     1      -0.557   9.010  16.534  0.00  0.00    +0.000 HD
ENDBRANCH   2   5
BRANCH   3  15
ATOM     15  N   UNL     1       2.999   7.812  17.810  0.00  0.00    +0.000 NA
ATOM     16  C   UNL     1       3.152   6.546  18.019  0.00  0.00    +0.000 C 
BRANCH  16  17
ATOM     17  C   UNL     1       4.494   5.930  17.903  0.00  0.00    +0.000 A 
ATOM     18  C   UNL     1       4.886   5.344  16.688  0.00  0.00    +0.000 A 
ATOM     19  C   UNL     1       6.127   4.724  16.599  0.00  0.00    +0.000 A 
ATOM     20  C   UNL     1       6.969   4.691  17.703  0.00  0.00    +0.000 A 
ATOM     21  C   UNL     1       6.582   5.284  18.899  0.00  0.00    +0.000 A 
ATOM     22  C   UNL     1       5.347   5.914  19.013  0.00  0.00    +0.000 A 
BRANCH  19  23
ATOM     23  O   UNL     1       6.556   4.126  15.447  0.00  0.00    +0.000 OA
ATOM     24  H   UNL     1       5.820   4.136  14.809  0.00  0.00    +0.000 HD
ENDBRANCH  19  23
BRANCH  20  25
ATOM     25  O   UNL     1       8.184   4.066  17.631  0.00  0.00    +0.000 OA
ATOM     26  H   UNL     1       8.345   3.747  18.544  0.00  0.00    +0.000 HD
ENDBRANCH  20  25
BRANCH  21  27
ATOM     27  O   UNL     1       7.416   5.242  19.978  0.00  0.00    +0.000 OA
ATOM     28  H   UNL     1       7.652   6.177  20.146  0.00  0.00    +0.000 HD
ENDBRANCH  21  27
ENDBRANCH  16  17
ENDBRANCH   3  15
TORSDOF 6
ENDMDL
MODEL 3
REMARK VINA RESULT:      -7.7      6.739      8.918
REMARK  Name = 
REMARK  6 active torsions:
REMARK  status: ('A' for Active; 'I' for Inactive)
REMARK    1  A    between atoms: C_2  and  C_15
REMARK    2  A    between atoms: N_3  and  N_4
REMARK    3  A    between atoms: C_5  and  C_6
REMARK    4  A    between atoms: C_8  and  O_9
REMARK    5  A    between atoms: C_10  and  O_11
REMARK    6  A    between atoms: C_12  and  O_13
REMARK                            x       y       z     vdW  Elec       q    Type
REMARK                         _______ _______ _______ _____ _____    ______ ____
ROOT
ATOM      1  O   UNL     1       1.520   9.553  19.782  0.00  0.00    +0.000 OA
ATOM      2  C   UNL     1       0.936   9.459  18.703  0.00  0.00    +0.000 C 
ATOM      3  N   UNL     1       1.458   8.791  17.601  0.00  0.00    +0.000 N 
ATOM      4  H   UNL     1       0.954   8.758  16.727  0.00  0.00    +0.000 HD
ENDROOT
BRANCH   2   5
ATOM      5  C   UNL     1      -0.374  10.054  18.516  0.00  0.00    +0.000 A 
ATOM      6  C   UNL     1      -1.198  10.815  19.329  0.00  0.00    +0.000 A 
ATOM      7  C   UNL     1      -2.369  11.156  18.590  0.00  0.00    +0.000 A 
ATOM      8  C   UNL     1      -3.521  11.915  18.874  0.00  0.00    +0.000 A 
ATOM      9  C   UNL     1      -4.506  12.059  17.889  0.00  0.00    +0.000 A 
ATOM     10  C   UNL     1      -4.360  11.454  16.643  0.00  0.00    +0.000 A 
ATOM     11  C   UNL     1      -3.226  10.694  16.340  0.00  0.00    +0.000 A 
ATOM     12  C   UNL     1      -2.246  10.570  17.334  0.00  0.00    +0.000 A 
ATOM     13  N   UNL     1      -1.041   9.913  17.316  0.00  0.00    +0.000 N 
ATOM     14  H   UNL     1      -0.665   9.401  16.528  0.00  0.00    +0.000 HD
ENDBRANCH   2   5
BRANCH   3  15
ATOM     15  N   UNL     1       2.687   8.207  17.702  0.00  0.00    +0.000 NA
ATOM     16  C   UNL     1       2.733   6.915  17.717  0.00  0.00    +0.000 C 
BRANCH  16  17
ATOM     17  C   UNL     1       4.038   6.220  17.793  0.00  0.00    +0.000 A 
ATOM     18  C   UNL     1       4.143   5.017  18.511  0.00  0.00    +0.000 A 
ATOM     19  C   UNL     1       5.380   4.393  18.620  0.00  0.00    +0.000 A 
ATOM     20  C   UNL     1       6.499   4.957  18.020  0.00  0.00    +0.000 A 
ATOM     21  C   UNL     1       6.387   6.140  17.300  0.00  0.00    +0.000 A 
ATOM     22  C   UNL     1       5.160   6.782  17.172  0.00  0.00    +0.000 A 
BRANCH  19  23
ATOM     23  O   UNL     1       5.545   3.229  19.318  0.00  0.00    +0.000 OA
ATOM     24  H   UNL     1       4.795   2.643  19.108  0.00  0.00    +0.000 HD
ENDBRANCH  19  23
BRANCH  20  25
ATOM     25  O   UNL     1       7.725   4.362  18.140  0.00  0.00    +0.000 OA
ATOM     26  H   UNL     1       8.308   5.076  18.473  0.00  0.00    +0.000 HD
ENDBRANCH  20  25
BRANCH  21  27
ATOM     27  O   UNL     1       7.495   6.687  16.718  0.00  0.00    +0.000 OA
ATOM     28  H   UNL     1       7.934   5.936  16.269  0.00  0.00    +0.000 HD
ENDBRANCH  21  27
ENDBRANCH  16  17
ENDBRANCH   3  15
TORSDOF 6
ENDMDL
MODEL 4
REMARK VINA RESULT:      -7.7      6.891      9.171
REMARK  Name = 
REMARK  6 active torsions:
REMARK  status: ('A' for Active; 'I' for Inactive)
REMARK    1  A    between atoms: C_2  and  C_15
REMARK    2  A    between atoms: N_3  and  N_4
REMARK    3  A    between atoms: C_5  and  C_6
REMARK    4  A    between atoms: C_8  and  O_9
REMARK    5  A    between atoms: C_10  and  O_11
REMARK    6  A    between atoms: C_12  and  O_13
REMARK                            x       y       z     vdW  Elec       q    Type
REMARK                         _______ _______ _______ _____ _____    ______ ____
ROOT
ATOM      1  O   UNL     1       1.846  10.594  18.687  0.00  0.00    +0.000 OA
ATOM      2  C   UNL     1       0.938   9.872  18.280  0.00  0.00    +0.000 C 
ATOM      3  N   UNL     1       1.132   8.569  17.833  0.00  0.00    +0.000 N 
ATOM      4  H   UNL     1       0.360   8.019  17.485  0.00  0.00    +0.000 HD
ENDROOT
BRANCH   2   5
ATOM      5  C   UNL     1      -0.431  10.351  18.245  0.00  0.00    +0.000 A 
ATOM      6  C   UNL     1      -1.214  11.057  19.143  0.00  0.00    +0.000 A 
ATOM      7  C   UNL     1      -2.490  11.283  18.547  0.00  0.00    +0.000 A 
ATOM      8  C   UNL     1      -3.661  11.949  18.960  0.00  0.00    +0.000 A 
ATOM      9  C   UNL     1      -4.765  11.989  18.100  0.00  0.00    +0.000 A 
ATOM     10  C   UNL     1      -4.718  11.370  16.852  0.00  0.00    +0.000 A 
ATOM     11  C   UNL     1      -3.567  10.701  16.424  0.00  0.00    +0.000 A 
ATOM     12  C   UNL     1      -2.469  10.682  17.293  0.00  0.00    +0.000 A 
ATOM     13  N   UNL     1      -1.223  10.127  17.137  0.00  0.00    +0.000 N 
ATOM     14  H   UNL     1      -0.901   9.631  16.315  0.00  0.00    +0.000 HD
ENDBRANCH   2   5
BRANCH   3  15
ATOM     15  N   UNL     1       2.394   8.050  17.835  0.00  0.00    +0.000 NA
ATOM     16  C   UNL     1       2.519   6.789  18.094  0.00  0.00    +0.000 C 
BRANCH  16  17
ATOM     17  C   UNL     1       3.858   6.158  18.081  0.00  0.00    +0.000 A 
ATOM     18  C   UNL     1       4.904   6.764  17.366  0.00  0.00    +0.000 A 
ATOM     19  C   UNL     1       6.147   6.142  17.317  0.00  0.00    +0.000 A 
ATOM     20  C   UNL     1       6.346   4.933  17.972  0.00  0.00    +0.000 A 
ATOM     21  C   UNL     1       5.311   4.345  18.689  0.00  0.00    +0.000 A 
ATOM     22  C   UNL     1       4.060   4.948  18.757  0.00  0.00    +0.000 A 
BRANCH  19  23
ATOM     23  O   UNL     1       7.197   6.678  16.627  0.00  0.00    +0.000 OA
ATOM     24  H   UNL     1       7.605   7.366  17.183  0.00  0.00    +0.000 HD
ENDBRANCH  19  23
BRANCH  20  25
ATOM     25  O   UNL     1       7.559   4.303  17.913  0.00  0.00    +0.000 OA
ATOM     26  H   UNL     1       8.052   4.657  18.682  0.00  0.00    +0.000 HD
ENDBRANCH  20  25
BRANCH  21  27
ATOM     27  O   UNL     1       5.518   3.154  19.325  0.00  0.00    +0.000 OA
ATOM     28  H   UNL     1       5.671   3.398  20.261  0.00  0.00    +0.000 HD
ENDBRANCH  21  27
ENDBRANCH  16  17
ENDBRANCH   3  15
TORSDOF 6
ENDMDL
MODEL 5
REMARK VINA RESULT:      -7.6      6.359      8.672
REMARK  Name = 
REMARK  6 active torsions:
REMARK  status: ('A' for Active; 'I' for Inactive)
REMARK    1  A    between atoms: C_2  and  C_15
REMARK    2  A    between atoms: N_3  and  N_4
REMARK    3  A    between atoms: C_5  and  C_6
REMARK    4  A    between atoms: C_8  and  O_9
REMARK    5  A    between atoms: C_10  and  O_11
REMARK    6  A    between atoms: C_12  and  O_13
REMARK                            x       y       z     vdW  Elec       q    Type
REMARK                         _______ _______ _______ _____ _____    ______ ____
ROOT
ATOM      1  O   UNL     1       2.436   9.904  17.595  0.00  0.00    +0.000 OA
ATOM      2  C   UNL     1       1.505   9.279  18.100  0.00  0.00    +0.000 C 
ATOM      3  N   UNL     1       1.647   8.029  18.692  0.00  0.00    +0.000 N 
ATOM      4  H   UNL     1       0.850   7.541  19.074  0.00  0.00    +0.000 HD
ENDROOT
BRANCH   2   5
ATOM      5  C   UNL     1       0.163   9.831  18.111  0.00  0.00    +0.000 A 
ATOM      6  C   UNL     1      -0.494  10.718  18.948  0.00  0.00    +0.000 A 
ATOM      7  C   UNL     1      -1.810  10.925  18.440  0.00  0.00    +0.000 A 
ATOM      8  C   UNL     1      -2.902  11.719  18.842  0.00  0.00    +0.000 A 
ATOM      9  C   UNL     1      -4.084  11.690  18.090  0.00  0.00    +0.000 A 
ATOM     10  C   UNL     1      -4.188  10.880  16.961  0.00  0.00    +0.000 A 
ATOM     11  C   UNL     1      -3.118  10.082  16.546  0.00  0.00    +0.000 A 
ATOM     12  C   UNL     1      -1.941  10.132  17.304  0.00  0.00    +0.000 A 
ATOM     13  N   UNL     1      -0.744   9.484  17.130  0.00  0.00    +0.000 N 
ATOM     14  H   UNL     1      -0.528   8.845  16.375  0.00  0.00    +0.000 HD
ENDBRANCH   2   5
BRANCH   3  15
ATOM     15  N   UNL     1       2.881   7.446  18.718  0.00  0.00    +0.000 NA
ATOM     16  C   UNL     1       3.079   6.435  17.937  0.00  0.00    +0.000 C 
BRANCH  16  17
ATOM     17  C   UNL     1       4.405   5.778  17.895  0.00  0.00    +0.000 A 
ATOM     18  C   UNL     1       5.253   5.853  19.013  0.00  0.00    +0.000 A 
ATOM     19  C   UNL     1       6.515   5.275  18.951  0.00  0.00    +0.000 A 
ATOM     20  C   UNL     1       6.929   4.629  17.794  0.00  0.00    +0.000 A 
ATOM     21  C   UNL     1       6.081   4.546  16.695  0.00  0.00    +0.000 A 
ATOM     22  C   UNL     1       4.812   5.112  16.733  0.00  0.00    +0.000 A 
BRANCH  19  23
ATOM     23  O   UNL     1       7.388   5.329  20.002  0.00  0.00    +0.000 OA
ATOM     24  H   UNL     1       6.919   5.714  20.765  0.00  0.00    +0.000 HD
ENDBRANCH  19  23
BRANCH  20  25
ATOM     25  O   UNL     1       8.178   4.075  17.716  0.00  0.00    +0.000 OA
ATOM     26  H   UNL     1       8.677   4.506  18.441  0.00  0.00    +0.000 HD
ENDBRANCH  20  25
BRANCH  21  27
ATOM     27  O   UNL     1       6.501   3.911  15.561  0.00  0.00    +0.000 OA
ATOM     28  H   UNL     1       6.514   4.611  14.877  0.00  0.00    +0.000 HD
ENDBRANCH  21  27
ENDBRANCH  16  17
ENDBRANCH   3  15
TORSDOF 6
ENDMDL
MODEL 6
REMARK VINA RESULT:      -7.6      1.157      1.703
REMARK  Name = 
REMARK  6 active torsions:
REMARK  status: ('A' for Active; 'I' for Inactive)
REMARK    1  A    between atoms: C_2  and  C_15
REMARK    2  A    between atoms: N_3  and  N_4
REMARK    3  A    between atoms: C_5  and  C_6
REMARK    4  A    between atoms: C_8  and  O_9
REMARK    5  A    between atoms: C_10  and  O_11
REMARK    6  A    between atoms: C_12  and  O_13
REMARK                            x       y       z     vdW  Elec       q    Type
REMARK                         _______ _______ _______ _____ _____    ______ ____
ROOT
ATOM      1  O   UNL     1       7.714   5.923  19.941  0.00  0.00    +0.000 OA
ATOM      2  C   UNL     1       7.063   6.100  18.913  0.00  0.00    +0.000 C 
ATOM      3  N   UNL     1       7.313   7.129  18.012  0.00  0.00    +0.000 N 
ATOM      4  H   UNL     1       6.739   7.253  17.191  0.00  0.00    +0.000 HD
ENDROOT
BRANCH   2   5
ATOM      5  C   UNL     1       5.966   5.216  18.568  0.00  0.00    +0.000 A 
ATOM      6  C   UNL     1       5.032   5.214  17.546  0.00  0.00    +0.000 A 
ATOM      7  C   UNL     1       4.207   4.060  17.692  0.00  0.00    +0.000 A 
ATOM      8  C   UNL     1       3.130   3.524  16.958  0.00  0.00    +0.000 A 
ATOM      9  C   UNL     1       2.533   2.333  17.389  0.00  0.00    +0.000 A 
ATOM     10  C   UNL     1       2.986   1.684  18.535  0.00  0.00    +0.000 A 
ATOM     11  C   UNL     1       4.051   2.199  19.281  0.00  0.00    +0.000 A 
ATOM     12  C   UNL     1       4.643   3.385  18.828  0.00  0.00    +0.000 A 
ATOM     13  N   UNL     1       5.698   4.101  19.337  0.00  0.00    +0.000 N 
ATOM     14  H   UNL     1       6.236   3.850  20.157  0.00  0.00    +0.000 HD
ENDBRANCH   2   5
BRANCH   3  15
ATOM     15  N   UNL     1       8.329   8.003  18.270  0.00  0.00    +0.000 NA
ATOM     16  C   UNL     1       8.034   9.260  18.328  0.00  0.00    +0.000 C 
BRANCH  16  17
ATOM     17  C   UNL     1       9.086  10.257  18.635  0.00  0.00    +0.000 A 
ATOM     18  C   UNL     1       9.912  10.734  17.604  0.00  0.00    +0.000 A 
ATOM     19  C   UNL     1      10.929  11.632  17.905  0.00  0.00    +0.000 A 
ATOM     20  C   UNL     1      11.120  12.052  19.216  0.00  0.00    +0.000 A 
ATOM     21  C   UNL     1      10.292  11.586  20.230  0.00  0.00    +0.000 A 
ATOM     22  C   UNL     1       9.265  10.691  19.954  0.00  0.00    +0.000 A 
BRANCH  19  23
ATOM     23  O   UNL     1      11.771  12.120  16.946  0.00  0.00    +0.000 OA
ATOM     24  H   UNL     1      12.684  12.043  17.278  0.00  0.00    +0.000 HD
ENDBRANCH  19  23
BRANCH  20  25
ATOM     25  O   UNL     1      12.132  12.920  19.526  0.00  0.00    +0.000 OA
ATOM     26  H   UNL     1      12.353  13.347  18.672  0.00  0.00    +0.000 HD
ENDBRANCH  20  25
BRANCH  21  27
ATOM     27  O   UNL     1      10.493  12.003  21.515  0.00  0.00    +0.000 OA
ATOM     28  H   UNL     1      10.094  12.897  21.549  0.00  0.00    +0.000 HD
ENDBRANCH  21  27
ENDBRANCH  16  17
ENDBRANCH   3  15
TORSDOF 6
ENDMDL
MODEL 7
REMARK VINA RESULT:      -7.5      1.100      1.176
REMARK  Name = 
REMARK  6 active torsions:
REMARK  status: ('A' for Active; 'I' for Inactive)
REMARK    1  A    between atoms: C_2  and  C_15
REMARK    2  A    between atoms: N_3  and  N_4
REMARK    3  A    between atoms: C_5  and  C_6
REMARK    4  A    between atoms: C_8  and  O_9
REMARK    5  A    between atoms: C_10  and  O_11
REMARK    6  A    between atoms: C_12  and  O_13
REMARK                            x       y       z     vdW  Elec       q    Type
REMARK                         _______ _______ _______ _____ _____    ______ ____
ROOT
ATOM      1  O   UNL     1       8.472   6.606  19.063  0.00  0.00    +0.000 OA
ATOM      2  C   UNL     1       7.550   6.833  18.281  0.00  0.00    +0.000 C 
ATOM      3  N   UNL     1       7.467   7.982  17.503  0.00  0.00    +0.000 N 
ATOM      4  H   UNL     1       6.679   8.139  16.890  0.00  0.00    +0.000 HD
ENDROOT
BRANCH   2   5
ATOM      5  C   UNL     1       6.466   5.883  18.118  0.00  0.00    +0.000 A 
ATOM      6  C   UNL     1       5.564   5.635  17.096  0.00  0.00    +0.000 A 
ATOM      7  C   UNL     1       4.737   4.540  17.482  0.00  0.00    +0.000 A 
ATOM      8  C   UNL     1       3.684   3.840  16.860  0.00  0.00    +0.000 A 
ATOM      9  C   UNL     1       3.075   2.776  17.537  0.00  0.00    +0.000 A 
ATOM     10  C   UNL     1       3.493   2.414  18.816  0.00  0.00    +0.000 A 
ATOM     11  C   UNL     1       4.533   3.097  19.454  0.00  0.00    +0.000 A 
ATOM     12  C   UNL     1       5.138   4.151  18.756  0.00  0.00    +0.000 A 
ATOM     13  N   UNL     1       6.176   4.974  19.116  0.00  0.00    +0.000 N 
ATOM     14  H   UNL     1       6.687   4.925  19.988  0.00  0.00    +0.000 HD
ENDBRANCH   2   5
BRANCH   3  15
ATOM     15  N   UNL     1       8.450   8.922  17.603  0.00  0.00    +0.000 NA
ATOM     16  C   UNL     1       8.368   9.770  18.576  0.00  0.00    +0.000 C 
BRANCH  16  17
ATOM     17  C   UNL     1       9.420  10.796  18.758  0.00  0.00    +0.000 A 
ATOM     18  C   UNL     1       9.442  11.566  19.932  0.00  0.00    +0.000 A 
ATOM     19  C   UNL     1      10.401  12.561  20.077  0.00  0.00    +0.000 A 
ATOM     20  C   UNL     1      11.329  12.785  19.068  0.00  0.00    +0.000 A 
ATOM     21  C   UNL     1      11.311  12.011  17.914  0.00  0.00    +0.000 A 
ATOM     22  C   UNL     1      10.364  11.007  17.746  0.00  0.00    +0.000 A 
BRANCH  19  23
ATOM     23  O   UNL     1      10.463  13.351  21.192  0.00  0.00    +0.000 OA
ATOM     24  H   UNL     1      11.174  13.011  21.764  0.00  0.00    +0.000 HD
ENDBRANCH  19  23
BRANCH  20  25
ATOM     25  O   UNL     1      12.265  13.776  19.193  0.00  0.00    +0.000 OA
ATOM     26  H   UNL     1      13.069  13.401  18.776  0.00  0.00    +0.000 HD
ENDBRANCH  20  25
BRANCH  21  27
ATOM     27  O   UNL     1      12.226  12.244  16.927  0.00  0.00    +0.000 OA
ATOM     28  H   UNL     1      11.699  12.596  16.180  0.00  0.00    +0.000 HD
ENDBRANCH  21  27
ENDBRANCH  16  17
ENDBRANCH   3  15
TORSDOF 6
ENDMDL
MODEL 8
REMARK VINA RESULT:      -7.4      7.185     10.642
REMARK  Name = 
REMARK  6 active torsions:
REMARK  status: ('A' for Active; 'I' for Inactive)
REMARK    1  A    between atoms: C_2  and  C_15
REMARK    2  A    between atoms: N_3  and  N_4
REMARK    3  A    between atoms: C_5  and  C_6
REMARK    4  A    between atoms: C_8  and  O_9
REMARK    5  A    between atoms: C_10  and  O_11
REMARK    6  A    between atoms: C_12  and  O_13
REMARK                            x       y       z     vdW  Elec       q    Type
REMARK                         _______ _______ _______ _____ _____    ______ ____
ROOT
ATOM      1  O   UNL     1       1.302   9.282  18.739  0.00  0.00    +0.000 OA
ATOM      2  C   UNL     1       1.196   9.236  19.963  0.00  0.00    +0.000 C 
ATOM      3  N   UNL     1       1.607   8.151  20.731  0.00  0.00    +0.000 N 
ATOM      4  H   UNL     1       1.480   8.145  21.732  0.00  0.00    +0.000 HD
ENDROOT
BRANCH   2   5
ATOM      5  C   UNL     1       0.624  10.347  20.700  0.00  0.00    +0.000 A 
ATOM      6  C   UNL     1       0.901  11.703  20.743  0.00  0.00    +0.000 A 
ATOM      7  C   UNL     1      -0.024  12.323  21.634  0.00  0.00    +0.000 A 
ATOM      8  C   UNL     1      -0.243  13.651  22.051  0.00  0.00    +0.000 A 
ATOM      9  C   UNL     1      -1.274  13.922  22.960  0.00  0.00    +0.000 A 
ATOM     10  C   UNL     1      -2.071  12.893  23.458  0.00  0.00    +0.000 A 
ATOM     11  C   UNL     1      -1.870  11.568  23.060  0.00  0.00    +0.000 A 
ATOM     12  C   UNL     1      -0.842  11.318  22.142  0.00  0.00    +0.000 A 
ATOM     13  N   UNL     1      -0.431  10.141  21.567  0.00  0.00    +0.000 N 
ATOM     14  H   UNL     1      -0.846   9.233  21.731  0.00  0.00    +0.000 HD
ENDBRANCH   2   5
BRANCH   3  15
ATOM     15  N   UNL     1       2.154   7.068  20.107  0.00  0.00    +0.000 NA
ATOM     16  C   UNL     1       1.860   5.899  20.574  0.00  0.00    +0.000 C 
BRANCH  16  17
ATOM     17  C   UNL     1       2.397   4.683  19.923  0.00  0.00    +0.000 A 
ATOM     18  C   UNL     1       1.521   3.646  19.558  0.00  0.00    +0.000 A 
ATOM     19  C   UNL     1       2.035   2.486  18.992  0.00  0.00    +0.000 A 
ATOM     20  C   UNL     1       3.404   2.358  18.789  0.00  0.00    +0.000 A 
ATOM     21  C   UNL     1       4.264   3.391  19.140  0.00  0.00    +0.000 A 
ATOM     22  C   UNL     1       3.775   4.564  19.705  0.00  0.00    +0.000 A 
BRANCH  19  23
ATOM     23  O   UNL     1       1.233   1.441  18.629  0.00  0.00    +0.000 OA
ATOM     24  H   UNL     1       0.534   1.349  19.302  0.00  0.00    +0.000 HD
ENDBRANCH  19  23
BRANCH  20  25
ATOM     25  O   UNL     1       3.922   1.212  18.251  0.00  0.00    +0.000 OA
ATOM     26  H   UNL     1       3.198   0.859  17.693  0.00  0.00    +0.000 HD
ENDBRANCH  20  25
BRANCH  21  27
ATOM     27  O   UNL     1       5.608   3.252  18.940  0.00  0.00    +0.000 OA
ATOM     28  H   UNL     1       5.774   3.682  18.075  0.00  0.00    +0.000 HD
ENDBRANCH  21  27
ENDBRANCH  16  17
ENDBRANCH   3  15
TORSDOF 6
ENDMDL
MODEL 9
REMARK VINA RESULT:      -7.4      2.834      9.596
REMARK  Name = 
REMARK  6 active torsions:
REMARK  status: ('A' for Active; 'I' for Inactive)
REMARK    1  A    between atoms: C_2  and  C_15
REMARK    2  A    between atoms: N_3  and  N_4
REMARK    3  A    between atoms: C_5  and  C_6
REMARK    4  A    between atoms: C_8  and  O_9
REMARK    5  A    between atoms: C_10  and  O_11
REMARK    6  A    between atoms: C_12  and  O_13
REMARK                            x       y       z     vdW  Elec       q    Type
REMARK                         _______ _______ _______ _____ _____    ______ ____
ROOT
ATOM      1  O   UNL     1       8.281   6.939  18.909  0.00  0.00    +0.000 OA
ATOM      2  C   UNL     1       7.851   7.892  18.262  0.00  0.00    +0.000 C 
ATOM      3  N   UNL     1       6.720   7.826  17.455  0.00  0.00    +0.000 N 
ATOM      4  H   UNL     1       6.414   8.627  16.922  0.00  0.00    +0.000 HD
ENDROOT
BRANCH   2   5
ATOM      5  C   UNL     1       8.515   9.180  18.308  0.00  0.00    +0.000 A 
ATOM      6  C   UNL     1       8.537  10.271  17.454  0.00  0.00    +0.000 A 
ATOM      7  C   UNL     1       9.346  11.287  18.043  0.00  0.00    +0.000 A 
ATOM      8  C   UNL     1       9.709  12.594  17.662  0.00  0.00    +0.000 A 
ATOM      9  C   UNL     1      10.539  13.346  18.503  0.00  0.00    +0.000 A 
ATOM     10  C   UNL     1      11.013  12.811  19.699  0.00  0.00    +0.000 A 
ATOM     11  C   UNL     1      10.667  11.516  20.095  0.00  0.00    +0.000 A 
ATOM     12  C   UNL     1       9.827  10.783  19.247  0.00  0.00    +0.000 A 
ATOM     13  N   UNL     1       9.316   9.516  19.382  0.00  0.00    +0.000 N 
ATOM     14  H   UNL     1       9.478   8.899  20.168  0.00  0.00    +0.000 HD
ENDBRANCH   2   5
BRANCH   3  15
ATOM     15  N   UNL     1       6.042   6.645  17.359  0.00  0.00    +0.000 NA
ATOM     16  C   UNL     1       5.164   6.387  18.272  0.00  0.00    +0.000 C 
BRANCH  16  17
ATOM     17  C   UNL     1       4.373   5.137  18.209  0.00  0.00    +0.000 A 
ATOM     18  C   UNL     1       3.067   5.167  17.690  0.00  0.00    +0.000 A 
ATOM     19  C   UNL     1       2.311   4.001  17.678  0.00  0.00    +0.000 A 
ATOM     20  C   UNL     1       2.847   2.819  18.173  0.00  0.00    +0.000 A 
ATOM     21  C   UNL     1       4.143   2.792  18.674  0.00  0.00    +0.000 A 
ATOM     22  C   UNL     1       4.922   3.944  18.694  0.00  0.00    +0.000 A 
BRANCH  19  23
ATOM     23  O   UNL     1       1.032   3.973  17.198  0.00  0.00    +0.000 OA
ATOM     24  H   UNL     1       0.930   4.708  16.566  0.00  0.00    +0.000 HD
ENDBRANCH  19  23
BRANCH  20  25
ATOM     25  O   UNL     1       2.103   1.670  18.185  0.00  0.00    +0.000 OA
ATOM     26  H   UNL     1       1.773   1.589  17.266  0.00  0.00    +0.000 HD
ENDBRANCH  20  25
BRANCH  21  27
ATOM     27  O   UNL     1       4.658   1.625  19.162  0.00  0.00    +0.000 OA
ATOM     28  H   UNL     1       4.462   1.651  20.121  0.00  0.00    +0.000 HD
ENDBRANCH  21  27
ENDBRANCH  16  17
ENDBRANCH   3  15
TORSDOF 6
ENDMDL
