MODEL 1
REMARK VINA RESULT:      -6.7      0.000      0.000
REMARK  Name = 
REMARK  9 active torsions:
REMARK  status: ('A' for Active; 'I' for Inactive)
REMARK    1  A    between atoms: C_1  and  C_2
REMARK    2  A    between atoms: C_2  and  N_3
REMARK    3  A    between atoms: N_3  and  C_4
REMARK    4  A    between atoms: N_3  and  C_6
REMARK    5  A    between atoms: C_4  and  C_5
REMARK    6  A    between atoms: C_6  and  C_7
REMARK    7  A    between atoms: C_7  and  C_8
REMARK    8  A    between atoms: C_8  and  N_9
REMARK    9  A    between atoms: C_10  and  C_12
REMARK                            x       y       z     vdW  Elec       q    Type
REMARK                         _______ _______ _______ _____ _____    ______ ____
ROOT
ATOM      1  N   UNL     1       3.651   3.210  17.726  0.00  0.00    +0.000 N 
ATOM      2  C   UNL     1       4.738   3.383  18.559  0.00  0.00    +0.000 C 
ATOM      3  O   UNL     1       4.911   2.720  19.576  0.00  0.00    +0.000 OA
ATOM      4  H   UNL     1       3.571   3.733  16.866  0.00  0.00    +0.000 HD
ENDROOT
BRANCH   2   5
ATOM      5  C   UNL     1       5.710   4.433  18.157  0.00  0.00    +0.000 A 
ATOM      6  C   UNL     1       6.252   5.322  19.104  0.00  0.00    +0.000 A 
ATOM      7  C   UNL     1       7.179   6.293  18.725  0.00  0.00    +0.000 A 
ATOM      8  C   UNL     1       7.600   6.405  17.400  0.00  0.00    +0.000 A 
ATOM      9  C   UNL     1       7.068   5.506  16.467  0.00  0.00    +0.000 A 
ATOM     10  N   UNL     1       7.318   5.385  15.117  0.00  0.00    +0.000 N 
ATOM     11  C   UNL     1       6.576   4.366  14.586  0.00  0.00    +0.000 A 
ATOM     12  C   UNL     1       5.835   3.815  15.606  0.00  0.00    +0.000 A 
ATOM     13  C   UNL     1       6.136   4.521  16.809  0.00  0.00    +0.000 A 
ATOM     14  H   UNL     1       7.962   5.967  14.600  0.00  0.00    +0.000 HD
ENDBRANCH   2   5
BRANCH   1  15
ATOM     15  C   UNL     1       2.599   2.262  18.036  0.00  0.00    +0.000 C 
BRANCH  15  16
ATOM     16  C   UNL     1       1.242   2.939  18.211  0.00  0.00    +0.000 C 
BRANCH  16  17
ATOM     17  C   UNL     1       0.803   3.095  19.676  0.00  0.00    +0.000 C 
BRANCH  17  18
ATOM     18  N   UNL     1       1.204   4.359  20.328  0.00  0.00    +0.000 NA
BRANCH  18  20
ATOM     19  C   UNL     1       2.352   2.680  21.822  0.00  0.00    +0.000 C 
ATOM     20  C   UNL     1       2.195   4.136  21.395  0.00  0.00    +0.000 C 
ENDBRANCH  18  20
BRANCH  18  21
ATOM     21  C   UNL     1       1.614   5.367  19.333  0.00  0.00    +0.000 C 
ATOM     22  C   UNL     1       2.714   6.338  19.760  0.00  0.00    +0.000 C 
ENDBRANCH  18  21
ENDBRANCH  17  18
ENDBRANCH  16  17
ENDBRANCH  15  16
ENDBRANCH   1  15
TORSDOF 7
ENDMDL
MODEL 2
REMARK VINA RESULT:      -6.6      1.028      1.945
REMARK  Name = 
REMARK  9 active torsions:
REMARK  status: ('A' for Active; 'I' for Inactive)
REMARK    1  A    between atoms: C_1  and  C_2
REMARK    2  A    between atoms: C_2  and  N_3
REMARK    3  A    between atoms: N_3  and  C_4
REMARK    4  A    between atoms: N_3  and  C_6
REMARK    5  A    between atoms: C_4  and  C_5
REMARK    6  A    between atoms: C_6  and  C_7
REMARK    7  A    between atoms: C_7  and  C_8
REMARK    8  A    between atoms: C_8  and  N_9
REMARK    9  A    between atoms: C_10  and  C_12
REMARK                            x       y       z     vdW  Elec       q    Type
REMARK                         _______ _______ _______ _____ _____    ______ ____
ROOT
ATOM      1  N   UNL     1       4.827   3.081  19.632  0.00  0.00    +0.000 N 
ATOM      2  C   UNL     1       4.725   3.505  18.322  0.00  0.00    +0.000 C 
ATOM      3  O   UNL     1       3.885   3.068  17.543  0.00  0.00    +0.000 OA
ATOM      4  H   UNL     1       5.493   3.505  20.261  0.00  0.00    +0.000 HD
ENDROOT
BRANCH   2   5
ATOM      5  C   UNL     1       5.703   4.537  17.890  0.00  0.00    +0.000 A 
ATOM      6  C   UNL     1       6.244   5.455  18.811  0.00  0.00    +0.000 A 
ATOM      7  C   UNL     1       7.176   6.409  18.404  0.00  0.00    +0.000 A 
ATOM      8  C   UNL     1       7.603   6.477  17.079  0.00  0.00    +0.000 A 
ATOM      9  C   UNL     1       7.072   5.550  16.173  0.00  0.00    +0.000 A 
ATOM     10  N   UNL     1       7.328   5.384  14.829  0.00  0.00    +0.000 N 
ATOM     11  C   UNL     1       6.585   4.351  14.328  0.00  0.00    +0.000 A 
ATOM     12  C   UNL     1       5.837   3.836  15.361  0.00  0.00    +0.000 A 
ATOM     13  C   UNL     1       6.136   4.580  16.542  0.00  0.00    +0.000 A 
ATOM     14  H   UNL     1       7.977   5.947  14.295  0.00  0.00    +0.000 HD
ENDBRANCH   2   5
BRANCH   1  15
ATOM     15  C   UNL     1       3.974   2.035  20.160  0.00  0.00    +0.000 C 
BRANCH  15  16
ATOM     16  C   UNL     1       3.190   2.492  21.389  0.00  0.00    +0.000 C 
BRANCH  16  17
ATOM     17  C   UNL     1       1.669   2.552  21.174  0.00  0.00    +0.000 C 
BRANCH  17  18
ATOM     18  N   UNL     1       1.158   3.816  20.604  0.00  0.00    +0.000 NA
BRANCH  18  20
ATOM     19  C   UNL     1       2.392   5.879  19.831  0.00  0.00    +0.000 C 
ATOM     20  C   UNL     1       1.993   4.968  20.988  0.00  0.00    +0.000 C 
ENDBRANCH  18  20
BRANCH  18  21
ATOM     21  C   UNL     1       0.937   3.697  19.151  0.00  0.00    +0.000 C 
ATOM     22  C   UNL     1       0.668   2.293  18.615  0.00  0.00    +0.000 C 
ENDBRANCH  18  21
ENDBRANCH  17  18
ENDBRANCH  16  17
ENDBRANCH  15  16
ENDBRANCH   1  15
TORSDOF 7
ENDMDL
MODEL 3
REMARK VINA RESULT:      -6.4      0.942      1.804
REMARK  Name = 
REMARK  9 active torsions:
REMARK  status: ('A' for Active; 'I' for Inactive)
REMARK    1  A    between atoms: C_1  and  C_2
REMARK    2  A    between atoms: C_2  and  N_3
REMARK    3  A    between atoms: N_3  and  C_4
REMARK    4  A    between atoms: N_3  and  C_6
REMARK    5  A    between atoms: C_4  and  C_5
REMARK    6  A    between atoms: C_6  and  C_7
REMARK    7  A    between atoms: C_7  and  C_8
REMARK    8  A    between atoms: C_8  and  N_9
REMARK    9  A    between atoms: C_10  and  C_12
REMARK                            x       y       z     vdW  Elec       q    Type
REMARK                         _______ _______ _______ _____ _____    ______ ____
ROOT
ATOM      1  N   UNL     1       4.205   2.730  17.933  0.00  0.00    +0.000 N 
ATOM      2  C   UNL     1       5.055   3.352  18.825  0.00  0.00    +0.000 C 
ATOM      3  O   UNL     1       5.145   3.019  20.002  0.00  0.00    +0.000 OA
ATOM      4  H   UNL     1       4.199   2.993  16.958  0.00  0.00    +0.000 HD
ENDROOT
BRANCH   2   5
ATOM      5  C   UNL     1       5.872   4.468  18.283  0.00  0.00    +0.000 A 
ATOM      6  C   UNL     1       6.657   5.272  19.130  0.00  0.00    +0.000 A 
ATOM      7  C   UNL     1       7.437   6.306  18.614  0.00  0.00    +0.000 A 
ATOM      8  C   UNL     1       7.468   6.567  17.244  0.00  0.00    +0.000 A 
ATOM      9  C   UNL     1       6.697   5.752  16.406  0.00  0.00    +0.000 A 
ATOM     10  N   UNL     1       6.556   5.778  15.035  0.00  0.00    +0.000 N 
ATOM     11  C   UNL     1       5.697   4.796  14.627  0.00  0.00    +0.000 A 
ATOM     12  C   UNL     1       5.274   4.119  15.748  0.00  0.00    +0.000 A 
ATOM     13  C   UNL     1       5.901   4.708  16.887  0.00  0.00    +0.000 A 
ATOM     14  H   UNL     1       7.028   6.430  14.424  0.00  0.00    +0.000 HD
ENDBRANCH   2   5
BRANCH   1  15
ATOM     15  C   UNL     1       3.309   1.670  18.349  0.00  0.00    +0.000 C 
BRANCH  15  16
ATOM     16  C   UNL     1       1.864   2.146  18.474  0.00  0.00    +0.000 C 
BRANCH  16  17
ATOM     17  C   UNL     1       1.623   3.565  17.933  0.00  0.00    +0.000 C 
BRANCH  17  18
ATOM     18  N   UNL     1       2.084   4.664  18.806  0.00  0.00    +0.000 NA
BRANCH  18  20
ATOM     19  C   UNL     1       3.230   6.882  18.431  0.00  0.00    +0.000 C 
ATOM     20  C   UNL     1       2.053   5.964  18.113  0.00  0.00    +0.000 C 
ENDBRANCH  18  20
BRANCH  18  21
ATOM     21  C   UNL     1       1.370   4.658  20.096  0.00  0.00    +0.000 C 
ATOM     22  C   UNL     1       2.195   4.302  21.331  0.00  0.00    +0.000 C 
ENDBRANCH  18  21
ENDBRANCH  17  18
ENDBRANCH  16  17
ENDBRANCH  15  16
ENDBRANCH   1  15
TORSDOF 7
ENDMDL
MODEL 4
REMARK VINA RESULT:      -6.3      1.658      6.348
REMARK  Name = 
REMARK  9 active torsions:
REMARK  status: ('A' for Active; 'I' for Inactive)
REMARK    1  A    between atoms: C_1  and  C_2
REMARK    2  A    between atoms: C_2  and  N_3
REMARK    3  A    between atoms: N_3  and  C_4
REMARK    4  A    between atoms: N_3  and  C_6
REMARK    5  A    between atoms: C_4  and  C_5
REMARK    6  A    between atoms: C_6  and  C_7
REMARK    7  A    between atoms: C_7  and  C_8
REMARK    8  A    between atoms: C_8  and  N_9
REMARK    9  A    between atoms: C_10  and  C_12
REMARK                            x       y       z     vdW  Elec       q    Type
REMARK                         _______ _______ _______ _____ _____    ______ ____
ROOT
ATOM      1  N   UNL     1       5.699   4.575  19.222  0.00  0.00    +0.000 N 
ATOM      2  C   UNL     1       4.399   5.039  19.244  0.00  0.00    +0.000 C 
ATOM      3  O   UNL     1       4.113   6.212  19.460  0.00  0.00    +0.000 OA
ATOM      4  H   UNL     1       5.901   3.616  18.984  0.00  0.00    +0.000 HD
ENDROOT
BRANCH   2   5
ATOM      5  C   UNL     1       3.340   4.029  18.988  0.00  0.00    +0.000 A 
ATOM      6  C   UNL     1       3.150   3.485  17.704  0.00  0.00    +0.000 A 
ATOM      7  C   UNL     1       2.167   2.523  17.473  0.00  0.00    +0.000 A 
ATOM      8  C   UNL     1       1.351   2.067  18.509  0.00  0.00    +0.000 A 
ATOM      9  C   UNL     1       1.558   2.601  19.786  0.00  0.00    +0.000 A 
ATOM     10  N   UNL     1       0.915   2.323  20.973  0.00  0.00    +0.000 N 
ATOM     11  C   UNL     1       1.437   3.080  21.985  0.00  0.00    +0.000 A 
ATOM     12  C   UNL     1       2.436   3.860  21.450  0.00  0.00    +0.000 A 
ATOM     13  C   UNL     1       2.531   3.568  20.056  0.00  0.00    +0.000 A 
ATOM     14  H   UNL     1       0.167   1.650  21.076  0.00  0.00    +0.000 HD
ENDBRANCH   2   5
BRANCH   1  15
ATOM     15  C   UNL     1       6.821   5.445  19.517  0.00  0.00    +0.000 C 
BRANCH  15  16
ATOM     16  C   UNL     1       7.718   5.666  18.301  0.00  0.00    +0.000 C 
BRANCH  16  17
ATOM     17  C   UNL     1       7.561   4.600  17.205  0.00  0.00    +0.000 C 
BRANCH  17  18
ATOM     18  N   UNL     1       6.343   4.716  16.375  0.00  0.00    +0.000 NA
BRANCH  18  20
ATOM     19  C   UNL     1       4.883   6.757  16.100  0.00  0.00    +0.000 C 
ATOM     20  C   UNL     1       6.205   6.062  15.791  0.00  0.00    +0.000 C 
ENDBRANCH  18  20
BRANCH  18  21
ATOM     21  C   UNL     1       6.262   3.624  15.387  0.00  0.00    +0.000 C 
ATOM     22  C   UNL     1       5.979   4.032  13.943  0.00  0.00    +0.000 C 
ENDBRANCH  18  21
ENDBRANCH  17  18
ENDBRANCH  16  17
ENDBRANCH  15  16
ENDBRANCH   1  15
TORSDOF 7
ENDMDL
MODEL 5
REMARK VINA RESULT:      -6.3      1.661      5.924
REMARK  Name = 
REMARK  9 active torsions:
REMARK  status: ('A' for Active; 'I' for Inactive)
REMARK    1  A    between atoms: C_1  and  C_2
REMARK    2  A    between atoms: C_2  and  N_3
REMARK    3  A    between atoms: N_3  and  C_4
REMARK    4  A    between atoms: N_3  and  C_6
REMARK    5  A    between atoms: C_4  and  C_5
REMARK    6  A    between atoms: C_6  and  C_7
REMARK    7  A    between atoms: C_7  and  C_8
REMARK    8  A    between atoms: C_8  and  N_9
REMARK    9  A    between atoms: C_10  and  C_12
REMARK                            x       y       z     vdW  Elec       q    Type
REMARK                         _______ _______ _______ _____ _____    ______ ____
ROOT
ATOM      1  N   UNL     1       4.416   4.115  17.060  0.00  0.00    +0.000 N 
ATOM      2  C   UNL     1       3.166   3.626  17.382  0.00  0.00    +0.000 C 
ATOM      3  O   UNL     1       2.419   3.111  16.558  0.00  0.00    +0.000 OA
ATOM      4  H   UNL     1       5.027   4.480  17.776  0.00  0.00    +0.000 HD
ENDROOT
BRANCH   2   5
ATOM      5  C   UNL     1       2.759   3.755  18.805  0.00  0.00    +0.000 A 
ATOM      6  C   UNL     1       2.661   2.624  19.639  0.00  0.00    +0.000 A 
ATOM      7  C   UNL     1       2.297   2.753  20.978  0.00  0.00    +0.000 A 
ATOM      8  C   UNL     1       2.028   4.005  21.532  0.00  0.00    +0.000 A 
ATOM      9  C   UNL     1       2.143   5.126  20.701  0.00  0.00    +0.000 A 
ATOM     10  N   UNL     1       1.953   6.460  20.988  0.00  0.00    +0.000 N 
ATOM     11  C   UNL     1       2.172   7.222  19.874  0.00  0.00    +0.000 A 
ATOM     12  C   UNL     1       2.512   6.371  18.847  0.00  0.00    +0.000 A 
ATOM     13  C   UNL     1       2.504   5.036  19.353  0.00  0.00    +0.000 A 
ATOM     14  H   UNL     1       1.694   6.819  21.897  0.00  0.00    +0.000 HD
ENDBRANCH   2   5
BRANCH   1  15
ATOM     15  C   UNL     1       4.908   4.106  15.697  0.00  0.00    +0.000 C 
BRANCH  15  16
ATOM     16  C   UNL     1       6.037   5.111  15.481  0.00  0.00    +0.000 C 
BRANCH  16  17
ATOM     17  C   UNL     1       7.286   4.842  16.336  0.00  0.00    +0.000 C 
BRANCH  17  18
ATOM     18  N   UNL     1       7.533   5.814  17.421  0.00  0.00    +0.000 NA
BRANCH  18  20
ATOM     19  C   UNL     1       7.757   8.322  17.613  0.00  0.00    +0.000 C 
ATOM     20  C   UNL     1       6.939   7.130  17.125  0.00  0.00    +0.000 C 
ENDBRANCH  18  20
BRANCH  18  21
ATOM     21  C   UNL     1       7.142   5.264  18.732  0.00  0.00    +0.000 C 
ATOM     22  C   UNL     1       8.083   5.552  19.900  0.00  0.00    +0.000 C 
ENDBRANCH  18  21
ENDBRANCH  17  18
ENDBRANCH  16  17
ENDBRANCH  15  16
ENDBRANCH   1  15
TORSDOF 7
ENDMDL
MODEL 6
REMARK VINA RESULT:      -6.2      1.477      6.330
REMARK  Name = 
REMARK  9 active torsions:
REMARK  status: ('A' for Active; 'I' for Inactive)
REMARK    1  A    between atoms: C_1  and  C_2
REMARK    2  A    between atoms: C_2  and  N_3
REMARK    3  A    between atoms: N_3  and  C_4
REMARK    4  A    between atoms: N_3  and  C_6
REMARK    5  A    between atoms: C_4  and  C_5
REMARK    6  A    between atoms: C_6  and  C_7
REMARK    7  A    between atoms: C_7  and  C_8
REMARK    8  A    between atoms: C_8  and  N_9
REMARK    9  A    between atoms: C_10  and  C_12
REMARK                            x       y       z     vdW  Elec       q    Type
REMARK                         _______ _______ _______ _____ _____    ______ ____
ROOT
ATOM      1  N   UNL     1       5.519   5.074  18.714  0.00  0.00    +0.000 N 
ATOM      2  C   UNL     1       4.882   3.966  19.238  0.00  0.00    +0.000 C 
ATOM      3  O   UNL     1       5.465   3.109  19.891  0.00  0.00    +0.000 OA
ATOM      4  H   UNL     1       4.996   5.789  18.231  0.00  0.00    +0.000 HD
ENDROOT
BRANCH   2   5
ATOM      5  C   UNL     1       3.425   3.860  18.966  0.00  0.00    +0.000 A 
ATOM      6  C   UNL     1       2.896   4.186  17.703  0.00  0.00    +0.000 A 
ATOM      7  C   UNL     1       1.530   4.066  17.448  0.00  0.00    +0.000 A 
ATOM      8  C   UNL     1       0.653   3.613  18.432  0.00  0.00    +0.000 A 
ATOM      9  C   UNL     1       1.189   3.276  19.681  0.00  0.00    +0.000 A 
ATOM     10  N   UNL     1       0.562   2.795  20.810  0.00  0.00    +0.000 N 
ATOM     11  C   UNL     1       1.471   2.600  21.812  0.00  0.00    +0.000 A 
ATOM     12  C   UNL     1       2.709   2.957  21.328  0.00  0.00    +0.000 A 
ATOM     13  C   UNL     1       2.552   3.384  19.975  0.00  0.00    +0.000 A 
ATOM     14  H   UNL     1      -0.429   2.610  20.879  0.00  0.00    +0.000 HD
ENDBRANCH   2   5
BRANCH   1  15
ATOM     15  C   UNL     1       6.949   5.265  18.854  0.00  0.00    +0.000 C 
BRANCH  15  16
ATOM     16  C   UNL     1       7.726   4.724  17.656  0.00  0.00    +0.000 C 
BRANCH  16  17
ATOM     17  C   UNL     1       6.839   4.291  16.478  0.00  0.00    +0.000 C 
BRANCH  17  18
ATOM     18  N   UNL     1       6.649   5.304  15.420  0.00  0.00    +0.000 NA
BRANCH  18  20
ATOM     19  C   UNL     1       6.294   3.900  13.353  0.00  0.00    +0.000 C 
ATOM     20  C   UNL     1       7.195   4.856  14.127  0.00  0.00    +0.000 C 
ENDBRANCH  18  20
BRANCH  18  21
ATOM     21  C   UNL     1       5.245   5.751  15.353  0.00  0.00    +0.000 C 
ATOM     22  C   UNL     1       4.913   7.064  16.057  0.00  0.00    +0.000 C 
ENDBRANCH  18  21
ENDBRANCH  17  18
ENDBRANCH  16  17
ENDBRANCH  15  16
ENDBRANCH   1  15
TORSDOF 7
ENDMDL
MODEL 7
REMARK VINA RESULT:      -6.2      1.047      1.067
REMARK  Name = 
REMARK  9 active torsions:
REMARK  status: ('A' for Active; 'I' for Inactive)
REMARK    1  A    between atoms: C_1  and  C_2
REMARK    2  A    between atoms: C_2  and  N_3
REMARK    3  A    between atoms: N_3  and  C_4
REMARK    4  A    between atoms: N_3  and  C_6
REMARK    5  A    between atoms: C_4  and  C_5
REMARK    6  A    between atoms: C_6  and  C_7
REMARK    7  A    between atoms: C_7  and  C_8
REMARK    8  A    between atoms: C_8  and  N_9
REMARK    9  A    between atoms: C_10  and  C_12
REMARK                            x       y       z     vdW  Elec       q    Type
REMARK                         _______ _______ _______ _____ _____    ______ ____
ROOT
ATOM      1  N   UNL     1       3.584   2.603  18.387  0.00  0.00    +0.000 N 
ATOM      2  C   UNL     1       3.789   3.592  17.446  0.00  0.00    +0.000 C 
ATOM      3  O   UNL     1       2.971   3.861  16.572  0.00  0.00    +0.000 OA
ATOM      4  H   UNL     1       4.253   2.449  19.127  0.00  0.00    +0.000 HD
ENDROOT
BRANCH   2   5
ATOM      5  C   UNL     1       5.073   4.333  17.543  0.00  0.00    +0.000 A 
ATOM      6  C   UNL     1       5.563   4.777  18.786  0.00  0.00    +0.000 A 
ATOM      7  C   UNL     1       6.778   5.455  18.875  0.00  0.00    +0.000 A 
ATOM      8  C   UNL     1       7.546   5.704  17.738  0.00  0.00    +0.000 A 
ATOM      9  C   UNL     1       7.059   5.244  16.507  0.00  0.00    +0.000 A 
ATOM     10  N   UNL     1       7.613   5.339  15.249  0.00  0.00    +0.000 N 
ATOM     11  C   UNL     1       6.795   4.751  14.324  0.00  0.00    +0.000 A 
ATOM     12  C   UNL     1       5.694   4.264  14.991  0.00  0.00    +0.000 A 
ATOM     13  C   UNL     1       5.845   4.563  16.379  0.00  0.00    +0.000 A 
ATOM     14  H   UNL     1       8.501   5.778  15.045  0.00  0.00    +0.000 HD
ENDBRANCH   2   5
BRANCH   1  15
ATOM     15  C   UNL     1       2.401   1.767  18.365  0.00  0.00    +0.000 C 
BRANCH  15  16
ATOM     16  C   UNL     1       1.114   2.579  18.494  0.00  0.00    +0.000 C 
BRANCH  16  17
ATOM     17  C   UNL     1       0.676   2.833  19.945  0.00  0.00    +0.000 C 
BRANCH  17  18
ATOM     18  N   UNL     1       1.089   4.132  20.515  0.00  0.00    +0.000 NA
BRANCH  18  20
ATOM     19  C   UNL     1       2.502   2.542  21.873  0.00  0.00    +0.000 C 
ATOM     20  C   UNL     1       2.193   3.983  21.479  0.00  0.00    +0.000 C 
ENDBRANCH  18  20
BRANCH  18  21
ATOM     21  C   UNL     1       1.352   5.122  19.454  0.00  0.00    +0.000 C 
ATOM     22  C   UNL     1       2.370   6.214  19.777  0.00  0.00    +0.000 C 
ENDBRANCH  18  21
ENDBRANCH  17  18
ENDBRANCH  16  17
ENDBRANCH  15  16
ENDBRANCH   1  15
TORSDOF 7
ENDMDL
MODEL 8
REMARK VINA RESULT:      -6.2      1.206      2.005
REMARK  Name = 
REMARK  9 active torsions:
REMARK  status: ('A' for Active; 'I' for Inactive)
REMARK    1  A    between atoms: C_1  and  C_2
REMARK    2  A    between atoms: C_2  and  N_3
REMARK    3  A    between atoms: N_3  and  C_4
REMARK    4  A    between atoms: N_3  and  C_6
REMARK    5  A    between atoms: C_4  and  C_5
REMARK    6  A    between atoms: C_6  and  C_7
REMARK    7  A    between atoms: C_7  and  C_8
REMARK    8  A    between atoms: C_8  and  N_9
REMARK    9  A    between atoms: C_10  and  C_12
REMARK                            x       y       z     vdW  Elec       q    Type
REMARK                         _______ _______ _______ _____ _____    ______ ____
ROOT
ATOM      1  N   UNL     1       3.506   2.649  17.935  0.00  0.00    +0.000 N 
ATOM      2  C   UNL     1       3.616   3.957  17.505  0.00  0.00    +0.000 C 
ATOM      3  O   UNL     1       2.669   4.592  17.056  0.00  0.00    +0.000 OA
ATOM      4  H   UNL     1       4.293   2.176  18.354  0.00  0.00    +0.000 HD
ENDROOT
BRANCH   2   5
ATOM      5  C   UNL     1       4.965   4.571  17.615  0.00  0.00    +0.000 A 
ATOM      6  C   UNL     1       5.487   4.957  18.864  0.00  0.00    +0.000 A 
ATOM      7  C   UNL     1       6.761   5.516  18.964  0.00  0.00    +0.000 A 
ATOM      8  C   UNL     1       7.556   5.698  17.832  0.00  0.00    +0.000 A 
ATOM      9  C   UNL     1       7.035   5.295  16.596  0.00  0.00    +0.000 A 
ATOM     10  N   UNL     1       7.602   5.346  15.341  0.00  0.00    +0.000 N 
ATOM     11  C   UNL     1       6.738   4.845  14.408  0.00  0.00    +0.000 A 
ATOM     12  C   UNL     1       5.592   4.461  15.066  0.00  0.00    +0.000 A 
ATOM     13  C   UNL     1       5.762   4.734  16.456  0.00  0.00    +0.000 A 
ATOM     14  H   UNL     1       8.529   5.700  15.145  0.00  0.00    +0.000 HD
ENDBRANCH   2   5
BRANCH   1  15
ATOM     15  C   UNL     1       2.261   1.915  17.825  0.00  0.00    +0.000 C 
BRANCH  15  16
ATOM     16  C   UNL     1       1.485   1.890  19.140  0.00  0.00    +0.000 C 
BRANCH  16  17
ATOM     17  C   UNL     1       1.010   3.273  19.614  0.00  0.00    +0.000 C 
BRANCH  17  18
ATOM     18  N   UNL     1       1.986   4.038  20.417  0.00  0.00    +0.000 NA
BRANCH  18  20
ATOM     19  C   UNL     1       2.298   6.491  19.906  0.00  0.00    +0.000 C 
ATOM     20  C   UNL     1       1.528   5.416  20.668  0.00  0.00    +0.000 C 
ENDBRANCH  18  20
BRANCH  18  21
ATOM     21  C   UNL     1       2.369   3.304  21.637  0.00  0.00    +0.000 C 
ATOM     22  C   UNL     1       1.291   2.427  22.271  0.00  0.00    +0.000 C 
ENDBRANCH  18  21
ENDBRANCH  17  18
ENDBRANCH  16  17
ENDBRANCH  15  16
ENDBRANCH   1  15
TORSDOF 7
ENDMDL
MODEL 9
REMARK VINA RESULT:      -6.1      0.917      2.181
REMARK  Name = 
REMARK  9 active torsions:
REMARK  status: ('A' for Active; 'I' for Inactive)
REMARK    1  A    between atoms: C_1  and  C_2
REMARK    2  A    between atoms: C_2  and  N_3
REMARK    3  A    between atoms: N_3  and  C_4
REMARK    4  A    between atoms: N_3  and  C_6
REMARK    5  A    between atoms: C_4  and  C_5
REMARK    6  A    between atoms: C_6  and  C_7
REMARK    7  A    between atoms: C_7  and  C_8
REMARK    8  A    between atoms: C_8  and  N_9
REMARK    9  A    between atoms: C_10  and  C_12
REMARK                            x       y       z     vdW  Elec       q    Type
REMARK                         _______ _______ _______ _____ _____    ______ ____
ROOT
ATOM      1  N   UNL     1       3.125   3.122  17.179  0.00  0.00    +0.000 N 
ATOM      2  C   UNL     1       4.366   3.492  17.659  0.00  0.00    +0.000 C 
ATOM      3  O   UNL     1       4.676   3.404  18.843  0.00  0.00    +0.000 OA
ATOM      4  H   UNL     1       2.925   3.152  16.191  0.00  0.00    +0.000 HD
ENDROOT
BRANCH   2   5
ATOM      5  C   UNL     1       5.328   4.012  16.654  0.00  0.00    +0.000 A 
ATOM      6  C   UNL     1       5.415   3.443  15.369  0.00  0.00    +0.000 A 
ATOM      7  C   UNL     1       6.306   3.947  14.423  0.00  0.00    +0.000 A 
ATOM      8  C   UNL     1       7.130   5.033  14.719  0.00  0.00    +0.000 A 
ATOM      9  C   UNL     1       7.025   5.604  15.994  0.00  0.00    +0.000 A 
ATOM     10  N   UNL     1       7.698   6.677  16.538  0.00  0.00    +0.000 N 
ATOM     11  C   UNL     1       7.285   6.894  17.823  0.00  0.00    +0.000 A 
ATOM     12  C   UNL     1       6.328   5.951  18.119  0.00  0.00    +0.000 A 
ATOM     13  C   UNL     1       6.146   5.125  16.969  0.00  0.00    +0.000 A 
ATOM     14  H   UNL     1       8.393   7.224  16.049  0.00  0.00    +0.000 HD
ENDBRANCH   2   5
BRANCH   1  15
ATOM     15  C   UNL     1       2.076   2.656  18.064  0.00  0.00    +0.000 C 
BRANCH  15  16
ATOM     16  C   UNL     1       1.077   3.759  18.408  0.00  0.00    +0.000 C 
BRANCH  16  17
ATOM     17  C   UNL     1       0.704   3.824  19.898  0.00  0.00    +0.000 C 
BRANCH  17  18
ATOM     18  N   UNL     1       1.563   4.693  20.730  0.00  0.00    +0.000 NA
BRANCH  18  20
ATOM     19  C   UNL     1       2.029   2.455  21.800  0.00  0.00    +0.000 C 
ATOM     20  C   UNL     1       2.448   3.910  21.609  0.00  0.00    +0.000 C 
ENDBRANCH  18  20
BRANCH  18  21
ATOM     21  C   UNL     1       2.269   5.692  19.907  0.00  0.00    +0.000 C 
ATOM     22  C   UNL     1       1.943   7.158  20.184  0.00  0.00    +0.000 C 
ENDBRANCH  18  21
ENDBRANCH  17  18
ENDBRANCH  16  17
ENDBRANCH  15  16
ENDBRANCH   1  15
TORSDOF 7
ENDMDL
