MODEL 1
REMARK VINA RESULT:      -7.8      0.000      0.000
REMARK  Name = 
REMARK  12 active torsions:
REMARK  status: ('A' for Active; 'I' for Inactive)
REMARK    1  A    between atoms: C_1  and  C_2
REMARK    2  A    between atoms: C_2  and  C_3
REMARK    3  A    between atoms: C_2  and  C_4
REMARK    4  A    between atoms: N_6  and  C_7
REMARK    5  A    between atoms: C_10  and  C_11
REMARK    6  A    between atoms: C_11  and  C_12
REMARK    7  A    between atoms: C_12  and  N_13
REMARK    8  A    between atoms: N_13  and  CA_14
REMARK    9  A    between atoms: CA_14  and  C_15
REMARK   10  A    between atoms: CA_14  and  C_17
REMARK   11  A    between atoms: C_15  and  O_16
REMARK   12  A    between atoms: C_20  and  O_21
REMARK                            x       y       z     vdW  Elec       q    Type
REMARK                         _______ _______ _______ _____ _____    ______ ____
ROOT
ATOM      1  CA  UNL     1       0.268   9.253  20.722  0.00  0.00    +0.000 C 
ENDROOT
BRANCH   1   2
ATOM      2  C   UNL     1       0.134  10.617  20.026  0.00  0.00    +0.000 A 
ATOM      3  C   UNL     1       0.696  11.763  20.637  0.00  0.00    +0.000 A 
ATOM      4  C   UNL     1       0.437  13.055  20.166  0.00  0.00    +0.000 A 
ATOM      5  C   UNL     1      -0.454  13.227  19.120  0.00  0.00    +0.000 A 
ATOM      6  C   UNL     1      -1.029  12.116  18.508  0.00  0.00    +0.000 A 
ATOM      7  N   UNL     1      -2.070  12.306  17.582  0.00  0.00    +0.000 N 
ATOM      8  C   UNL     1      -2.757  11.271  17.015  0.00  0.00    +0.000 A 
ATOM      9  O   UNL     1      -3.825  11.404  16.432  0.00  0.00    +0.000 OA
ATOM     10  C   UNL     1      -2.089   9.950  17.091  0.00  0.00    +0.000 A 
ATOM     11  C   UNL     1      -1.111   9.729  17.981  0.00  0.00    +0.000 A 
ATOM     12  C   UNL     1      -0.661  10.807  18.876  0.00  0.00    +0.000 A 
ATOM     13  H   UNL     1      -2.450  13.241  17.490  0.00  0.00    +0.000 HD
BRANCH   5  14
ATOM     14  O   UNL     1      -0.783  14.477  18.670  0.00  0.00    +0.000 OA
ATOM     15  H   UNL     1      -1.036  14.409  17.734  0.00  0.00    +0.000 HD
ENDBRANCH   5  14
ENDBRANCH   1   2
BRANCH   1  16
ATOM     16  N   UNL     1       1.189   8.362  19.971  0.00  0.00    +0.000 NA
ATOM     17  H   UNL     1       0.626   7.857  19.283  0.00  0.00    +0.000 HD
BRANCH  16  18
ATOM     18  C   UNL     1       1.841   7.374  20.848  0.00  0.00    +0.000 C 
BRANCH  18  19
ATOM     19  C   UNL     1       1.537   5.939  20.393  0.00  0.00    +0.000 C 
BRANCH  19  23
ATOM     20  C   UNL     1       4.250   4.630  17.268  0.00  0.00    +0.000 A 
ATOM     21  C   UNL     1       2.896   4.302  17.228  0.00  0.00    +0.000 A 
ATOM     22  C   UNL     1       2.023   4.732  18.232  0.00  0.00    +0.000 A 
ATOM     23  C   UNL     1       2.485   5.498  19.305  0.00  0.00    +0.000 A 
ATOM     24  C   UNL     1       3.849   5.813  19.356  0.00  0.00    +0.000 A 
ATOM     25  C   UNL     1       4.724   5.379  18.348  0.00  0.00    +0.000 A 
BRANCH  20  28
ATOM     26  C   UNL     1       5.686   4.997  15.260  0.00  0.00    +0.000 C 
ATOM     27  O   UNL     1       5.520   6.209  15.147  0.00  0.00    +0.000 OA
ATOM     28  N   UNL     1       5.176   4.210  16.285  0.00  0.00    +0.000 N 
ATOM     29  H   UNL     1       5.566   3.282  16.394  0.00  0.00    +0.000 HD
BRANCH  26  31
ATOM     30  C   UNL     1       5.628   3.612  13.160  0.00  0.00    +0.000 C 
ATOM     31  C   UNL     1       6.523   4.215  14.243  0.00  0.00    +0.000 C 
ATOM     32  C   UNL     1       7.568   5.133  13.595  0.00  0.00    +0.000 C 
ENDBRANCH  26  31
ENDBRANCH  20  28
ENDBRANCH  19  23
ENDBRANCH  18  19
ENDBRANCH  16  18
ENDBRANCH   1  16
BRANCH   1  33
ATOM     33  C   UNL     1       0.727   9.457  22.200  0.00  0.00    +0.000 C 
BRANCH  33  34
ATOM     34  O   UNL     1      -0.378   9.486  23.109  0.00  0.00    +0.000 OA
ATOM     35  H   UNL     1      -0.418  10.406  23.431  0.00  0.00    +0.000 HD
ENDBRANCH  33  34
ENDBRANCH   1  33
TORSDOF 10
ENDMDL
MODEL 2
REMARK VINA RESULT:      -7.8      2.914     10.247
REMARK  Name = 
REMARK  12 active torsions:
REMARK  status: ('A' for Active; 'I' for Inactive)
REMARK    1  A    between atoms: C_1  and  C_2
REMARK    2  A    between atoms: C_2  and  C_3
REMARK    3  A    between atoms: C_2  and  C_4
REMARK    4  A    between atoms: N_6  and  C_7
REMARK    5  A    between atoms: C_10  and  C_11
REMARK    6  A    between atoms: C_11  and  C_12
REMARK    7  A    between atoms: C_12  and  N_13
REMARK    8  A    between atoms: N_13  and  CA_14
REMARK    9  A    between atoms: CA_14  and  C_15
REMARK   10  A    between atoms: CA_14  and  C_17
REMARK   11  A    between atoms: C_15  and  O_16
REMARK   12  A    between atoms: C_20  and  O_21
REMARK                            x       y       z     vdW  Elec       q    Type
REMARK                         _______ _______ _______ _____ _____    ______ ____
ROOT
ATOM      1  CA  UNL     1       2.650   7.129  18.921  0.00  0.00    +0.000 C 
ENDROOT
BRANCH   1   2
ATOM      2  C   UNL     1       2.954   5.714  18.407  0.00  0.00    +0.000 A 
ATOM      3  C   UNL     1       2.074   4.654  18.734  0.00  0.00    +0.000 A 
ATOM      4  C   UNL     1       2.396   3.318  18.475  0.00  0.00    +0.000 A 
ATOM      5  C   UNL     1       3.642   3.011  17.952  0.00  0.00    +0.000 A 
ATOM      6  C   UNL     1       4.530   4.035  17.630  0.00  0.00    +0.000 A 
ATOM      7  N   UNL     1       5.853   3.709  17.284  0.00  0.00    +0.000 N 
ATOM      8  C   UNL     1       6.814   4.653  17.055  0.00  0.00    +0.000 A 
ATOM      9  O   UNL     1       8.013   4.407  17.024  0.00  0.00    +0.000 OA
ATOM     10  C   UNL     1       6.308   6.018  16.777  0.00  0.00    +0.000 A 
ATOM     11  C   UNL     1       5.060   6.367  17.120  0.00  0.00    +0.000 A 
ATOM     12  C   UNL     1       4.159   5.389  17.749  0.00  0.00    +0.000 A 
ATOM     13  H   UNL     1       6.146   2.747  17.404  0.00  0.00    +0.000 HD
BRANCH   5  14
ATOM     14  O   UNL     1       4.021   1.713  17.742  0.00  0.00    +0.000 OA
ATOM     15  H   UNL     1       4.637   1.456  18.449  0.00  0.00    +0.000 HD
ENDBRANCH   5  14
ENDBRANCH   1   2
BRANCH   1  16
ATOM     16  N   UNL     1       2.176   8.004  17.819  0.00  0.00    +0.000 NA
ATOM     17  H   UNL     1       2.934   8.067  17.136  0.00  0.00    +0.000 HD
BRANCH  16  18
ATOM     18  C   UNL     1       1.862   9.366  18.287  0.00  0.00    +0.000 C 
BRANCH  18  19
ATOM     19  C   UNL     1       0.480   9.820  17.795  0.00  0.00    +0.000 C 
BRANCH  19  23
ATOM     20  C   UNL     1      -1.583  12.100  20.858  0.00  0.00    +0.000 A 
ATOM     21  C   UNL     1      -0.266  11.678  21.040  0.00  0.00    +0.000 A 
ATOM     22  C   UNL     1       0.399  10.951  20.048  0.00  0.00    +0.000 A 
ATOM     23  C   UNL     1      -0.240  10.623  18.850  0.00  0.00    +0.000 A 
ATOM     24  C   UNL     1      -1.569  11.030  18.673  0.00  0.00    +0.000 A 
ATOM     25  C   UNL     1      -2.234  11.759  19.670  0.00  0.00    +0.000 A 
BRANCH  20  28
ATOM     26  C   UNL     1      -2.777  12.321  23.038  0.00  0.00    +0.000 C 
ATOM     27  O   UNL     1      -2.515  11.212  23.495  0.00  0.00    +0.000 OA
ATOM     28  N   UNL     1      -2.303  12.827  21.835  0.00  0.00    +0.000 N 
ATOM     29  H   UNL     1      -2.401  13.822  21.679  0.00  0.00    +0.000 HD
BRANCH  26  31
ATOM     30  C   UNL     1      -4.551  12.548  24.810  0.00  0.00    +0.000 C 
ATOM     31  C   UNL     1      -3.680  13.297  23.801  0.00  0.00    +0.000 C 
ATOM     32  C   UNL     1      -2.831  14.346  24.533  0.00  0.00    +0.000 C 
ENDBRANCH  26  31
ENDBRANCH  20  28
ENDBRANCH  19  23
ENDBRANCH  18  19
ENDBRANCH  16  18
ENDBRANCH   1  16
BRANCH   1  33
ATOM     33  C   UNL     1       1.619   7.055  20.093  0.00  0.00    +0.000 C 
BRANCH  33  34
ATOM     34  O   UNL     1       2.036   7.824  21.226  0.00  0.00    +0.000 OA
ATOM     35  H   UNL     1       1.948   7.220  21.988  0.00  0.00    +0.000 HD
ENDBRANCH  33  34
ENDBRANCH   1  33
TORSDOF 10
ENDMDL
MODEL 3
REMARK VINA RESULT:      -7.6      2.858     10.185
REMARK  Name = 
REMARK  12 active torsions:
REMARK  status: ('A' for Active; 'I' for Inactive)
REMARK    1  A    between atoms: C_1  and  C_2
REMARK    2  A    between atoms: C_2  and  C_3
REMARK    3  A    between atoms: C_2  and  C_4
REMARK    4  A    between atoms: N_6  and  C_7
REMARK    5  A    between atoms: C_10  and  C_11
REMARK    6  A    between atoms: C_11  and  C_12
REMARK    7  A    between atoms: C_12  and  N_13
REMARK    8  A    between atoms: N_13  and  CA_14
REMARK    9  A    between atoms: CA_14  and  C_15
REMARK   10  A    between atoms: CA_14  and  C_17
REMARK   11  A    between atoms: C_15  and  O_16
REMARK   12  A    between atoms: C_20  and  O_21
REMARK                            x       y       z     vdW  Elec       q    Type
REMARK                         _______ _______ _______ _____ _____    ______ ____
ROOT
ATOM      1  CA  UNL     1       2.922   7.360  18.803  0.00  0.00    +0.000 C 
ENDROOT
BRANCH   1   2
ATOM      2  C   UNL     1       3.137   5.948  18.235  0.00  0.00    +0.000 A 
ATOM      3  C   UNL     1       2.145   4.961  18.440  0.00  0.00    +0.000 A 
ATOM      4  C   UNL     1       2.365   3.614  18.131  0.00  0.00    +0.000 A 
ATOM      5  C   UNL     1       3.615   3.219  17.683  0.00  0.00    +0.000 A 
ATOM      6  C   UNL     1       4.612   4.170  17.482  0.00  0.00    +0.000 A 
ATOM      7  N   UNL     1       5.924   3.739  17.213  0.00  0.00    +0.000 N 
ATOM      8  C   UNL     1       6.980   4.600  17.106  0.00  0.00    +0.000 A 
ATOM      9  O   UNL     1       8.151   4.245  17.147  0.00  0.00    +0.000 OA
ATOM     10  C   UNL     1       6.620   6.018  16.868  0.00  0.00    +0.000 A 
ATOM     11  C   UNL     1       5.386   6.465  17.140  0.00  0.00    +0.000 A 
ATOM     12  C   UNL     1       4.356   5.545  17.648  0.00  0.00    +0.000 A 
ATOM     13  H   UNL     1       6.120   2.749  17.301  0.00  0.00    +0.000 HD
BRANCH   5  14
ATOM     14  O   UNL     1       3.891   1.903  17.429  0.00  0.00    +0.000 OA
ATOM     15  H   UNL     1       3.657   1.383  18.217  0.00  0.00    +0.000 HD
ENDBRANCH   5  14
ENDBRANCH   1   2
BRANCH   1  16
ATOM     16  N   UNL     1       2.704   8.344  17.712  0.00  0.00    +0.000 NA
ATOM     17  H   UNL     1       3.497   8.989  17.724  0.00  0.00    +0.000 HD
BRANCH  16  18
ATOM     18  C   UNL     1       1.470   9.125  17.910  0.00  0.00    +0.000 C 
BRANCH  18  19
ATOM     19  C   UNL     1       1.786  10.571  18.318  0.00  0.00    +0.000 C 
BRANCH  19  23
ATOM     20  C   UNL     1      -1.355  12.229  20.814  0.00  0.00    +0.000 A 
ATOM     21  C   UNL     1      -1.658  11.435  19.709  0.00  0.00    +0.000 A 
ATOM     22  C   UNL     1      -0.645  10.895  18.911  0.00  0.00    +0.000 A 
ATOM     23  C   UNL     1       0.701  11.141  19.197  0.00  0.00    +0.000 A 
ATOM     24  C   UNL     1       1.007  11.954  20.297  0.00  0.00    +0.000 A 
ATOM     25  C   UNL     1      -0.012  12.495  21.095  0.00  0.00    +0.000 A 
BRANCH  20  28
ATOM     26  C   UNL     1      -2.786  12.294  22.857  0.00  0.00    +0.000 C 
ATOM     27  O   UNL     1      -2.282  11.346  23.454  0.00  0.00    +0.000 OA
ATOM     28  N   UNL     1      -2.343  12.807  21.645  0.00  0.00    +0.000 N 
ATOM     29  H   UNL     1      -2.690  13.717  21.372  0.00  0.00    +0.000 HD
BRANCH  26  31
ATOM     30  C   UNL     1      -3.629  14.493  23.746  0.00  0.00    +0.000 C 
ATOM     31  C   UNL     1      -3.993  13.041  23.435  0.00  0.00    +0.000 C 
ATOM     32  C   UNL     1      -5.164  13.005  22.444  0.00  0.00    +0.000 C 
ENDBRANCH  26  31
ENDBRANCH  20  28
ENDBRANCH  19  23
ENDBRANCH  18  19
ENDBRANCH  16  18
ENDBRANCH   1  16
BRANCH   1  33
ATOM     33  C   UNL     1       1.739   7.344  19.822  0.00  0.00    +0.000 C 
BRANCH  33  34
ATOM     34  O   UNL     1       2.122   7.859  21.101  0.00  0.00    +0.000 OA
ATOM     35  H   UNL     1       3.063   7.620  21.199  0.00  0.00    +0.000 HD
ENDBRANCH  33  34
ENDBRANCH   1  33
TORSDOF 10
ENDMDL
MODEL 4
REMARK VINA RESULT:      -7.6      2.909     10.326
REMARK  Name = 
REMARK  12 active torsions:
REMARK  status: ('A' for Active; 'I' for Inactive)
REMARK    1  A    between atoms: C_1  and  C_2
REMARK    2  A    between atoms: C_2  and  C_3
REMARK    3  A    between atoms: C_2  and  C_4
REMARK    4  A    between atoms: N_6  and  C_7
REMARK    5  A    between atoms: C_10  and  C_11
REMARK    6  A    between atoms: C_11  and  C_12
REMARK    7  A    between atoms: C_12  and  N_13
REMARK    8  A    between atoms: N_13  and  CA_14
REMARK    9  A    between atoms: CA_14  and  C_15
REMARK   10  A    between atoms: CA_14  and  C_17
REMARK   11  A    between atoms: C_15  and  O_16
REMARK   12  A    between atoms: C_20  and  O_21
REMARK                            x       y       z     vdW  Elec       q    Type
REMARK                         _______ _______ _______ _____ _____    ______ ____
ROOT
ATOM      1  CA  UNL     1       2.623   7.271  18.817  0.00  0.00    +0.000 C 
ENDROOT
BRANCH   1   2
ATOM      2  C   UNL     1       2.928   5.860  18.290  0.00  0.00    +0.000 A 
ATOM      3  C   UNL     1       1.999   4.818  18.523  0.00  0.00    +0.000 A 
ATOM      4  C   UNL     1       2.305   3.480  18.254  0.00  0.00    +0.000 A 
ATOM      5  C   UNL     1       3.578   3.151  17.819  0.00  0.00    +0.000 A 
ATOM      6  C   UNL     1       4.515   4.157  17.592  0.00  0.00    +0.000 A 
ATOM      7  N   UNL     1       5.851   3.802  17.337  0.00  0.00    +0.000 N 
ATOM      8  C   UNL     1       6.851   4.724  17.206  0.00  0.00    +0.000 A 
ATOM      9  O   UNL     1       8.042   4.445  17.259  0.00  0.00    +0.000 OA
ATOM     10  C   UNL     1       6.404   6.109  16.926  0.00  0.00    +0.000 A 
ATOM     11  C   UNL     1       5.143   6.485  17.183  0.00  0.00    +0.000 A 
ATOM     12  C   UNL     1       4.172   5.517  17.717  0.00  0.00    +0.000 A 
ATOM     13  H   UNL     1       6.109   2.830  17.454  0.00  0.00    +0.000 HD
BRANCH   5  14
ATOM     14  O   UNL     1       3.938   1.848  17.604  0.00  0.00    +0.000 OA
ATOM     15  H   UNL     1       4.095   1.727  16.653  0.00  0.00    +0.000 HD
ENDBRANCH   5  14
ENDBRANCH   1   2
BRANCH   1  16
ATOM     16  N   UNL     1       2.029   8.118  17.751  0.00  0.00    +0.000 NA
ATOM     17  H   UNL     1       2.754   8.272  17.048  0.00  0.00    +0.000 HD
BRANCH  16  18
ATOM     18  C   UNL     1       1.597   9.431  18.263  0.00  0.00    +0.000 C 
BRANCH  18  19
ATOM     19  C   UNL     1       0.099   9.660  18.016  0.00  0.00    +0.000 C 
BRANCH  19  23
ATOM     20  C   UNL     1      -1.569  12.391  20.948  0.00  0.00    +0.000 A 
ATOM     21  C   UNL     1      -1.737  12.613  19.582  0.00  0.00    +0.000 A 
ATOM     22  C   UNL     1      -1.206  11.727  18.639  0.00  0.00    +0.000 A 
ATOM     23  C   UNL     1      -0.488  10.598  19.041  0.00  0.00    +0.000 A 
ATOM     24  C   UNL     1      -0.302  10.384  20.413  0.00  0.00    +0.000 A 
ATOM     25  C   UNL     1      -0.836  11.275  21.357  0.00  0.00    +0.000 A 
BRANCH  20  28
ATOM     26  C   UNL     1      -3.339  13.191  22.516  0.00  0.00    +0.000 C 
ATOM     27  O   UNL     1      -4.141  12.276  22.355  0.00  0.00    +0.000 OA
ATOM     28  N   UNL     1      -2.077  13.263  21.940  0.00  0.00    +0.000 N 
ATOM     29  H   UNL     1      -1.430  13.939  22.324  0.00  0.00    +0.000 HD
BRANCH  26  31
ATOM     30  C   UNL     1      -2.581  14.567  24.482  0.00  0.00    +0.000 C 
ATOM     31  C   UNL     1      -3.668  14.381  23.423  0.00  0.00    +0.000 C 
ATOM     32  C   UNL     1      -3.800  15.664  22.591  0.00  0.00    +0.000 C 
ENDBRANCH  26  31
ENDBRANCH  20  28
ENDBRANCH  19  23
ENDBRANCH  18  19
ENDBRANCH  16  18
ENDBRANCH   1  16
BRANCH   1  33
ATOM     33  C   UNL     1       1.699   7.178  20.073  0.00  0.00    +0.000 C 
BRANCH  33  34
ATOM     34  O   UNL     1       2.172   7.991  21.151  0.00  0.00    +0.000 OA
ATOM     35  H   UNL     1       1.940   8.905  20.899  0.00  0.00    +0.000 HD
ENDBRANCH  33  34
ENDBRANCH   1  33
TORSDOF 10
ENDMDL
MODEL 5
REMARK VINA RESULT:      -7.6      2.705      9.556
REMARK  Name = 
REMARK  12 active torsions:
REMARK  status: ('A' for Active; 'I' for Inactive)
REMARK    1  A    between atoms: C_1  and  C_2
REMARK    2  A    between atoms: C_2  and  C_3
REMARK    3  A    between atoms: C_2  and  C_4
REMARK    4  A    between atoms: N_6  and  C_7
REMARK    5  A    between atoms: C_10  and  C_11
REMARK    6  A    between atoms: C_11  and  C_12
REMARK    7  A    between atoms: C_12  and  N_13
REMARK    8  A    between atoms: N_13  and  CA_14
REMARK    9  A    between atoms: CA_14  and  C_15
REMARK   10  A    between atoms: CA_14  and  C_17
REMARK   11  A    between atoms: C_15  and  O_16
REMARK   12  A    between atoms: C_20  and  O_21
REMARK                            x       y       z     vdW  Elec       q    Type
REMARK                         _______ _______ _______ _____ _____    ______ ____
ROOT
ATOM      1  CA  UNL     1       3.584   3.587  18.311  0.00  0.00    +0.000 C 
ENDROOT
BRANCH   1   2
ATOM      2  C   UNL     1       4.987   4.213  18.304  0.00  0.00    +0.000 A 
ATOM      3  C   UNL     1       5.457   4.873  19.465  0.00  0.00    +0.000 A 
ATOM      4  C   UNL     1       6.630   5.635  19.459  0.00  0.00    +0.000 A 
ATOM      5  C   UNL     1       7.314   5.816  18.268  0.00  0.00    +0.000 A 
ATOM      6  C   UNL     1       6.867   5.185  17.109  0.00  0.00    +0.000 A 
ATOM      7  N   UNL     1       7.451   5.526  15.876  0.00  0.00    +0.000 N 
ATOM      8  C   UNL     1       7.004   5.034  14.683  0.00  0.00    +0.000 A 
ATOM      9  O   UNL     1       7.304   5.513  13.596  0.00  0.00    +0.000 OA
ATOM     10  C   UNL     1       6.163   3.817  14.774  0.00  0.00    +0.000 A 
ATOM     11  C   UNL     1       5.570   3.481  15.928  0.00  0.00    +0.000 A 
ATOM     12  C   UNL     1       5.774   4.298  17.135  0.00  0.00    +0.000 A 
ATOM     13  H   UNL     1       8.091   6.311  15.861  0.00  0.00    +0.000 HD
BRANCH   5  14
ATOM     14  O   UNL     1       8.430   6.605  18.206  0.00  0.00    +0.000 OA
ATOM     15  H   UNL     1       8.318   7.238  17.477  0.00  0.00    +0.000 HD
ENDBRANCH   5  14
ENDBRANCH   1   2
BRANCH   1  16
ATOM     16  N   UNL     1       2.677   4.305  17.381  0.00  0.00    +0.000 NA
ATOM     17  H   UNL     1       3.259   4.708  16.643  0.00  0.00    +0.000 HD
BRANCH  16  18
ATOM     18  C   UNL     1       1.953   5.402  18.048  0.00  0.00    +0.000 C 
BRANCH  18  19
ATOM     19  C   UNL     1       2.807   6.676  18.110  0.00  0.00    +0.000 C 
BRANCH  19  23
ATOM     20  C   UNL     1       0.598   9.915  19.973  0.00  0.00    +0.000 A 
ATOM     21  C   UNL     1       1.071   8.841  20.726  0.00  0.00    +0.000 A 
ATOM     22  C   UNL     1       1.789   7.804  20.125  0.00  0.00    +0.000 A 
ATOM     23  C   UNL     1       2.049   7.812  18.752  0.00  0.00    +0.000 A 
ATOM     24  C   UNL     1       1.559   8.881  17.991  0.00  0.00    +0.000 A 
ATOM     25  C   UNL     1       0.837   9.922  18.596  0.00  0.00    +0.000 A 
BRANCH  20  28
ATOM     26  C   UNL     1      -0.346  11.210  21.886  0.00  0.00    +0.000 C 
ATOM     27  O   UNL     1       0.207  10.603  22.799  0.00  0.00    +0.000 OA
ATOM     28  N   UNL     1      -0.143  10.983  20.531  0.00  0.00    +0.000 N 
ATOM     29  H   UNL     1      -0.476  11.690  19.888  0.00  0.00    +0.000 HD
BRANCH  26  31
ATOM     30  C   UNL     1      -2.362  11.894  23.228  0.00  0.00    +0.000 C 
ATOM     31  C   UNL     1      -1.344  12.336  22.177  0.00  0.00    +0.000 C 
ATOM     32  C   UNL     1      -0.606  13.587  22.671  0.00  0.00    +0.000 C 
ENDBRANCH  26  31
ENDBRANCH  20  28
ENDBRANCH  19  23
ENDBRANCH  18  19
ENDBRANCH  16  18
ENDBRANCH   1  16
BRANCH   1  33
ATOM     33  C   UNL     1       3.684   2.065  17.973  0.00  0.00    +0.000 C 
BRANCH  33  34
ATOM     34  O   UNL     1       4.422   1.341  18.962  0.00  0.00    +0.000 OA
ATOM     35  H   UNL     1       4.550   0.451  18.581  0.00  0.00    +0.000 HD
ENDBRANCH  33  34
ENDBRANCH   1  33
TORSDOF 10
ENDMDL
MODEL 6
REMARK VINA RESULT:      -7.6      1.213      1.444
REMARK  Name = 
REMARK  12 active torsions:
REMARK  status: ('A' for Active; 'I' for Inactive)
REMARK    1  A    between atoms: C_1  and  C_2
REMARK    2  A    between atoms: C_2  and  C_3
REMARK    3  A    between atoms: C_2  and  C_4
REMARK    4  A    between atoms: N_6  and  C_7
REMARK    5  A    between atoms: C_10  and  C_11
REMARK    6  A    between atoms: C_11  and  C_12
REMARK    7  A    between atoms: C_12  and  N_13
REMARK    8  A    between atoms: N_13  and  CA_14
REMARK    9  A    between atoms: CA_14  and  C_15
REMARK   10  A    between atoms: CA_14  and  C_17
REMARK   11  A    between atoms: C_15  and  O_16
REMARK   12  A    between atoms: C_20  and  O_21
REMARK                            x       y       z     vdW  Elec       q    Type
REMARK                         _______ _______ _______ _____ _____    ______ ____
ROOT
ATOM      1  CA  UNL     1       0.495   9.297  20.706  0.00  0.00    +0.000 C 
ENDROOT
BRANCH   1   2
ATOM      2  C   UNL     1      -0.003  10.701  20.329  0.00  0.00    +0.000 A 
ATOM      3  C   UNL     1       0.198  11.772  21.230  0.00  0.00    +0.000 A 
ATOM      4  C   UNL     1      -0.405  13.021  21.043  0.00  0.00    +0.000 A 
ATOM      5  C   UNL     1      -1.285  13.195  19.987  0.00  0.00    +0.000 A 
ATOM      6  C   UNL     1      -1.507  12.152  19.091  0.00  0.00    +0.000 A 
ATOM      7  N   UNL     1      -2.539  12.274  18.143  0.00  0.00    +0.000 N 
ATOM      8  C   UNL     1      -2.892  11.261  17.296  0.00  0.00    +0.000 A 
ATOM      9  O   UNL     1      -3.940  11.239  16.665  0.00  0.00    +0.000 OA
ATOM     10  C   UNL     1      -1.879  10.192  17.131  0.00  0.00    +0.000 A 
ATOM     11  C   UNL     1      -0.900  10.033  18.032  0.00  0.00    +0.000 A 
ATOM     12  C   UNL     1      -0.793  10.942  19.185  0.00  0.00    +0.000 A 
ATOM     13  H   UNL     1      -3.166  13.065  18.230  0.00  0.00    +0.000 HD
BRANCH   5  14
ATOM     14  O   UNL     1      -1.944  14.380  19.805  0.00  0.00    +0.000 OA
ATOM     15  H   UNL     1      -2.222  14.436  18.875  0.00  0.00    +0.000 HD
ENDBRANCH   5  14
ENDBRANCH   1   2
BRANCH   1  16
ATOM     16  N   UNL     1       1.760   8.974  19.999  0.00  0.00    +0.000 NA
ATOM     17  H   UNL     1       1.931   9.726  19.328  0.00  0.00    +0.000 HD
BRANCH  16  18
ATOM     18  C   UNL     1       1.671   7.704  19.255  0.00  0.00    +0.000 C 
BRANCH  18  19
ATOM     19  C   UNL     1       2.806   6.747  19.649  0.00  0.00    +0.000 C 
BRANCH  19  23
ATOM     20  C   UNL     1       4.814   5.214  16.120  0.00  0.00    +0.000 A 
ATOM     21  C   UNL     1       4.696   6.585  16.341  0.00  0.00    +0.000 A 
ATOM     22  C   UNL     1       4.056   7.077  17.483  0.00  0.00    +0.000 A 
ATOM     23  C   UNL     1       3.513   6.206  18.431  0.00  0.00    +0.000 A 
ATOM     24  C   UNL     1       3.614   4.828  18.201  0.00  0.00    +0.000 A 
ATOM     25  C   UNL     1       4.257   4.337  17.054  0.00  0.00    +0.000 A 
BRANCH  20  28
ATOM     26  C   UNL     1       6.811   4.595  14.758  0.00  0.00    +0.000 C 
ATOM     27  O   UNL     1       7.677   4.861  15.586  0.00  0.00    +0.000 OA
ATOM     28  N   UNL     1       5.441   4.667  14.977  0.00  0.00    +0.000 N 
ATOM     29  H   UNL     1       4.840   4.210  14.303  0.00  0.00    +0.000 HD
BRANCH  26  31
ATOM     30  C   UNL     1       5.965   3.526  12.642  0.00  0.00    +0.000 C 
ATOM     31  C   UNL     1       7.184   4.121  13.349  0.00  0.00    +0.000 C 
ATOM     32  C   UNL     1       7.738   5.290  12.523  0.00  0.00    +0.000 C 
ENDBRANCH  26  31
ENDBRANCH  20  28
ENDBRANCH  19  23
ENDBRANCH  18  19
ENDBRANCH  16  18
ENDBRANCH   1  16
BRANCH   1  33
ATOM     33  C   UNL     1       0.650   9.191  22.257  0.00  0.00    +0.000 C 
BRANCH  33  34
ATOM     34  O   UNL     1       2.022   9.191  22.663  0.00  0.00    +0.000 OA
ATOM     35  H   UNL     1       2.009   9.463  23.600  0.00  0.00    +0.000 HD
ENDBRANCH  33  34
ENDBRANCH   1  33
TORSDOF 10
ENDMDL
MODEL 7
REMARK VINA RESULT:      -7.6      2.481      4.433
REMARK  Name = 
REMARK  12 active torsions:
REMARK  status: ('A' for Active; 'I' for Inactive)
REMARK    1  A    between atoms: C_1  and  C_2
REMARK    2  A    between atoms: C_2  and  C_3
REMARK    3  A    between atoms: C_2  and  C_4
REMARK    4  A    between atoms: N_6  and  C_7
REMARK    5  A    between atoms: C_10  and  C_11
REMARK    6  A    between atoms: C_11  and  C_12
REMARK    7  A    between atoms: C_12  and  N_13
REMARK    8  A    between atoms: N_13  and  CA_14
REMARK    9  A    between atoms: CA_14  and  C_15
REMARK   10  A    between atoms: CA_14  and  C_17
REMARK   11  A    between atoms: C_15  and  O_16
REMARK   12  A    between atoms: C_20  and  O_21
REMARK                            x       y       z     vdW  Elec       q    Type
REMARK                         _______ _______ _______ _____ _____    ______ ____
ROOT
ATOM      1  CA  UNL     1      -1.417  11.371  19.122  0.00  0.00    +0.000 C 
ENDROOT
BRANCH   1   2
ATOM      2  C   UNL     1      -2.350  10.904  17.994  0.00  0.00    +0.000 A 
ATOM      3  C   UNL     1      -1.822  10.131  16.933  0.00  0.00    +0.000 A 
ATOM      4  C   UNL     1      -2.564   9.849  15.781  0.00  0.00    +0.000 A 
ATOM      5  C   UNL     1      -3.825  10.403  15.636  0.00  0.00    +0.000 A 
ATOM      6  C   UNL     1      -4.365  11.176  16.662  0.00  0.00    +0.000 A 
ATOM      7  N   UNL     1      -5.556  11.886  16.429  0.00  0.00    +0.000 N 
ATOM      8  C   UNL     1      -6.097  12.746  17.343  0.00  0.00    +0.000 A 
ATOM      9  O   UNL     1      -6.961  13.570  17.070  0.00  0.00    +0.000 OA
ATOM     10  C   UNL     1      -5.613  12.581  18.734  0.00  0.00    +0.000 A 
ATOM     11  C   UNL     1      -4.467  11.932  18.986  0.00  0.00    +0.000 A 
ATOM     12  C   UNL     1      -3.688  11.343  17.886  0.00  0.00    +0.000 A 
ATOM     13  H   UNL     1      -5.910  11.910  15.481  0.00  0.00    +0.000 HD
BRANCH   5  14
ATOM     14  O   UNL     1      -4.559  10.204  14.499  0.00  0.00    +0.000 OA
ATOM     15  H   UNL     1      -5.390  10.702  14.579  0.00  0.00    +0.000 HD
ENDBRANCH   5  14
ENDBRANCH   1   2
BRANCH   1  16
ATOM     16  N   UNL     1      -0.167  10.570  19.143  0.00  0.00    +0.000 NA
ATOM     17  H   UNL     1      -0.440   9.584  19.127  0.00  0.00    +0.000 HD
BRANCH  16  18
ATOM     18  C   UNL     1       0.625  10.809  20.362  0.00  0.00    +0.000 C 
BRANCH  18  19
ATOM     19  C   UNL     1       0.684   9.554  21.244  0.00  0.00    +0.000 C 
BRANCH  19  23
ATOM     20  C   UNL     1       2.496   6.242  19.100  0.00  0.00    +0.000 A 
ATOM     21  C   UNL     1       2.470   7.524  18.554  0.00  0.00    +0.000 A 
ATOM     22  C   UNL     1       1.894   8.591  19.250  0.00  0.00    +0.000 A 
ATOM     23  C   UNL     1       1.323   8.400  20.511  0.00  0.00    +0.000 A 
ATOM     24  C   UNL     1       1.331   7.108  21.053  0.00  0.00    +0.000 A 
ATOM     25  C   UNL     1       1.910   6.039  20.353  0.00  0.00    +0.000 A 
BRANCH  20  28
ATOM     26  C   UNL     1       2.353   4.189  17.690  0.00  0.00    +0.000 C 
ATOM     27  O   UNL     1       1.167   4.269  17.384  0.00  0.00    +0.000 OA
ATOM     28  N   UNL     1       3.056   5.129  18.433  0.00  0.00    +0.000 N 
ATOM     29  H   UNL     1       4.066   5.065  18.424  0.00  0.00    +0.000 HD
BRANCH  26  31
ATOM     30  C   UNL     1       4.604   3.460  16.831  0.00  0.00    +0.000 C 
ATOM     31  C   UNL     1       3.206   2.997  17.244  0.00  0.00    +0.000 C 
ATOM     32  C   UNL     1       3.320   1.969  18.378  0.00  0.00    +0.000 C 
ENDBRANCH  26  31
ENDBRANCH  20  28
ENDBRANCH  19  23
ENDBRANCH  18  19
ENDBRANCH  16  18
ENDBRANCH   1  16
BRANCH   1  33
ATOM     33  C   UNL     1      -1.129  12.899  18.969  0.00  0.00    +0.000 C 
BRANCH  33  34
ATOM     34  O   UNL     1      -0.757  13.246  17.632  0.00  0.00    +0.000 OA
ATOM     35  H   UNL     1       0.204  13.082  17.585  0.00  0.00    +0.000 HD
ENDBRANCH  33  34
ENDBRANCH   1  33
TORSDOF 10
ENDMDL
MODEL 8
REMARK VINA RESULT:      -7.6      2.468     10.010
REMARK  Name = 
REMARK  12 active torsions:
REMARK  status: ('A' for Active; 'I' for Inactive)
REMARK    1  A    between atoms: C_1  and  C_2
REMARK    2  A    between atoms: C_2  and  C_3
REMARK    3  A    between atoms: C_2  and  C_4
REMARK    4  A    between atoms: N_6  and  C_7
REMARK    5  A    between atoms: C_10  and  C_11
REMARK    6  A    between atoms: C_11  and  C_12
REMARK    7  A    between atoms: C_12  and  N_13
REMARK    8  A    between atoms: N_13  and  CA_14
REMARK    9  A    between atoms: CA_14  and  C_15
REMARK   10  A    between atoms: CA_14  and  C_17
REMARK   11  A    between atoms: C_15  and  O_16
REMARK   12  A    between atoms: C_20  and  O_21
REMARK                            x       y       z     vdW  Elec       q    Type
REMARK                         _______ _______ _______ _____ _____    ______ ____
ROOT
ATOM      1  CA  UNL     1       2.568   6.931  19.361  0.00  0.00    +0.000 C 
ENDROOT
BRANCH   1   2
ATOM      2  C   UNL     1       2.885   5.581  18.700  0.00  0.00    +0.000 A 
ATOM      3  C   UNL     1       2.011   4.487  18.906  0.00  0.00    +0.000 A 
ATOM      4  C   UNL     1       2.344   3.188  18.507  0.00  0.00    +0.000 A 
ATOM      5  C   UNL     1       3.595   2.948  17.962  0.00  0.00    +0.000 A 
ATOM      6  C   UNL     1       4.477   4.006  17.758  0.00  0.00    +0.000 A 
ATOM      7  N   UNL     1       5.804   3.727  17.386  0.00  0.00    +0.000 N 
ATOM      8  C   UNL     1       6.760   4.696  17.266  0.00  0.00    +0.000 A 
ATOM      9  O   UNL     1       7.961   4.463  17.216  0.00  0.00    +0.000 OA
ATOM     10  C   UNL     1       6.246   6.080  17.133  0.00  0.00    +0.000 A 
ATOM     11  C   UNL     1       4.994   6.383  17.504  0.00  0.00    +0.000 A 
ATOM     12  C   UNL     1       4.096   5.336  18.018  0.00  0.00    +0.000 A 
ATOM     13  H   UNL     1       6.103   2.760  17.405  0.00  0.00    +0.000 HD
BRANCH   5  14
ATOM     14  O   UNL     1       3.983   1.682  17.617  0.00  0.00    +0.000 OA
ATOM     15  H   UNL     1       4.851   1.736  17.180  0.00  0.00    +0.000 HD
ENDBRANCH   5  14
ENDBRANCH   1   2
BRANCH   1  16
ATOM     16  N   UNL     1       1.886   7.843  18.407  0.00  0.00    +0.000 NA
ATOM     17  H   UNL     1       2.603   8.213  17.779  0.00  0.00    +0.000 HD
BRANCH  16  18
ATOM     18  C   UNL     1       1.239   8.977  19.090  0.00  0.00    +0.000 C 
BRANCH  18  19
ATOM     19  C   UNL     1       1.029  10.158  18.131  0.00  0.00    +0.000 C 
BRANCH  19  23
ATOM     20  C   UNL     1      -3.110  11.462  18.074  0.00  0.00    +0.000 A 
ATOM     21  C   UNL     1      -2.677  10.409  17.271  0.00  0.00    +0.000 A 
ATOM     22  C   UNL     1      -1.345   9.985  17.297  0.00  0.00    +0.000 A 
ATOM     23  C   UNL     1      -0.410  10.610  18.126  0.00  0.00    +0.000 A 
ATOM     24  C   UNL     1      -0.840  11.681  18.921  0.00  0.00    +0.000 A 
ATOM     25  C   UNL     1      -2.177  12.105  18.892  0.00  0.00    +0.000 A 
BRANCH  20  28
ATOM     26  C   UNL     1      -5.580  11.160  18.261  0.00  0.00    +0.000 C 
ATOM     27  O   UNL     1      -5.587   9.979  18.595  0.00  0.00    +0.000 OA
ATOM     28  N   UNL     1      -4.443  11.936  18.076  0.00  0.00    +0.000 N 
ATOM     29  H   UNL     1      -4.569  12.938  18.027  0.00  0.00    +0.000 HD
BRANCH  26  31
ATOM     30  C   UNL     1      -7.443  12.460  19.344  0.00  0.00    +0.000 C 
ATOM     31  C   UNL     1      -6.888  11.923  18.025  0.00  0.00    +0.000 C 
ATOM     32  C   UNL     1      -6.658  13.087  17.052  0.00  0.00    +0.000 C 
ENDBRANCH  26  31
ENDBRANCH  20  28
ENDBRANCH  19  23
ENDBRANCH  18  19
ENDBRANCH  16  18
ENDBRANCH   1  16
BRANCH   1  33
ATOM     33  C   UNL     1       1.723   6.700  20.655  0.00  0.00    +0.000 C 
BRANCH  33  34
ATOM     34  O   UNL     1       1.835   7.792  21.573  0.00  0.00    +0.000 OA
ATOM     35  H   UNL     1       2.442   8.423  21.144  0.00  0.00    +0.000 HD
ENDBRANCH  33  34
ENDBRANCH   1  33
TORSDOF 10
ENDMDL
MODEL 9
REMARK VINA RESULT:      -7.5      2.918     10.306
REMARK  Name = 
REMARK  12 active torsions:
REMARK  status: ('A' for Active; 'I' for Inactive)
REMARK    1  A    between atoms: C_1  and  C_2
REMARK    2  A    between atoms: C_2  and  C_3
REMARK    3  A    between atoms: C_2  and  C_4
REMARK    4  A    between atoms: N_6  and  C_7
REMARK    5  A    between atoms: C_10  and  C_11
REMARK    6  A    between atoms: C_11  and  C_12
REMARK    7  A    between atoms: C_12  and  N_13
REMARK    8  A    between atoms: N_13  and  CA_14
REMARK    9  A    between atoms: CA_14  and  C_15
REMARK   10  A    between atoms: CA_14  and  C_17
REMARK   11  A    between atoms: C_15  and  O_16
REMARK   12  A    between atoms: C_20  and  O_21
REMARK                            x       y       z     vdW  Elec       q    Type
REMARK                         _______ _______ _______ _____ _____    ______ ____
ROOT
ATOM      1  CA  UNL     1       2.687   7.380  18.661  0.00  0.00    +0.000 C 
ENDROOT
BRANCH   1   2
ATOM      2  C   UNL     1       3.032   5.986  18.113  0.00  0.00    +0.000 A 
ATOM      3  C   UNL     1       2.040   4.976  18.117  0.00  0.00    +0.000 A 
ATOM      4  C   UNL     1       2.342   3.641  17.826  0.00  0.00    +0.000 A 
ATOM      5  C   UNL     1       3.661   3.279  17.602  0.00  0.00    +0.000 A 
ATOM      6  C   UNL     1       4.657   4.253  17.603  0.00  0.00    +0.000 A 
ATOM      7  N   UNL     1       6.004   3.852  17.566  0.00  0.00    +0.000 N 
ATOM      8  C   UNL     1       7.043   4.734  17.668  0.00  0.00    +0.000 A 
ATOM      9  O   UNL     1       8.195   4.400  17.912  0.00  0.00    +0.000 OA
ATOM     10  C   UNL     1       6.701   6.150  17.397  0.00  0.00    +0.000 A 
ATOM     11  C   UNL     1       5.428   6.568  17.451  0.00  0.00    +0.000 A 
ATOM     12  C   UNL     1       4.344   5.618  17.747  0.00  0.00    +0.000 A 
ATOM     13  H   UNL     1       6.203   2.864  17.668  0.00  0.00    +0.000 HD
BRANCH   5  14
ATOM     14  O   UNL     1       4.007   1.975  17.377  0.00  0.00    +0.000 OA
ATOM     15  H   UNL     1       4.618   1.946  16.622  0.00  0.00    +0.000 HD
ENDBRANCH   5  14
ENDBRANCH   1   2
BRANCH   1  16
ATOM     16  N   UNL     1       1.924   8.170  17.662  0.00  0.00    +0.000 NA
ATOM     17  H   UNL     1       2.532   8.295  16.849  0.00  0.00    +0.000 HD
BRANCH  16  18
ATOM     18  C   UNL     1       1.555   9.501  18.173  0.00  0.00    +0.000 C 
BRANCH  18  19
ATOM     19  C   UNL     1       0.076   9.813  17.898  0.00  0.00    +0.000 C 
BRANCH  19  23
ATOM     20  C   UNL     1      -1.639  12.235  21.066  0.00  0.00    +0.000 A 
ATOM     21  C   UNL     1      -0.725  11.221  21.350  0.00  0.00    +0.000 A 
ATOM     22  C   UNL     1      -0.167  10.448  20.328  0.00  0.00    +0.000 A 
ATOM     23  C   UNL     1      -0.515  10.667  18.992  0.00  0.00    +0.000 A 
ATOM     24  C   UNL     1      -1.448  11.672  18.706  0.00  0.00    +0.000 A 
ATOM     25  C   UNL     1      -2.007  12.447  19.734  0.00  0.00    +0.000 A 
BRANCH  20  28
ATOM     26  C   UNL     1      -1.675  14.163  22.650  0.00  0.00    +0.000 C 
ATOM     27  O   UNL     1      -0.639  14.710  22.283  0.00  0.00    +0.000 OA
ATOM     28  N   UNL     1      -2.240  13.037  22.064  0.00  0.00    +0.000 N 
ATOM     29  H   UNL     1      -3.198  12.820  22.305  0.00  0.00    +0.000 HD
BRANCH  26  31
ATOM     30  C   UNL     1      -3.482  13.666  24.329  0.00  0.00    +0.000 C 
ATOM     31  C   UNL     1      -2.484  14.711  23.830  0.00  0.00    +0.000 C 
ATOM     32  C   UNL     1      -1.547  15.115  24.976  0.00  0.00    +0.000 C 
ENDBRANCH  26  31
ENDBRANCH  20  28
ENDBRANCH  19  23
ENDBRANCH  18  19
ENDBRANCH  16  18
ENDBRANCH   1  16
BRANCH   1  33
ATOM     33  C   UNL     1       1.913   7.239  20.010  0.00  0.00    +0.000 C 
BRANCH  33  34
ATOM     34  O   UNL     1       2.431   6.181  20.822  0.00  0.00    +0.000 OA
ATOM     35  H   UNL     1       1.684   5.566  20.945  0.00  0.00    +0.000 HD
ENDBRANCH  33  34
ENDBRANCH   1  33
TORSDOF 10
ENDMDL
