MODEL 1
REMARK VINA RESULT:      -9.0      0.000      0.000
REMARK  Name = 
REMARK  12 active torsions:
REMARK  status: ('A' for Active; 'I' for Inactive)
REMARK    1  A    between atoms: C_1  and  C_2
REMARK    2  A    between atoms: C_2  and  C_3
REMARK    3  A    between atoms: C_2  and  O_4
REMARK    4  A    between atoms: C_2  and  C_29
REMARK    5  A    between atoms: O_4  and  C_5
REMARK    6  A    between atoms: C_8  and  C_9
REMARK    7  A    between atoms: C_9  and  N_10
REMARK    8  A    between atoms: N_10  and  C_11
REMARK    9  A    between atoms: N_10  and  C_21
REMARK   10  A    between atoms: C_11  and  C_12
REMARK   11  A    between atoms: C_21  and  C_22
REMARK   12  A    between atoms: C_29  and  O_31
REMARK                            x       y       z     vdW  Elec       q    Type
REMARK                         _______ _______ _______ _____ _____    ______ ____
ROOT
ATOM      1  N   UNL     1       4.397   5.361  18.234  0.00  0.00    +0.000 NA
ENDROOT
BRANCH   1   2
ATOM      2  C   UNL     1       3.673   5.832  19.421  0.00  0.00    +0.000 C 
BRANCH   2   6
ATOM      3  C   UNL     1       1.433   9.466  18.849  0.00  0.00    +0.000 A 
ATOM      4  C   UNL     1       1.317   8.769  20.056  0.00  0.00    +0.000 A 
ATOM      5  C   UNL     1       1.960   7.538  20.232  0.00  0.00    +0.000 A 
ATOM      6  C   UNL     1       2.721   6.991  19.191  0.00  0.00    +0.000 A 
ATOM      7  C   UNL     1       2.708   7.623  17.944  0.00  0.00    +0.000 A 
ATOM      8  C   UNL     1       2.043   8.840  17.769  0.00  0.00    +0.000 A 
BRANCH   3   9
ATOM      9  O   UNL     1       0.929  10.732  18.855  0.00  0.00    +0.000 OA
BRANCH   9  11
ATOM     10  C   UNL     1      -1.366  10.073  17.964  0.00  0.00    +0.000 C 
ATOM     11  C   UNL     1      -0.497  10.996  18.833  0.00  0.00    +0.000 C 
ATOM     12  C   UNL     1      -1.007  11.115  20.270  0.00  0.00    +0.000 C 
BRANCH  11  13
ATOM     13  C   UNL     1      -0.630  12.393  18.183  0.00  0.00    +0.000 C 
ATOM     14  O   UNL     1      -0.045  13.397  18.567  0.00  0.00    +0.000 OA
BRANCH  13  15
ATOM     15  O   UNL     1      -1.497  12.426  17.140  0.00  0.00    +0.000 OA
ATOM     16  H   UNL     1      -0.988  12.454  16.301  0.00  0.00    +0.000 HD
ENDBRANCH  13  15
ENDBRANCH  11  13
ENDBRANCH   9  11
ENDBRANCH   3   9
ENDBRANCH   2   6
ENDBRANCH   1   2
BRANCH   1  17
ATOM     17  C   UNL     1       5.804   5.834  18.189  0.00  0.00    +0.000 C 
BRANCH  17  18
ATOM     18  C   UNL     1       6.443   5.910  16.787  0.00  0.00    +0.000 C 
ATOM     19  O   UNL     1       7.433   6.607  16.585  0.00  0.00    +0.000 OA
ATOM     20  N   UNL     1       5.819   5.089  15.859  0.00  0.00    +0.000 N 
ATOM     21  C   UNL     1       6.308   4.826  14.567  0.00  0.00    +0.000 A 
ATOM     22  C   UNL     1       5.609   3.916  13.776  0.00  0.00    +0.000 A 
ATOM     23  C   UNL     1       6.104   3.589  12.511  0.00  0.00    +0.000 A 
ATOM     24  C   UNL     1       7.276   4.183  12.064  0.00  0.00    +0.000 A 
ATOM     25  C   UNL     1       7.900   5.086  12.906  0.00  0.00    +0.000 A 
ATOM     26  N   UNL     1       7.440   5.407  14.132  0.00  0.00    +0.000 NA
ATOM     27  H   UNL     1       4.980   4.602  16.134  0.00  0.00    +0.000 HD
ENDBRANCH  17  18
ENDBRANCH   1  17
BRANCH   1  28
ATOM     28  C   UNL     1       4.325   3.879  18.164  0.00  0.00    +0.000 C 
BRANCH  28  29
ATOM     29  C   UNL     1       2.967   3.344  18.501  0.00  0.00    +0.000 A 
ATOM     30  C   UNL     1       1.714   3.483  17.939  0.00  0.00    +0.000 A 
ATOM     31  C   UNL     1       0.822   2.758  18.766  0.00  0.00    +0.000 A 
ATOM     32  C   UNL     1       1.585   2.213  19.771  0.00  0.00    +0.000 A 
ATOM     33  O   UNL     1       2.884   2.565  19.621  0.00  0.00    +0.000 OA
ENDBRANCH  28  29
ENDBRANCH   1  28
TORSDOF 10
ENDMDL
MODEL 2
REMARK VINA RESULT:      -8.2      1.427      1.908
REMARK  Name = 
REMARK  12 active torsions:
REMARK  status: ('A' for Active; 'I' for Inactive)
REMARK    1  A    between atoms: C_1  and  C_2
REMARK    2  A    between atoms: C_2  and  C_3
REMARK    3  A    between atoms: C_2  and  O_4
REMARK    4  A    between atoms: C_2  and  C_29
REMARK    5  A    between atoms: O_4  and  C_5
REMARK    6  A    between atoms: C_8  and  C_9
REMARK    7  A    between atoms: C_9  and  N_10
REMARK    8  A    between atoms: N_10  and  C_11
REMARK    9  A    between atoms: N_10  and  C_21
REMARK   10  A    between atoms: C_11  and  C_12
REMARK   11  A    between atoms: C_21  and  C_22
REMARK   12  A    between atoms: C_29  and  O_31
REMARK                            x       y       z     vdW  Elec       q    Type
REMARK                         _______ _______ _______ _____ _____    ______ ____
ROOT
ATOM      1  N   UNL     1       3.771   5.756  18.073  0.00  0.00    +0.000 NA
ENDROOT
BRANCH   1   2
ATOM      2  C   UNL     1       3.440   6.493  19.299  0.00  0.00    +0.000 C 
BRANCH   2   6
ATOM      3  C   UNL     1       0.778   9.858  18.937  0.00  0.00    +0.000 A 
ATOM      4  C   UNL     1       0.862   9.175  20.155  0.00  0.00    +0.000 A 
ATOM      5  C   UNL     1       1.648   8.023  20.271  0.00  0.00    +0.000 A 
ATOM      6  C   UNL     1       2.351   7.539  19.161  0.00  0.00    +0.000 A 
ATOM      7  C   UNL     1       2.142   8.144  17.917  0.00  0.00    +0.000 A 
ATOM      8  C   UNL     1       1.336   9.281  17.803  0.00  0.00    +0.000 A 
BRANCH   3   9
ATOM      9  O   UNL     1       0.144  11.063  18.986  0.00  0.00    +0.000 OA
BRANCH   9  11
ATOM     10  C   UNL     1       2.305  12.339  18.535  0.00  0.00    +0.000 C 
ATOM     11  C   UNL     1       0.871  12.315  19.090  0.00  0.00    +0.000 C 
ATOM     12  C   UNL     1       0.001  13.446  18.540  0.00  0.00    +0.000 C 
BRANCH  11  13
ATOM     13  C   UNL     1       1.028  12.555  20.609  0.00  0.00    +0.000 C 
ATOM     14  O   UNL     1       0.124  12.453  21.427  0.00  0.00    +0.000 OA
BRANCH  13  15
ATOM     15  O   UNL     1       2.281  12.932  20.971  0.00  0.00    +0.000 OA
ATOM     16  H   UNL     1       2.220  13.684  21.599  0.00  0.00    +0.000 HD
ENDBRANCH  13  15
ENDBRANCH  11  13
ENDBRANCH   9  11
ENDBRANCH   3   9
ENDBRANCH   2   6
ENDBRANCH   1   2
BRANCH   1  17
ATOM     17  C   UNL     1       5.194   5.336  18.016  0.00  0.00    +0.000 C 
BRANCH  17  18
ATOM     18  C   UNL     1       5.918   5.592  16.678  0.00  0.00    +0.000 C 
ATOM     19  O   UNL     1       6.793   6.450  16.591  0.00  0.00    +0.000 OA
ATOM     20  N   UNL     1       5.511   4.736  15.665  0.00  0.00    +0.000 N 
ATOM     21  C   UNL     1       6.135   4.628  14.409  0.00  0.00    +0.000 A 
ATOM     22  C   UNL     1       5.658   3.665  13.523  0.00  0.00    +0.000 A 
ATOM     23  C   UNL     1       6.295   3.493  12.292  0.00  0.00    +0.000 A 
ATOM     24  C   UNL     1       7.384   4.292  11.972  0.00  0.00    +0.000 A 
ATOM     25  C   UNL     1       7.785   5.234  12.903  0.00  0.00    +0.000 A 
ATOM     26  N   UNL     1       7.186   5.407  14.098  0.00  0.00    +0.000 NA
ATOM     27  H   UNL     1       4.745   4.106  15.846  0.00  0.00    +0.000 HD
ENDBRANCH  17  18
ENDBRANCH   1  17
BRANCH   1  28
ATOM     28  C   UNL     1       2.861   4.590  17.932  0.00  0.00    +0.000 C 
BRANCH  28  29
ATOM     29  C   UNL     1       2.569   3.918  19.238  0.00  0.00    +0.000 A 
ATOM     30  C   UNL     1       3.279   3.064  20.058  0.00  0.00    +0.000 A 
ATOM     31  C   UNL     1       2.420   2.740  21.137  0.00  0.00    +0.000 A 
ATOM     32  C   UNL     1       1.248   3.422  20.915  0.00  0.00    +0.000 A 
ATOM     33  O   UNL     1       1.327   4.135  19.768  0.00  0.00    +0.000 OA
ENDBRANCH  28  29
ENDBRANCH   1  28
TORSDOF 10
ENDMDL
MODEL 3
REMARK VINA RESULT:      -8.0      1.310      1.599
REMARK  Name = 
REMARK  12 active torsions:
REMARK  status: ('A' for Active; 'I' for Inactive)
REMARK    1  A    between atoms: C_1  and  C_2
REMARK    2  A    between atoms: C_2  and  C_3
REMARK    3  A    between atoms: C_2  and  O_4
REMARK    4  A    between atoms: C_2  and  C_29
REMARK    5  A    between atoms: O_4  and  C_5
REMARK    6  A    between atoms: C_8  and  C_9
REMARK    7  A    between atoms: C_9  and  N_10
REMARK    8  A    between atoms: N_10  and  C_11
REMARK    9  A    between atoms: N_10  and  C_21
REMARK   10  A    between atoms: C_11  and  C_12
REMARK   11  A    between atoms: C_21  and  C_22
REMARK   12  A    between atoms: C_29  and  O_31
REMARK                            x       y       z     vdW  Elec       q    Type
REMARK                         _______ _______ _______ _____ _____    ______ ____
ROOT
ATOM      1  N   UNL     1       3.412   5.531  18.069  0.00  0.00    +0.000 NA
ENDROOT
BRANCH   1   2
ATOM      2  C   UNL     1       3.231   6.270  19.324  0.00  0.00    +0.000 C 
BRANCH   2   6
ATOM      3  C   UNL     1       1.112  10.017  19.202  0.00  0.00    +0.000 A 
ATOM      4  C   UNL     1       1.015   9.209  20.339  0.00  0.00    +0.000 A 
ATOM      5  C   UNL     1       1.617   7.946  20.367  0.00  0.00    +0.000 A 
ATOM      6  C   UNL     1       2.316   7.478  19.247  0.00  0.00    +0.000 A 
ATOM      7  C   UNL     1       2.280   8.230  18.069  0.00  0.00    +0.000 A 
ATOM      8  C   UNL     1       1.656   9.481  18.041  0.00  0.00    +0.000 A 
BRANCH   3   9
ATOM      9  O   UNL     1       0.658  11.293  19.352  0.00  0.00    +0.000 OA
BRANCH   9  11
ATOM     10  C   UNL     1      -1.689  10.671  18.573  0.00  0.00    +0.000 C 
ATOM     11  C   UNL     1      -0.757  11.615  19.351  0.00  0.00    +0.000 C 
ATOM     12  C   UNL     1      -1.218  11.853  20.789  0.00  0.00    +0.000 C 
BRANCH  11  13
ATOM     13  C   UNL     1      -0.854  12.968  18.609  0.00  0.00    +0.000 C 
ATOM     14  O   UNL     1      -0.802  14.064  19.152  0.00  0.00    +0.000 OA
BRANCH  13  15
ATOM     15  O   UNL     1      -1.038  12.841  17.270  0.00  0.00    +0.000 OA
ATOM     16  H   UNL     1      -0.442  12.138  16.931  0.00  0.00    +0.000 HD
ENDBRANCH  13  15
ENDBRANCH  11  13
ENDBRANCH   9  11
ENDBRANCH   3   9
ENDBRANCH   2   6
ENDBRANCH   1   2
BRANCH   1  17
ATOM     17  C   UNL     1       4.698   4.790  18.013  0.00  0.00    +0.000 C 
BRANCH  17  18
ATOM     18  C   UNL     1       5.051   4.159  16.650  0.00  0.00    +0.000 C 
ATOM     19  O   UNL     1       4.425   3.193  16.224  0.00  0.00    +0.000 OA
ATOM     20  N   UNL     1       6.071   4.827  15.989  0.00  0.00    +0.000 N 
ATOM     21  C   UNL     1       6.459   4.580  14.659  0.00  0.00    +0.000 A 
ATOM     22  C   UNL     1       7.450   5.389  14.107  0.00  0.00    +0.000 A 
ATOM     23  C   UNL     1       7.814   5.207  12.770  0.00  0.00    +0.000 A 
ATOM     24  C   UNL     1       7.189   4.219  12.023  0.00  0.00    +0.000 A 
ATOM     25  C   UNL     1       6.225   3.451  12.652  0.00  0.00    +0.000 A 
ATOM     26  N   UNL     1       5.857   3.618  13.938  0.00  0.00    +0.000 NA
ATOM     27  H   UNL     1       6.543   5.579  16.466  0.00  0.00    +0.000 HD
ENDBRANCH  17  18
ENDBRANCH   1  17
BRANCH   1  28
ATOM     28  C   UNL     1       2.257   4.620  17.858  0.00  0.00    +0.000 C 
BRANCH  28  29
ATOM     29  C   UNL     1       1.883   3.857  19.091  0.00  0.00    +0.000 A 
ATOM     30  C   UNL     1       1.019   4.093  20.141  0.00  0.00    +0.000 A 
ATOM     31  C   UNL     1       1.158   2.998  21.028  0.00  0.00    +0.000 A 
ATOM     32  C   UNL     1       2.088   2.159  20.461  0.00  0.00    +0.000 A 
ATOM     33  O   UNL     1       2.534   2.671  19.291  0.00  0.00    +0.000 OA
ENDBRANCH  28  29
ENDBRANCH   1  28
TORSDOF 10
ENDMDL
MODEL 4
REMARK VINA RESULT:      -8.0      3.361      5.484
REMARK  Name = 
REMARK  12 active torsions:
REMARK  status: ('A' for Active; 'I' for Inactive)
REMARK    1  A    between atoms: C_1  and  C_2
REMARK    2  A    between atoms: C_2  and  C_3
REMARK    3  A    between atoms: C_2  and  O_4
REMARK    4  A    between atoms: C_2  and  C_29
REMARK    5  A    between atoms: O_4  and  C_5
REMARK    6  A    between atoms: C_8  and  C_9
REMARK    7  A    between atoms: C_9  and  N_10
REMARK    8  A    between atoms: N_10  and  C_11
REMARK    9  A    between atoms: N_10  and  C_21
REMARK   10  A    between atoms: C_11  and  C_12
REMARK   11  A    between atoms: C_21  and  C_22
REMARK   12  A    between atoms: C_29  and  O_31
REMARK                            x       y       z     vdW  Elec       q    Type
REMARK                         _______ _______ _______ _____ _____    ______ ____
ROOT
ATOM      1  N   UNL     1       6.649   5.611  17.587  0.00  0.00    +0.000 NA
ENDROOT
BRANCH   1   2
ATOM      2  C   UNL     1       5.518   4.960  18.260  0.00  0.00    +0.000 C 
BRANCH   2   6
ATOM      3  C   UNL     1       2.350   7.774  19.026  0.00  0.00    +0.000 A 
ATOM      4  C   UNL     1       2.446   6.616  19.805  0.00  0.00    +0.000 A 
ATOM      5  C   UNL     1       3.408   5.642  19.517  0.00  0.00    +0.000 A 
ATOM      6  C   UNL     1       4.279   5.817  18.434  0.00  0.00    +0.000 A 
ATOM      7  C   UNL     1       4.077   6.904  17.577  0.00  0.00    +0.000 A 
ATOM      8  C   UNL     1       3.098   7.861  17.858  0.00  0.00    +0.000 A 
BRANCH   3   9
ATOM      9  O   UNL     1       1.513   8.735  19.508  0.00  0.00    +0.000 OA
BRANCH   9  11
ATOM     10  C   UNL     1       2.111  10.817  18.164  0.00  0.00    +0.000 C 
ATOM     11  C   UNL     1       1.048   9.838  18.688  0.00  0.00    +0.000 C 
ATOM     12  C   UNL     1       0.144   9.292  17.582  0.00  0.00    +0.000 C 
BRANCH  11  13
ATOM     13  C   UNL     1       0.159  10.683  19.630  0.00  0.00    +0.000 C 
ATOM     14  O   UNL     1      -1.008  10.974  19.408  0.00  0.00    +0.000 OA
BRANCH  13  15
ATOM     15  O   UNL     1       0.806  11.117  20.741  0.00  0.00    +0.000 OA
ATOM     16  H   UNL     1       1.693  11.452  20.484  0.00  0.00    +0.000 HD
ENDBRANCH  13  15
ENDBRANCH  11  13
ENDBRANCH   9  11
ENDBRANCH   3   9
ENDBRANCH   2   6
ENDBRANCH   1   2
BRANCH   1  17
ATOM     17  C   UNL     1       7.514   6.378  18.518  0.00  0.00    +0.000 C 
BRANCH  17  18
ATOM     18  C   UNL     1       7.901   7.800  18.059  0.00  0.00    +0.000 C 
ATOM     19  O   UNL     1       7.501   8.244  16.987  0.00  0.00    +0.000 OA
ATOM     20  N   UNL     1       8.668   8.484  18.991  0.00  0.00    +0.000 N 
ATOM     21  C   UNL     1       8.996   9.849  18.911  0.00  0.00    +0.000 A 
ATOM     22  C   UNL     1       9.709  10.414  19.966  0.00  0.00    +0.000 A 
ATOM     23  C   UNL     1       9.997  11.780  19.942  0.00  0.00    +0.000 A 
ATOM     24  C   UNL     1       9.578  12.546  18.864  0.00  0.00    +0.000 A 
ATOM     25  C   UNL     1       8.887  11.904  17.851  0.00  0.00    +0.000 A 
ATOM     26  N   UNL     1       8.594  10.588  17.862  0.00  0.00    +0.000 NA
ATOM     27  H   UNL     1       8.976   7.992  19.815  0.00  0.00    +0.000 HD
ENDBRANCH  17  18
ENDBRANCH   1  17
BRANCH   1  28
ATOM     28  C   UNL     1       7.435   4.594  16.839  0.00  0.00    +0.000 C 
BRANCH  28  29
ATOM     29  C   UNL     1       7.013   4.470  15.407  0.00  0.00    +0.000 A 
ATOM     30  C   UNL     1       6.049   3.731  14.751  0.00  0.00    +0.000 A 
ATOM     31  C   UNL     1       6.190   4.024  13.373  0.00  0.00    +0.000 A 
ATOM     32  C   UNL     1       7.220   4.929  13.274  0.00  0.00    +0.000 A 
ATOM     33  O   UNL     1       7.726   5.202  14.500  0.00  0.00    +0.000 OA
ENDBRANCH  28  29
ENDBRANCH   1  28
TORSDOF 10
ENDMDL
MODEL 5
REMARK VINA RESULT:      -7.8      1.047      1.462
REMARK  Name = 
REMARK  12 active torsions:
REMARK  status: ('A' for Active; 'I' for Inactive)
REMARK    1  A    between atoms: C_1  and  C_2
REMARK    2  A    between atoms: C_2  and  C_3
REMARK    3  A    between atoms: C_2  and  O_4
REMARK    4  A    between atoms: C_2  and  C_29
REMARK    5  A    between atoms: O_4  and  C_5
REMARK    6  A    between atoms: C_8  and  C_9
REMARK    7  A    between atoms: C_9  and  N_10
REMARK    8  A    between atoms: N_10  and  C_11
REMARK    9  A    between atoms: N_10  and  C_21
REMARK   10  A    between atoms: C_11  and  C_12
REMARK   11  A    between atoms: C_21  and  C_22
REMARK   12  A    between atoms: C_29  and  O_31
REMARK                            x       y       z     vdW  Elec       q    Type
REMARK                         _______ _______ _______ _____ _____    ______ ____
ROOT
ATOM      1  N   UNL     1       3.899   5.688  17.914  0.00  0.00    +0.000 NA
ENDROOT
BRANCH   1   2
ATOM      2  C   UNL     1       3.225   5.971  19.188  0.00  0.00    +0.000 C 
BRANCH   2   6
ATOM      3  C   UNL     1       1.226   9.783  19.328  0.00  0.00    +0.000 A 
ATOM      4  C   UNL     1       1.141   8.920  20.425  0.00  0.00    +0.000 A 
ATOM      5  C   UNL     1       1.702   7.640  20.369  0.00  0.00    +0.000 A 
ATOM      6  C   UNL     1       2.348   7.209  19.203  0.00  0.00    +0.000 A 
ATOM      7  C   UNL     1       2.297   8.021  18.067  0.00  0.00    +0.000 A 
ATOM      8  C   UNL     1       1.714   9.291  18.123  0.00  0.00    +0.000 A 
BRANCH   3   9
ATOM      9  O   UNL     1       0.819  11.063  19.557  0.00  0.00    +0.000 OA
BRANCH   9  11
ATOM     10  C   UNL     1      -0.470  12.746  18.142  0.00  0.00    +0.000 C 
ATOM     11  C   UNL     1      -0.472  11.554  19.113  0.00  0.00    +0.000 C 
ATOM     12  C   UNL     1      -1.310  10.378  18.610  0.00  0.00    +0.000 C 
BRANCH  11  13
ATOM     13  C   UNL     1      -1.154  12.088  20.394  0.00  0.00    +0.000 C 
ATOM     14  O   UNL     1      -2.364  12.172  20.554  0.00  0.00    +0.000 OA
BRANCH  13  15
ATOM     15  O   UNL     1      -0.277  12.497  21.345  0.00  0.00    +0.000 OA
ATOM     16  H   UNL     1       0.637  12.412  20.995  0.00  0.00    +0.000 HD
ENDBRANCH  13  15
ENDBRANCH  11  13
ENDBRANCH   9  11
ENDBRANCH   3   9
ENDBRANCH   2   6
ENDBRANCH   1   2
BRANCH   1  17
ATOM     17  C   UNL     1       5.376   5.812  18.001  0.00  0.00    +0.000 C 
BRANCH  17  18
ATOM     18  C   UNL     1       6.122   5.916  16.654  0.00  0.00    +0.000 C 
ATOM     19  O   UNL     1       7.076   6.677  16.522  0.00  0.00    +0.000 OA
ATOM     20  N   UNL     1       5.634   5.044  15.692  0.00  0.00    +0.000 N 
ATOM     21  C   UNL     1       6.245   4.800  14.449  0.00  0.00    +0.000 A 
ATOM     22  C   UNL     1       5.677   3.836  13.619  0.00  0.00    +0.000 A 
ATOM     23  C   UNL     1       6.295   3.530  12.404  0.00  0.00    +0.000 A 
ATOM     24  C   UNL     1       7.456   4.198  12.044  0.00  0.00    +0.000 A 
ATOM     25  C   UNL     1       7.947   5.151  12.919  0.00  0.00    +0.000 A 
ATOM     26  N   UNL     1       7.367   5.453  14.098  0.00  0.00    +0.000 NA
ATOM     27  H   UNL     1       4.810   4.503  15.906  0.00  0.00    +0.000 HD
ENDBRANCH  17  18
ENDBRANCH   1  17
BRANCH   1  28
ATOM     28  C   UNL     1       3.500   4.341  17.429  0.00  0.00    +0.000 C 
BRANCH  28  29
ATOM     29  C   UNL     1       2.632   3.605  18.403  0.00  0.00    +0.000 A 
ATOM     30  C   UNL     1       2.864   2.968  19.606  0.00  0.00    +0.000 A 
ATOM     31  C   UNL     1       1.625   2.416  20.012  0.00  0.00    +0.000 A 
ATOM     32  C   UNL     1       0.714   2.758  19.041  0.00  0.00    +0.000 A 
ATOM     33  O   UNL     1       1.315   3.475  18.062  0.00  0.00    +0.000 OA
ENDBRANCH  28  29
ENDBRANCH   1  28
TORSDOF 10
ENDMDL
MODEL 6
REMARK VINA RESULT:      -7.8      1.506      2.028
REMARK  Name = 
REMARK  12 active torsions:
REMARK  status: ('A' for Active; 'I' for Inactive)
REMARK    1  A    between atoms: C_1  and  C_2
REMARK    2  A    between atoms: C_2  and  C_3
REMARK    3  A    between atoms: C_2  and  O_4
REMARK    4  A    between atoms: C_2  and  C_29
REMARK    5  A    between atoms: O_4  and  C_5
REMARK    6  A    between atoms: C_8  and  C_9
REMARK    7  A    between atoms: C_9  and  N_10
REMARK    8  A    between atoms: N_10  and  C_11
REMARK    9  A    between atoms: N_10  and  C_21
REMARK   10  A    between atoms: C_11  and  C_12
REMARK   11  A    between atoms: C_21  and  C_22
REMARK   12  A    between atoms: C_29  and  O_31
REMARK                            x       y       z     vdW  Elec       q    Type
REMARK                         _______ _______ _______ _____ _____    ______ ____
ROOT
ATOM      1  N   UNL     1       3.493   6.101  17.976  0.00  0.00    +0.000 NA
ENDROOT
BRANCH   1   2
ATOM      2  C   UNL     1       3.237   6.804  19.239  0.00  0.00    +0.000 C 
BRANCH   2   6
ATOM      3  C   UNL     1       0.552  10.170  19.161  0.00  0.00    +0.000 A 
ATOM      4  C   UNL     1       0.668   9.409  20.329  0.00  0.00    +0.000 A 
ATOM      5  C   UNL     1       1.462   8.257  20.351  0.00  0.00    +0.000 A 
ATOM      6  C   UNL     1       2.140   7.851  19.195  0.00  0.00    +0.000 A 
ATOM      7  C   UNL     1       1.899   8.534  17.999  0.00  0.00    +0.000 A 
ATOM      8  C   UNL     1       1.085   9.671  17.979  0.00  0.00    +0.000 A 
BRANCH   3   9
ATOM      9  O   UNL     1      -0.085  11.366  19.304  0.00  0.00    +0.000 OA
BRANCH   9  11
ATOM     10  C   UNL     1       2.104  12.629  18.972  0.00  0.00    +0.000 C 
ATOM     11  C   UNL     1       0.638  12.616  19.436  0.00  0.00    +0.000 C 
ATOM     12  C   UNL     1      -0.191  13.743  18.819  0.00  0.00    +0.000 C 
BRANCH  11  13
ATOM     13  C   UNL     1       0.702  12.877  20.959  0.00  0.00    +0.000 C 
ATOM     14  O   UNL     1      -0.234  12.719  21.731  0.00  0.00    +0.000 OA
BRANCH  13  15
ATOM     15  O   UNL     1       1.907  13.338  21.380  0.00  0.00    +0.000 OA
ATOM     16  H   UNL     1       1.881  14.319  21.411  0.00  0.00    +0.000 HD
ENDBRANCH  13  15
ENDBRANCH  11  13
ENDBRANCH   9  11
ENDBRANCH   3   9
ENDBRANCH   2   6
ENDBRANCH   1   2
BRANCH   1  17
ATOM     17  C   UNL     1       4.833   5.464  17.929  0.00  0.00    +0.000 C 
BRANCH  17  18
ATOM     18  C   UNL     1       5.628   5.665  16.622  0.00  0.00    +0.000 C 
ATOM     19  O   UNL     1       6.514   6.513  16.550  0.00  0.00    +0.000 OA
ATOM     20  N   UNL     1       5.267   4.774  15.622  0.00  0.00    +0.000 N 
ATOM     21  C   UNL     1       5.955   4.615  14.406  0.00  0.00    +0.000 A 
ATOM     22  C   UNL     1       5.517   3.621  13.532  0.00  0.00    +0.000 A 
ATOM     23  C   UNL     1       6.217   3.400  12.344  0.00  0.00    +0.000 A 
ATOM     24  C   UNL     1       7.327   4.178  12.052  0.00  0.00    +0.000 A 
ATOM     25  C   UNL     1       7.687   5.152  12.967  0.00  0.00    +0.000 A 
ATOM     26  N   UNL     1       7.028   5.374  14.122  0.00  0.00    +0.000 NA
ATOM     27  H   UNL     1       4.488   4.156  15.786  0.00  0.00    +0.000 HD
ENDBRANCH  17  18
ENDBRANCH   1  17
BRANCH   1  28
ATOM     28  C   UNL     1       2.416   5.106  17.733  0.00  0.00    +0.000 C 
BRANCH  28  29
ATOM     29  C   UNL     1       2.743   3.750  18.278  0.00  0.00    +0.000 A 
ATOM     30  C   UNL     1       2.681   3.178  19.533  0.00  0.00    +0.000 A 
ATOM     31  C   UNL     1       3.183   1.861  19.398  0.00  0.00    +0.000 A 
ATOM     32  C   UNL     1       3.507   1.706  18.071  0.00  0.00    +0.000 A 
ATOM     33  O   UNL     1       3.247   2.844  17.387  0.00  0.00    +0.000 OA
ENDBRANCH  28  29
ENDBRANCH   1  28
TORSDOF 10
ENDMDL
MODEL 7
REMARK VINA RESULT:      -7.7      1.581      2.083
REMARK  Name = 
REMARK  12 active torsions:
REMARK  status: ('A' for Active; 'I' for Inactive)
REMARK    1  A    between atoms: C_1  and  C_2
REMARK    2  A    between atoms: C_2  and  C_3
REMARK    3  A    between atoms: C_2  and  O_4
REMARK    4  A    between atoms: C_2  and  C_29
REMARK    5  A    between atoms: O_4  and  C_5
REMARK    6  A    between atoms: C_8  and  C_9
REMARK    7  A    between atoms: C_9  and  N_10
REMARK    8  A    between atoms: N_10  and  C_11
REMARK    9  A    between atoms: N_10  and  C_21
REMARK   10  A    between atoms: C_11  and  C_12
REMARK   11  A    between atoms: C_21  and  C_22
REMARK   12  A    between atoms: C_29  and  O_31
REMARK                            x       y       z     vdW  Elec       q    Type
REMARK                         _______ _______ _______ _____ _____    ______ ____
ROOT
ATOM      1  N   UNL     1       3.368   5.696  18.062  0.00  0.00    +0.000 NA
ENDROOT
BRANCH   1   2
ATOM      2  C   UNL     1       3.193   6.531  19.257  0.00  0.00    +0.000 C 
BRANCH   2   6
ATOM      3  C   UNL     1       0.851  10.126  18.895  0.00  0.00    +0.000 A 
ATOM      4  C   UNL     1       0.868   9.436  20.111  0.00  0.00    +0.000 A 
ATOM      5  C   UNL     1       1.545   8.217  20.227  0.00  0.00    +0.000 A 
ATOM      6  C   UNL     1       2.205   7.673  19.117  0.00  0.00    +0.000 A 
ATOM      7  C   UNL     1       2.056   8.297  17.875  0.00  0.00    +0.000 A 
ATOM      8  C   UNL     1       1.357   9.503  17.761  0.00  0.00    +0.000 A 
BRANCH   3   9
ATOM      9  O   UNL     1       0.330  11.385  18.944  0.00  0.00    +0.000 OA
BRANCH   9  11
ATOM     10  C   UNL     1       1.483  12.827  20.702  0.00  0.00    +0.000 C 
ATOM     11  C   UNL     1       1.148  12.549  19.228  0.00  0.00    +0.000 C 
ATOM     12  C   UNL     1       2.387  12.521  18.331  0.00  0.00    +0.000 C 
BRANCH  11  13
ATOM     13  C   UNL     1       0.288  13.754  18.782  0.00  0.00    +0.000 C 
ATOM     14  O   UNL     1       0.688  14.909  18.720  0.00  0.00    +0.000 OA
BRANCH  13  15
ATOM     15  O   UNL     1      -0.995  13.425  18.487  0.00  0.00    +0.000 OA
ATOM     16  H   UNL     1      -0.996  12.729  17.794  0.00  0.00    +0.000 HD
ENDBRANCH  13  15
ENDBRANCH  11  13
ENDBRANCH   9  11
ENDBRANCH   3   9
ENDBRANCH   2   6
ENDBRANCH   1   2
BRANCH   1  17
ATOM     17  C   UNL     1       4.734   5.123  17.952  0.00  0.00    +0.000 C 
BRANCH  17  18
ATOM     18  C   UNL     1       5.058   4.408  16.623  0.00  0.00    +0.000 C 
ATOM     19  O   UNL     1       4.400   3.439  16.255  0.00  0.00    +0.000 OA
ATOM     20  N   UNL     1       6.092   5.007  15.920  0.00  0.00    +0.000 N 
ATOM     21  C   UNL     1       6.462   4.676  14.604  0.00  0.00    +0.000 A 
ATOM     22  C   UNL     1       7.472   5.423  14.001  0.00  0.00    +0.000 A 
ATOM     23  C   UNL     1       7.820   5.157  12.674  0.00  0.00    +0.000 A 
ATOM     24  C   UNL     1       7.160   4.149  11.986  0.00  0.00    +0.000 A 
ATOM     25  C   UNL     1       6.178   3.446  12.663  0.00  0.00    +0.000 A 
ATOM     26  N   UNL     1       5.825   3.695  13.940  0.00  0.00    +0.000 NA
ATOM     27  H   UNL     1       6.590   5.769  16.352  0.00  0.00    +0.000 HD
ENDBRANCH  17  18
ENDBRANCH   1  17
BRANCH   1  28
ATOM     28  C   UNL     1       2.335   4.628  18.045  0.00  0.00    +0.000 C 
BRANCH  28  29
ATOM     29  C   UNL     1       2.133   3.992  19.385  0.00  0.00    +0.000 A 
ATOM     30  C   UNL     1       1.145   4.070  20.346  0.00  0.00    +0.000 A 
ATOM     31  C   UNL     1       1.569   3.254  21.423  0.00  0.00    +0.000 A 
ATOM     32  C   UNL     1       2.779   2.721  21.049  0.00  0.00    +0.000 A 
ATOM     33  O   UNL     1       3.130   3.164  19.819  0.00  0.00    +0.000 OA
ENDBRANCH  28  29
ENDBRANCH   1  28
TORSDOF 10
ENDMDL
MODEL 8
REMARK VINA RESULT:      -7.7      0.954      1.363
REMARK  Name = 
REMARK  12 active torsions:
REMARK  status: ('A' for Active; 'I' for Inactive)
REMARK    1  A    between atoms: C_1  and  C_2
REMARK    2  A    between atoms: C_2  and  C_3
REMARK    3  A    between atoms: C_2  and  O_4
REMARK    4  A    between atoms: C_2  and  C_29
REMARK    5  A    between atoms: O_4  and  C_5
REMARK    6  A    between atoms: C_8  and  C_9
REMARK    7  A    between atoms: C_9  and  N_10
REMARK    8  A    between atoms: N_10  and  C_11
REMARK    9  A    between atoms: N_10  and  C_21
REMARK   10  A    between atoms: C_11  and  C_12
REMARK   11  A    between atoms: C_21  and  C_22
REMARK   12  A    between atoms: C_29  and  O_31
REMARK                            x       y       z     vdW  Elec       q    Type
REMARK                         _______ _______ _______ _____ _____    ______ ____
ROOT
ATOM      1  N   UNL     1       4.204   5.049  18.241  0.00  0.00    +0.000 NA
ENDROOT
BRANCH   1   2
ATOM      2  C   UNL     1       2.877   5.592  17.923  0.00  0.00    +0.000 C 
BRANCH   2   6
ATOM      3  C   UNL     1       1.606   9.533  19.105  0.00  0.00    +0.000 A 
ATOM      4  C   UNL     1       2.209   9.350  17.856  0.00  0.00    +0.000 A 
ATOM      5  C   UNL     1       2.715   8.098  17.487  0.00  0.00    +0.000 A 
ATOM      6  C   UNL     1       2.628   7.018  18.375  0.00  0.00    +0.000 A 
ATOM      7  C   UNL     1       2.159   7.249  19.672  0.00  0.00    +0.000 A 
ATOM      8  C   UNL     1       1.677   8.508  20.041  0.00  0.00    +0.000 A 
BRANCH   3   9
ATOM      9  O   UNL     1       0.982  10.731  19.283  0.00  0.00    +0.000 OA
BRANCH   9  11
ATOM     10  C   UNL     1      -1.311  10.093  18.369  0.00  0.00    +0.000 C 
ATOM     11  C   UNL     1      -0.459  10.841  19.408  0.00  0.00    +0.000 C 
ATOM     12  C   UNL     1      -0.862  10.523  20.848  0.00  0.00    +0.000 C 
BRANCH  11  13
ATOM     13  C   UNL     1      -0.763  12.338  19.167  0.00  0.00    +0.000 C 
ATOM     14  O   UNL     1      -0.729  12.887  18.075  0.00  0.00    +0.000 OA
BRANCH  13  15
ATOM     15  O   UNL     1      -1.050  13.022  20.304  0.00  0.00    +0.000 OA
ATOM     16  H   UNL     1      -1.451  13.886  20.064  0.00  0.00    +0.000 HD
ENDBRANCH  13  15
ENDBRANCH  11  13
ENDBRANCH   9  11
ENDBRANCH   3   9
ENDBRANCH   2   6
ENDBRANCH   1   2
BRANCH   1  17
ATOM     17  C   UNL     1       5.287   6.058  18.120  0.00  0.00    +0.000 C 
BRANCH  17  18
ATOM     18  C   UNL     1       6.037   6.081  16.772  0.00  0.00    +0.000 C 
ATOM     19  O   UNL     1       7.027   6.790  16.616  0.00  0.00    +0.000 OA
ATOM     20  N   UNL     1       5.508   5.202  15.839  0.00  0.00    +0.000 N 
ATOM     21  C   UNL     1       6.107   4.887  14.606  0.00  0.00    +0.000 A 
ATOM     22  C   UNL     1       5.494   3.924  13.807  0.00  0.00    +0.000 A 
ATOM     23  C   UNL     1       6.098   3.547  12.605  0.00  0.00    +0.000 A 
ATOM     24  C   UNL     1       7.290   4.146  12.225  0.00  0.00    +0.000 A 
ATOM     25  C   UNL     1       7.825   5.103  13.069  0.00  0.00    +0.000 A 
ATOM     26  N   UNL     1       7.260   5.473  14.236  0.00  0.00    +0.000 NA
ATOM     27  H   UNL     1       4.659   4.709  16.069  0.00  0.00    +0.000 HD
ENDBRANCH  17  18
ENDBRANCH   1  17
BRANCH   1  28
ATOM     28  C   UNL     1       4.182   4.444  19.598  0.00  0.00    +0.000 C 
BRANCH  28  29
ATOM     29  C   UNL     1       2.869   3.804  19.930  0.00  0.00    +0.000 A 
ATOM     30  C   UNL     1       1.840   3.277  19.176  0.00  0.00    +0.000 A 
ATOM     31  C   UNL     1       0.843   2.865  20.093  0.00  0.00    +0.000 A 
ATOM     32  C   UNL     1       1.328   3.156  21.346  0.00  0.00    +0.000 A 
ATOM     33  O   UNL     1       2.552   3.726  21.257  0.00  0.00    +0.000 OA
ENDBRANCH  28  29
ENDBRANCH   1  28
TORSDOF 10
ENDMDL
MODEL 9
REMARK VINA RESULT:      -7.7      4.310     10.415
REMARK  Name = 
REMARK  12 active torsions:
REMARK  status: ('A' for Active; 'I' for Inactive)
REMARK    1  A    between atoms: C_1  and  C_2
REMARK    2  A    between atoms: C_2  and  C_3
REMARK    3  A    between atoms: C_2  and  O_4
REMARK    4  A    between atoms: C_2  and  C_29
REMARK    5  A    between atoms: O_4  and  C_5
REMARK    6  A    between atoms: C_8  and  C_9
REMARK    7  A    between atoms: C_9  and  N_10
REMARK    8  A    between atoms: N_10  and  C_11
REMARK    9  A    between atoms: N_10  and  C_21
REMARK   10  A    between atoms: C_11  and  C_12
REMARK   11  A    between atoms: C_21  and  C_22
REMARK   12  A    between atoms: C_29  and  O_31
REMARK                            x       y       z     vdW  Elec       q    Type
REMARK                         _______ _______ _______ _____ _____    ______ ____
ROOT
ATOM      1  N   UNL     1       0.472  11.004  19.461  0.00  0.00    +0.000 NA
ENDROOT
BRANCH   1   2
ATOM      2  C   UNL     1       1.501  10.327  18.663  0.00  0.00    +0.000 C 
BRANCH   2   6
ATOM      3  C   UNL     1       2.486   6.254  19.657  0.00  0.00    +0.000 A 
ATOM      4  C   UNL     1       2.588   6.682  18.330  0.00  0.00    +0.000 A 
ATOM      5  C   UNL     1       2.185   7.972  17.966  0.00  0.00    +0.000 A 
ATOM      6  C   UNL     1       1.666   8.843  18.932  0.00  0.00    +0.000 A 
ATOM      7  C   UNL     1       1.433   8.354  20.221  0.00  0.00    +0.000 A 
ATOM      8  C   UNL     1       1.816   7.057  20.572  0.00  0.00    +0.000 A 
BRANCH   3   9
ATOM      9  O   UNL     1       3.081   5.059  19.933  0.00  0.00    +0.000 OA
BRANCH   9  11
ATOM     10  C   UNL     1       0.867   3.808  20.106  0.00  0.00    +0.000 C 
ATOM     11  C   UNL     1       2.375   3.798  19.809  0.00  0.00    +0.000 C 
ATOM     12  C   UNL     1       2.712   3.167  18.457  0.00  0.00    +0.000 C 
BRANCH  11  13
ATOM     13  C   UNL     1       2.989   2.892  20.902  0.00  0.00    +0.000 C 
ATOM     14  O   UNL     1       2.567   2.802  22.047  0.00  0.00    +0.000 OA
BRANCH  13  15
ATOM     15  O   UNL     1       4.086   2.209  20.488  0.00  0.00    +0.000 OA
ATOM     16  H   UNL     1       4.623   1.961  21.271  0.00  0.00    +0.000 HD
ENDBRANCH  13  15
ENDBRANCH  11  13
ENDBRANCH   9  11
ENDBRANCH   3   9
ENDBRANCH   2   6
ENDBRANCH   1   2
BRANCH   1  17
ATOM     17  C   UNL     1       1.038  11.797  20.583  0.00  0.00    +0.000 C 
BRANCH  17  18
ATOM     18  C   UNL     1       0.063  12.773  21.274  0.00  0.00    +0.000 C 
ATOM     19  O   UNL     1       0.085  13.973  21.013  0.00  0.00    +0.000 OA
ATOM     20  N   UNL     1      -0.823  12.141  22.133  0.00  0.00    +0.000 N 
ATOM     21  C   UNL     1      -1.928  12.763  22.742  0.00  0.00    +0.000 A 
ATOM     22  C   UNL     1      -2.775  11.975  23.520  0.00  0.00    +0.000 A 
ATOM     23  C   UNL     1      -3.913  12.552  24.088  0.00  0.00    +0.000 A 
ATOM     24  C   UNL     1      -4.174  13.898  23.876  0.00  0.00    +0.000 A 
ATOM     25  C   UNL     1      -3.275  14.611  23.103  0.00  0.00    +0.000 A 
ATOM     26  N   UNL     1      -2.176  14.069  22.541  0.00  0.00    +0.000 NA
ATOM     27  H   UNL     1      -0.708  11.155  22.304  0.00  0.00    +0.000 HD
ENDBRANCH  17  18
ENDBRANCH   1  17
BRANCH   1  28
ATOM     28  C   UNL     1      -0.367  11.851  18.575  0.00  0.00    +0.000 C 
BRANCH  28  29
ATOM     29  C   UNL     1      -1.630  11.171  18.144  0.00  0.00    +0.000 A 
ATOM     30  C   UNL     1      -1.908  10.058  17.376  0.00  0.00    +0.000 A 
ATOM     31  C   UNL     1      -3.319   9.966  17.299  0.00  0.00    +0.000 A 
ATOM     32  C   UNL     1      -3.814  11.019  18.031  0.00  0.00    +0.000 A 
ATOM     33  O   UNL     1      -2.800  11.754  18.544  0.00  0.00    +0.000 OA
ENDBRANCH  28  29
ENDBRANCH   1  28
TORSDOF 10
ENDMDL
