MODEL 1
REMARK VINA RESULT:      -7.4      0.000      0.000
REMARK  Name = 
REMARK  14 active torsions:
REMARK  status: ('A' for Active; 'I' for Inactive)
REMARK    1  A    between atoms: O_1  and  C_2
REMARK    2  A    between atoms: C_2  and  C_3
REMARK    3  A    between atoms: C_3  and  C_4
REMARK    4  A    between atoms: C_4  and  C_5
REMARK    5  A    between atoms: C_5  and  C_6
REMARK    6  A    between atoms: C_6  and  C_7
REMARK    7  A    between atoms: C_7  and  N_8
REMARK    8  A    between atoms: C_13  and  N_14
REMARK    9  A    between atoms: N_14  and  C_15
REMARK   10  A    between atoms: C_15  and  C_16
REMARK   11  A    between atoms: C_16  and  C_17
REMARK   12  A    between atoms: C_17  and  C_18
REMARK   13  A    between atoms: C_18  and  N_19
REMARK   14  A    between atoms: N_19  and  C_20
REMARK                            x       y       z     vdW  Elec       q    Type
REMARK                         _______ _______ _______ _____ _____    ______ ____
ROOT
ATOM      1  N   UNL     1       5.006   3.489  18.007  0.00  0.00    +0.000 N 
ATOM      2  H   UNL     1       5.362   3.528  18.956  0.00  0.00    +0.000 HD
ENDROOT
BRANCH   1   8
ATOM      3  N   UNL     1       7.665   7.384  17.275  0.00  0.00    +0.000 N 
ATOM      4  C   UNL     1       7.076   6.201  16.847  0.00  0.00    +0.000 A 
ATOM      5  N   UNL     1       7.322   5.882  15.571  0.00  0.00    +0.000 NA
ATOM      6  C   UNL     1       6.773   4.746  15.119  0.00  0.00    +0.000 A 
ATOM      7  C   UNL     1       6.018   3.912  15.903  0.00  0.00    +0.000 A 
ATOM      8  C   UNL     1       5.800   4.323  17.199  0.00  0.00    +0.000 A 
ATOM      9  N   UNL     1       6.329   5.459  17.679  0.00  0.00    +0.000 NA
ATOM     10  H   UNL     1       8.370   7.599  16.577  0.00  0.00    +0.000 HD
BRANCH   3  11
ATOM     11  C   UNL     1       8.133   7.375  18.647  0.00  0.00    +0.000 C 
BRANCH  11  12
ATOM     12  C   UNL     1       8.857   8.694  18.935  0.00  0.00    +0.000 C 
BRANCH  12  13
ATOM     13  C   UNL     1       8.456   9.767  17.924  0.00  0.00    +0.000 C 
BRANCH  13  14
ATOM     14  C   UNL     1       9.419  10.956  17.942  0.00  0.00    +0.000 C 
BRANCH  14  15
ATOM     15  C   UNL     1       8.715  12.287  18.219  0.00  0.00    +0.000 C 
BRANCH  15  16
ATOM     16  C   UNL     1       9.630  13.497  18.086  0.00  0.00    +0.000 C 
BRANCH  16  17
ATOM     17  O   UNL     1       8.895  14.575  17.525  0.00  0.00    +0.000 OA
ATOM     18  H   UNL     1       8.868  15.277  18.197  0.00  0.00    +0.000 HD
ENDBRANCH  16  17
ENDBRANCH  15  16
ENDBRANCH  14  15
ENDBRANCH  13  14
ENDBRANCH  12  13
ENDBRANCH  11  12
ENDBRANCH   3  11
ENDBRANCH   1   8
BRANCH   1  19
ATOM     19  C   UNL     1       3.566   3.662  17.888  0.00  0.00    +0.000 C 
BRANCH  19  20
ATOM     20  C   UNL     1       2.899   3.423  19.250  0.00  0.00    +0.000 C 
BRANCH  20  21
ATOM     21  C   UNL     1       1.538   4.116  19.417  0.00  0.00    +0.000 C 
BRANCH  21  22
ATOM     22  C   UNL     1       1.545   5.102  20.582  0.00  0.00    +0.000 C 
BRANCH  22  23
ATOM     23  N   UNL     1       2.612   6.092  20.414  0.00  0.00    +0.000 N 
ATOM     24  H   UNL     1       3.432   5.671  19.993  0.00  0.00    +0.000 HD
BRANCH  23  25
ATOM     25  C   UNL     1       2.254   7.292  19.742  0.00  0.00    +0.000 A 
ATOM     26  C   UNL     1       2.476   7.434  18.365  0.00  0.00    +0.000 A 
ATOM     27  C   UNL     1       2.060   8.580  17.724  0.00  0.00    +0.000 A 
ATOM     28  N   UNL     1       1.414   9.587  18.334  0.00  0.00    +0.000 NA
ATOM     29  C   UNL     1       1.142   9.454  19.640  0.00  0.00    +0.000 A 
ATOM     30  C   UNL     1       0.437  10.485  20.240  0.00  0.00    +0.000 A 
ATOM     31  C   UNL     1       0.112  10.449  21.590  0.00  0.00    +0.000 A 
ATOM     32 CL   UNL     1      -0.772  11.748  22.293  0.00  0.00    +0.000 Cl
ATOM     33  C   UNL     1       0.492   9.371  22.373  0.00  0.00    +0.000 A 
ATOM     34  C   UNL     1       1.192   8.314  21.788  0.00  0.00    +0.000 A 
ATOM     35  C   UNL     1       1.534   8.328  20.410  0.00  0.00    +0.000 A 
ENDBRANCH  23  25
ENDBRANCH  22  23
ENDBRANCH  21  22
ENDBRANCH  20  21
ENDBRANCH  19  20
ENDBRANCH   1  19
TORSDOF 14
ENDMDL
MODEL 2
REMARK VINA RESULT:      -7.3      3.515      5.481
REMARK  Name = 
REMARK  14 active torsions:
REMARK  status: ('A' for Active; 'I' for Inactive)
REMARK    1  A    between atoms: O_1  and  C_2
REMARK    2  A    between atoms: C_2  and  C_3
REMARK    3  A    between atoms: C_3  and  C_4
REMARK    4  A    between atoms: C_4  and  C_5
REMARK    5  A    between atoms: C_5  and  C_6
REMARK    6  A    between atoms: C_6  and  C_7
REMARK    7  A    between atoms: C_7  and  N_8
REMARK    8  A    between atoms: C_13  and  N_14
REMARK    9  A    between atoms: N_14  and  C_15
REMARK   10  A    between atoms: C_15  and  C_16
REMARK   11  A    between atoms: C_16  and  C_17
REMARK   12  A    between atoms: C_17  and  C_18
REMARK   13  A    between atoms: C_18  and  N_19
REMARK   14  A    between atoms: N_19  and  C_20
REMARK                            x       y       z     vdW  Elec       q    Type
REMARK                         _______ _______ _______ _____ _____    ______ ____
ROOT
ATOM      1  N   UNL     1       4.802   3.882  19.228  0.00  0.00    +0.000 N 
ATOM      2  H   UNL     1       4.801   4.102  20.218  0.00  0.00    +0.000 HD
ENDROOT
BRANCH   1   8
ATOM      3  N   UNL     1       7.282   5.282  15.399  0.00  0.00    +0.000 N 
ATOM      4  C   UNL     1       7.004   5.310  16.760  0.00  0.00    +0.000 A 
ATOM      5  N   UNL     1       7.777   6.137  17.473  0.00  0.00    +0.000 NA
ATOM      6  C   UNL     1       7.539   6.196  18.791  0.00  0.00    +0.000 A 
ATOM      7  C   UNL     1       6.546   5.481  19.407  0.00  0.00    +0.000 A 
ATOM      8  C   UNL     1       5.808   4.640  18.604  0.00  0.00    +0.000 A 
ATOM      9  N   UNL     1       6.027   4.554  17.282  0.00  0.00    +0.000 NA
ATOM     10  H   UNL     1       7.847   6.107  15.226  0.00  0.00    +0.000 HD
BRANCH   3  11
ATOM     11  C   UNL     1       6.125   5.129  14.540  0.00  0.00    +0.000 C 
BRANCH  11  12
ATOM     12  C   UNL     1       6.247   3.810  13.770  0.00  0.00    +0.000 C 
BRANCH  12  13
ATOM     13  C   UNL     1       5.908   4.009  12.294  0.00  0.00    +0.000 C 
BRANCH  13  14
ATOM     14  C   UNL     1       4.711   3.157  11.863  0.00  0.00    +0.000 C 
BRANCH  14  15
ATOM     15  C   UNL     1       5.091   2.062  10.864  0.00  0.00    +0.000 C 
BRANCH  15  16
ATOM     16  C   UNL     1       6.052   1.027  11.435  0.00  0.00    +0.000 C 
BRANCH  16  17
ATOM     17  O   UNL     1       7.381   1.380  11.077  0.00  0.00    +0.000 OA
ATOM     18  H   UNL     1       7.973   0.871  11.657  0.00  0.00    +0.000 HD
ENDBRANCH  16  17
ENDBRANCH  15  16
ENDBRANCH  14  15
ENDBRANCH  13  14
ENDBRANCH  12  13
ENDBRANCH  11  12
ENDBRANCH   3  11
ENDBRANCH   1   8
BRANCH   1  19
ATOM     19  C   UNL     1       3.491   3.909  18.596  0.00  0.00    +0.000 C 
BRANCH  19  20
ATOM     20  C   UNL     1       2.475   3.164  19.474  0.00  0.00    +0.000 C 
BRANCH  20  21
ATOM     21  C   UNL     1       2.114   3.892  20.778  0.00  0.00    +0.000 C 
BRANCH  21  22
ATOM     22  C   UNL     1       1.393   5.211  20.508  0.00  0.00    +0.000 C 
BRANCH  22  23
ATOM     23  N   UNL     1       2.290   6.345  20.738  0.00  0.00    +0.000 N 
ATOM     24  H   UNL     1       3.257   6.077  20.592  0.00  0.00    +0.000 HD
BRANCH  23  25
ATOM     25  C   UNL     1       1.983   7.542  20.034  0.00  0.00    +0.000 A 
ATOM     26  C   UNL     1       2.271   7.661  18.668  0.00  0.00    +0.000 A 
ATOM     27  C   UNL     1       1.902   8.804  17.993  0.00  0.00    +0.000 A 
ATOM     28  N   UNL     1       1.245   9.830  18.559  0.00  0.00    +0.000 NA
ATOM     29  C   UNL     1       0.910   9.718  19.852  0.00  0.00    +0.000 A 
ATOM     30  C   UNL     1       0.195  10.768  20.405  0.00  0.00    +0.000 A 
ATOM     31  C   UNL     1      -0.193  10.755  21.739  0.00  0.00    +0.000 A 
ATOM     32 CL   UNL     1      -1.089  12.077  22.383  0.00  0.00    +0.000 Cl
ATOM     33  C   UNL     1       0.133   9.683  22.553  0.00  0.00    +0.000 A 
ATOM     34  C   UNL     1       0.843   8.607  22.015  0.00  0.00    +0.000 A 
ATOM     35  C   UNL     1       1.249   8.597  20.655  0.00  0.00    +0.000 A 
ENDBRANCH  23  25
ENDBRANCH  22  23
ENDBRANCH  21  22
ENDBRANCH  20  21
ENDBRANCH  19  20
ENDBRANCH   1  19
TORSDOF 14
ENDMDL
MODEL 3
REMARK VINA RESULT:      -7.2      1.113      1.166
REMARK  Name = 
REMARK  14 active torsions:
REMARK  status: ('A' for Active; 'I' for Inactive)
REMARK    1  A    between atoms: O_1  and  C_2
REMARK    2  A    between atoms: C_2  and  C_3
REMARK    3  A    between atoms: C_3  and  C_4
REMARK    4  A    between atoms: C_4  and  C_5
REMARK    5  A    between atoms: C_5  and  C_6
REMARK    6  A    between atoms: C_6  and  C_7
REMARK    7  A    between atoms: C_7  and  N_8
REMARK    8  A    between atoms: C_13  and  N_14
REMARK    9  A    between atoms: N_14  and  C_15
REMARK   10  A    between atoms: C_15  and  C_16
REMARK   11  A    between atoms: C_16  and  C_17
REMARK   12  A    between atoms: C_17  and  C_18
REMARK   13  A    between atoms: C_18  and  N_19
REMARK   14  A    between atoms: N_19  and  C_20
REMARK                            x       y       z     vdW  Elec       q    Type
REMARK                         _______ _______ _______ _____ _____    ______ ____
ROOT
ATOM      1  N   UNL     1       5.518   3.499  18.478  0.00  0.00    +0.000 N 
ATOM      2  H   UNL     1       6.187   2.786  18.748  0.00  0.00    +0.000 HD
ENDROOT
BRANCH   1   8
ATOM      3  N   UNL     1       7.689   7.586  17.316  0.00  0.00    +0.000 N 
ATOM      4  C   UNL     1       7.176   6.335  16.999  0.00  0.00    +0.000 A 
ATOM      5  N   UNL     1       7.312   5.983  15.716  0.00  0.00    +0.000 NA
ATOM      6  C   UNL     1       6.831   4.780  15.368  0.00  0.00    +0.000 A 
ATOM      7  C   UNL     1       6.250   3.917  16.260  0.00  0.00    +0.000 A 
ATOM      8  C   UNL     1       6.135   4.364  17.558  0.00  0.00    +0.000 A 
ATOM      9  N   UNL     1       6.599   5.566  17.935  0.00  0.00    +0.000 NA
ATOM     10  H   UNL     1       8.289   7.834  16.536  0.00  0.00    +0.000 HD
BRANCH   3  11
ATOM     11  C   UNL     1       8.301   7.684  18.626  0.00  0.00    +0.000 C 
BRANCH  11  12
ATOM     12  C   UNL     1       8.880   9.092  18.803  0.00  0.00    +0.000 C 
BRANCH  12  13
ATOM     13  C   UNL     1       8.287  10.056  17.778  0.00  0.00    +0.000 C 
BRANCH  13  14
ATOM     14  C   UNL     1       8.853  11.470  17.929  0.00  0.00    +0.000 C 
BRANCH  14  15
ATOM     15  C   UNL     1      10.000  11.545  18.939  0.00  0.00    +0.000 C 
BRANCH  15  16
ATOM     16  C   UNL     1       9.678  12.399  20.159  0.00  0.00    +0.000 C 
BRANCH  16  17
ATOM     17  O   UNL     1      10.853  13.086  20.567  0.00  0.00    +0.000 OA
ATOM     18  H   UNL     1      11.216  13.517  19.775  0.00  0.00    +0.000 HD
ENDBRANCH  16  17
ENDBRANCH  15  16
ENDBRANCH  14  15
ENDBRANCH  13  14
ENDBRANCH  12  13
ENDBRANCH  11  12
ENDBRANCH   3  11
ENDBRANCH   1   8
BRANCH   1  19
ATOM     19  C   UNL     1       4.821   4.131  19.588  0.00  0.00    +0.000 C 
BRANCH  19  20
ATOM     20  C   UNL     1       3.421   3.518  19.740  0.00  0.00    +0.000 C 
BRANCH  20  21
ATOM     21  C   UNL     1       2.485   4.306  20.670  0.00  0.00    +0.000 C 
BRANCH  21  22
ATOM     22  C   UNL     1       1.846   5.494  19.956  0.00  0.00    +0.000 C 
BRANCH  22  23
ATOM     23  N   UNL     1       2.517   6.741  20.328  0.00  0.00    +0.000 N 
ATOM     24  H   UNL     1       3.509   6.692  20.123  0.00  0.00    +0.000 HD
BRANCH  23  25
ATOM     25  C   UNL     1       1.950   7.938  19.811  0.00  0.00    +0.000 A 
ATOM     26  C   UNL     1       2.053   8.248  18.448  0.00  0.00    +0.000 A 
ATOM     27  C   UNL     1       1.437   9.380  17.961  0.00  0.00    +0.000 A 
ATOM     28  N   UNL     1       0.702  10.216  18.712  0.00  0.00    +0.000 NA
ATOM     29  C   UNL     1       0.543   9.914  20.008  0.00  0.00    +0.000 A 
ATOM     30  C   UNL     1      -0.254  10.765  20.754  0.00  0.00    +0.000 A 
ATOM     31  C   UNL     1      -0.476  10.547  22.108  0.00  0.00    +0.000 A 
ATOM     32 CL   UNL     1      -1.481  11.626  22.997  0.00  0.00    +0.000 Cl
ATOM     33  C   UNL     1       0.104   9.463  22.747  0.00  0.00    +0.000 A 
ATOM     34  C   UNL     1       0.902   8.583  22.012  0.00  0.00    +0.000 A 
ATOM     35  C   UNL     1       1.141   8.785  20.628  0.00  0.00    +0.000 A 
ENDBRANCH  23  25
ENDBRANCH  22  23
ENDBRANCH  21  22
ENDBRANCH  20  21
ENDBRANCH  19  20
ENDBRANCH   1  19
TORSDOF 14
ENDMDL
MODEL 4
REMARK VINA RESULT:      -7.1      1.462      1.631
REMARK  Name = 
REMARK  14 active torsions:
REMARK  status: ('A' for Active; 'I' for Inactive)
REMARK    1  A    between atoms: O_1  and  C_2
REMARK    2  A    between atoms: C_2  and  C_3
REMARK    3  A    between atoms: C_3  and  C_4
REMARK    4  A    between atoms: C_4  and  C_5
REMARK    5  A    between atoms: C_5  and  C_6
REMARK    6  A    between atoms: C_6  and  C_7
REMARK    7  A    between atoms: C_7  and  N_8
REMARK    8  A    between atoms: C_13  and  N_14
REMARK    9  A    between atoms: N_14  and  C_15
REMARK   10  A    between atoms: C_15  and  C_16
REMARK   11  A    between atoms: C_16  and  C_17
REMARK   12  A    between atoms: C_17  and  C_18
REMARK   13  A    between atoms: C_18  and  N_19
REMARK   14  A    between atoms: N_19  and  C_20
REMARK                            x       y       z     vdW  Elec       q    Type
REMARK                         _______ _______ _______ _____ _____    ______ ____
ROOT
ATOM      1  N   UNL     1       4.985   3.772  19.574  0.00  0.00    +0.000 N 
ATOM      2  H   UNL     1       4.787   4.470  20.282  0.00  0.00    +0.000 HD
ENDROOT
BRANCH   1   8
ATOM      3  N   UNL     1       6.693   7.243  16.779  0.00  0.00    +0.000 N 
ATOM      4  C   UNL     1       5.939   6.096  16.991  0.00  0.00    +0.000 A 
ATOM      5  N   UNL     1       5.326   5.620  15.901  0.00  0.00    +0.000 NA
ATOM      6  C   UNL     1       4.589   4.511  16.062  0.00  0.00    +0.000 A 
ATOM      7  C   UNL     1       4.470   3.855  17.259  0.00  0.00    +0.000 A 
ATOM      8  C   UNL     1       5.120   4.421  18.334  0.00  0.00    +0.000 A 
ATOM      9  N   UNL     1       5.858   5.535  18.207  0.00  0.00    +0.000 NA
ATOM     10  H   UNL     1       6.811   7.303  15.773  0.00  0.00    +0.000 HD
BRANCH   3  11
ATOM     11  C   UNL     1       7.915   7.325  17.554  0.00  0.00    +0.000 C 
BRANCH  11  12
ATOM     12  C   UNL     1       7.854   8.566  18.451  0.00  0.00    +0.000 C 
BRANCH  12  13
ATOM     13  C   UNL     1       8.535   9.756  17.779  0.00  0.00    +0.000 C 
BRANCH  13  14
ATOM     14  C   UNL     1       9.473  10.494  18.738  0.00  0.00    +0.000 C 
BRANCH  14  15
ATOM     15  C   UNL     1       9.869  11.882  18.230  0.00  0.00    +0.000 C 
BRANCH  15  16
ATOM     16  C   UNL     1      11.340  12.211  18.450  0.00  0.00    +0.000 C 
BRANCH  16  17
ATOM     17  O   UNL     1      12.100  11.686  17.371  0.00  0.00    +0.000 OA
ATOM     18  H   UNL     1      11.499  11.623  16.609  0.00  0.00    +0.000 HD
ENDBRANCH  16  17
ENDBRANCH  15  16
ENDBRANCH  14  15
ENDBRANCH  13  14
ENDBRANCH  12  13
ENDBRANCH  11  12
ENDBRANCH   3  11
ENDBRANCH   1   8
BRANCH   1  19
ATOM     19  C   UNL     1       4.108   2.611  19.600  0.00  0.00    +0.000 C 
BRANCH  19  20
ATOM     20  C   UNL     1       2.944   2.860  20.570  0.00  0.00    +0.000 C 
BRANCH  20  21
ATOM     21  C   UNL     1       2.871   4.297  21.112  0.00  0.00    +0.000 C 
BRANCH  21  22
ATOM     22  C   UNL     1       1.849   5.136  20.350  0.00  0.00    +0.000 C 
BRANCH  22  23
ATOM     23  N   UNL     1       1.900   6.533  20.786  0.00  0.00    +0.000 N 
ATOM     24  H   UNL     1       2.624   6.667  21.483  0.00  0.00    +0.000 HD
BRANCH  23  25
ATOM     25  C   UNL     1       1.998   7.510  19.758  0.00  0.00    +0.000 A 
ATOM     26  C   UNL     1       2.651   7.216  18.553  0.00  0.00    +0.000 A 
ATOM     27  C   UNL     1       2.674   8.157  17.546  0.00  0.00    +0.000 A 
ATOM     28  N   UNL     1       2.076   9.357  17.627  0.00  0.00    +0.000 NA
ATOM     29  C   UNL     1       1.399   9.641  18.749  0.00  0.00    +0.000 A 
ATOM     30  C   UNL     1       0.754  10.866  18.794  0.00  0.00    +0.000 A 
ATOM     31  C   UNL     1       0.032  11.262  19.914  0.00  0.00    +0.000 A 
ATOM     32 CL   UNL     1      -0.761  12.790  19.925  0.00  0.00    +0.000 Cl
ATOM     33  C   UNL     1      -0.055  10.433  21.020  0.00  0.00    +0.000 A 
ATOM     34  C   UNL     1       0.577   9.188  20.992  0.00  0.00    +0.000 A 
ATOM     35  C   UNL     1       1.318   8.761  19.859  0.00  0.00    +0.000 A 
ENDBRANCH  23  25
ENDBRANCH  22  23
ENDBRANCH  21  22
ENDBRANCH  20  21
ENDBRANCH  19  20
ENDBRANCH   1  19
TORSDOF 14
ENDMDL
MODEL 5
REMARK VINA RESULT:      -7.0      4.108      8.676
REMARK  Name = 
REMARK  14 active torsions:
REMARK  status: ('A' for Active; 'I' for Inactive)
REMARK    1  A    between atoms: O_1  and  C_2
REMARK    2  A    between atoms: C_2  and  C_3
REMARK    3  A    between atoms: C_3  and  C_4
REMARK    4  A    between atoms: C_4  and  C_5
REMARK    5  A    between atoms: C_5  and  C_6
REMARK    6  A    between atoms: C_6  and  C_7
REMARK    7  A    between atoms: C_7  and  N_8
REMARK    8  A    between atoms: C_13  and  N_14
REMARK    9  A    between atoms: N_14  and  C_15
REMARK   10  A    between atoms: C_15  and  C_16
REMARK   11  A    between atoms: C_16  and  C_17
REMARK   12  A    between atoms: C_17  and  C_18
REMARK   13  A    between atoms: C_18  and  N_19
REMARK   14  A    between atoms: N_19  and  C_20
REMARK                            x       y       z     vdW  Elec       q    Type
REMARK                         _______ _______ _______ _____ _____    ______ ____
ROOT
ATOM      1  N   UNL     1       7.824   7.096  18.068  0.00  0.00    +0.000 N 
ATOM      2  H   UNL     1       8.703   6.602  17.958  0.00  0.00    +0.000 HD
ENDROOT
BRANCH   1   8
ATOM      3  N   UNL     1       3.416   5.284  18.312  0.00  0.00    +0.000 N 
ATOM      4  C   UNL     1       4.666   5.396  17.718  0.00  0.00    +0.000 A 
ATOM      5  N   UNL     1       4.835   4.647  16.623  0.00  0.00    +0.000 NA
ATOM      6  C   UNL     1       6.028   4.727  16.017  0.00  0.00    +0.000 A 
ATOM      7  C   UNL     1       7.037   5.546  16.452  0.00  0.00    +0.000 A 
ATOM      8  C   UNL     1       6.787   6.271  17.596  0.00  0.00    +0.000 A 
ATOM      9  N   UNL     1       5.606   6.206  18.230  0.00  0.00    +0.000 NA
ATOM     10  H   UNL     1       2.826   4.847  17.612  0.00  0.00    +0.000 HD
BRANCH   3  11
ATOM     11  C   UNL     1       2.897   6.511  18.884  0.00  0.00    +0.000 C 
BRANCH  11  12
ATOM     12  C   UNL     1       2.042   6.167  20.109  0.00  0.00    +0.000 C 
BRANCH  12  13
ATOM     13  C   UNL     1       2.220   4.703  20.503  0.00  0.00    +0.000 C 
BRANCH  13  14
ATOM     14  C   UNL     1       0.933   3.898  20.307  0.00  0.00    +0.000 C 
BRANCH  14  15
ATOM     15  C   UNL     1       1.194   2.468  19.827  0.00  0.00    +0.000 C 
BRANCH  15  16
ATOM     16  C   UNL     1       2.592   2.265  19.257  0.00  0.00    +0.000 C 
BRANCH  16  17
ATOM     17  O   UNL     1       2.553   2.465  17.850  0.00  0.00    +0.000 OA
ATOM     18  H   UNL     1       2.053   3.284  17.696  0.00  0.00    +0.000 HD
ENDBRANCH  16  17
ENDBRANCH  15  16
ENDBRANCH  14  15
ENDBRANCH  13  14
ENDBRANCH  12  13
ENDBRANCH  11  12
ENDBRANCH   3  11
ENDBRANCH   1   8
BRANCH   1  19
ATOM     19  C   UNL     1       7.829   8.465  17.576  0.00  0.00    +0.000 C 
BRANCH  19  20
ATOM     20  C   UNL     1       8.658   9.352  18.517  0.00  0.00    +0.000 C 
BRANCH  20  21
ATOM     21  C   UNL     1       8.741  10.825  18.086  0.00  0.00    +0.000 C 
BRANCH  21  22
ATOM     22  C   UNL     1      10.187  11.294  17.954  0.00  0.00    +0.000 C 
BRANCH  22  23
ATOM     23  N   UNL     1      10.850  11.296  19.260  0.00  0.00    +0.000 N 
ATOM     24  H   UNL     1      11.810  10.980  19.178  0.00  0.00    +0.000 HD
BRANCH  23  25
ATOM     25  C   UNL     1      10.776  12.507  20.001  0.00  0.00    +0.000 A 
ATOM     26  C   UNL     1      11.488  13.642  19.589  0.00  0.00    +0.000 A 
ATOM     27  C   UNL     1      11.346  14.822  20.285  0.00  0.00    +0.000 A 
ATOM     28  N   UNL     1      10.532  14.976  21.342  0.00  0.00    +0.000 NA
ATOM     29  C   UNL     1       9.800  13.921  21.724  0.00  0.00    +0.000 A 
ATOM     30  C   UNL     1       8.934  14.113  22.789  0.00  0.00    +0.000 A 
ATOM     31  C   UNL     1       8.137  13.081  23.268  0.00  0.00    +0.000 A 
ATOM     32 CL   UNL     1       7.070  13.366  24.588  0.00  0.00    +0.000 Cl
ATOM     33  C   UNL     1       8.193  11.825  22.687  0.00  0.00    +0.000 A 
ATOM     34  C   UNL     1       9.048  11.611  21.604  0.00  0.00    +0.000 A 
ATOM     35  C   UNL     1       9.871  12.650  21.096  0.00  0.00    +0.000 A 
ENDBRANCH  23  25
ENDBRANCH  22  23
ENDBRANCH  21  22
ENDBRANCH  20  21
ENDBRANCH  19  20
ENDBRANCH   1  19
TORSDOF 14
ENDMDL
MODEL 6
REMARK VINA RESULT:      -7.0      4.194      8.152
REMARK  Name = 
REMARK  14 active torsions:
REMARK  status: ('A' for Active; 'I' for Inactive)
REMARK    1  A    between atoms: O_1  and  C_2
REMARK    2  A    between atoms: C_2  and  C_3
REMARK    3  A    between atoms: C_3  and  C_4
REMARK    4  A    between atoms: C_4  and  C_5
REMARK    5  A    between atoms: C_5  and  C_6
REMARK    6  A    between atoms: C_6  and  C_7
REMARK    7  A    between atoms: C_7  and  N_8
REMARK    8  A    between atoms: C_13  and  N_14
REMARK    9  A    between atoms: N_14  and  C_15
REMARK   10  A    between atoms: C_15  and  C_16
REMARK   11  A    between atoms: C_16  and  C_17
REMARK   12  A    between atoms: C_17  and  C_18
REMARK   13  A    between atoms: C_18  and  N_19
REMARK   14  A    between atoms: N_19  and  C_20
REMARK                            x       y       z     vdW  Elec       q    Type
REMARK                         _______ _______ _______ _____ _____    ______ ____
ROOT
ATOM      1  N   UNL     1       8.029   4.909  18.151  0.00  0.00    +0.000 N 
ATOM      2  H   UNL     1       8.868   4.868  17.583  0.00  0.00    +0.000 HD
ENDROOT
BRANCH   1   8
ATOM      3  N   UNL     1       3.347   4.353  17.414  0.00  0.00    +0.000 N 
ATOM      4  C   UNL     1       4.666   4.363  16.979  0.00  0.00    +0.000 A 
ATOM      5  N   UNL     1       4.830   4.091  15.679  0.00  0.00    +0.000 NA
ATOM      6  C   UNL     1       6.088   4.093  15.218  0.00  0.00    +0.000 A 
ATOM      7  C   UNL     1       7.175   4.383  16.001  0.00  0.00    +0.000 A 
ATOM      8  C   UNL     1       6.921   4.635  17.331  0.00  0.00    +0.000 A 
ATOM      9  N   UNL     1       5.672   4.633  17.825  0.00  0.00    +0.000 NA
ATOM     10  H   UNL     1       2.787   4.397  16.569  0.00  0.00    +0.000 HD
BRANCH   3  11
ATOM     11  C   UNL     1       3.027   5.344  18.423  0.00  0.00    +0.000 C 
BRANCH  11  12
ATOM     12  C   UNL     1       3.237   4.728  19.810  0.00  0.00    +0.000 C 
BRANCH  12  13
ATOM     13  C   UNL     1       2.058   5.043  20.728  0.00  0.00    +0.000 C 
BRANCH  13  14
ATOM     14  C   UNL     1       0.827   4.200  20.387  0.00  0.00    +0.000 C 
BRANCH  14  15
ATOM     15  C   UNL     1       1.162   2.724  20.161  0.00  0.00    +0.000 C 
BRANCH  15  16
ATOM     16  C   UNL     1       0.835   2.236  18.756  0.00  0.00    +0.000 C 
BRANCH  16  17
ATOM     17  O   UNL     1       2.024   1.758  18.142  0.00  0.00    +0.000 OA
ATOM     18  H   UNL     1       2.023   2.093  17.229  0.00  0.00    +0.000 HD
ENDBRANCH  16  17
ENDBRANCH  15  16
ENDBRANCH  14  15
ENDBRANCH  13  14
ENDBRANCH  12  13
ENDBRANCH  11  12
ENDBRANCH   3  11
ENDBRANCH   1   8
BRANCH   1  19
ATOM     19  C   UNL     1       7.925   6.086  19.000  0.00  0.00    +0.000 C 
BRANCH  19  20
ATOM     20  C   UNL     1       7.931   7.354  18.134  0.00  0.00    +0.000 C 
BRANCH  20  21
ATOM     21  C   UNL     1       8.648   8.553  18.774  0.00  0.00    +0.000 C 
BRANCH  21  22
ATOM     22  C   UNL     1       8.423   9.836  17.979  0.00  0.00    +0.000 C 
BRANCH  22  23
ATOM     23  N   UNL     1       9.515  10.784  18.209  0.00  0.00    +0.000 N 
ATOM     24  H   UNL     1      10.172  10.773  17.436  0.00  0.00    +0.000 HD
BRANCH  23  25
ATOM     25  C   UNL     1       9.135  12.115  18.533  0.00  0.00    +0.000 A 
ATOM     26  C   UNL     1       8.711  13.001  17.533  0.00  0.00    +0.000 A 
ATOM     27  C   UNL     1       8.284  14.264  17.881  0.00  0.00    +0.000 A 
ATOM     28  N   UNL     1       8.215  14.710  19.146  0.00  0.00    +0.000 NA
ATOM     29  C   UNL     1       8.564  13.864  20.125  0.00  0.00    +0.000 A 
ATOM     30  C   UNL     1       8.444  14.330  21.424  0.00  0.00    +0.000 A 
ATOM     31  C   UNL     1       8.787  13.536  22.511  0.00  0.00    +0.000 A 
ATOM     32 CL   UNL     1       8.615  14.151  24.110  0.00  0.00    +0.000 Cl
ATOM     33  C   UNL     1       9.263  12.250  22.316  0.00  0.00    +0.000 A 
ATOM     34  C   UNL     1       9.380  11.754  21.016  0.00  0.00    +0.000 A 
ATOM     35  C   UNL     1       9.034  12.546  19.890  0.00  0.00    +0.000 A 
ENDBRANCH  23  25
ENDBRANCH  22  23
ENDBRANCH  21  22
ENDBRANCH  20  21
ENDBRANCH  19  20
ENDBRANCH   1  19
TORSDOF 14
ENDMDL
MODEL 7
REMARK VINA RESULT:      -7.0      3.867      5.550
REMARK  Name = 
REMARK  14 active torsions:
REMARK  status: ('A' for Active; 'I' for Inactive)
REMARK    1  A    between atoms: O_1  and  C_2
REMARK    2  A    between atoms: C_2  and  C_3
REMARK    3  A    between atoms: C_3  and  C_4
REMARK    4  A    between atoms: C_4  and  C_5
REMARK    5  A    between atoms: C_5  and  C_6
REMARK    6  A    between atoms: C_6  and  C_7
REMARK    7  A    between atoms: C_7  and  N_8
REMARK    8  A    between atoms: C_13  and  N_14
REMARK    9  A    between atoms: N_14  and  C_15
REMARK   10  A    between atoms: C_15  and  C_16
REMARK   11  A    between atoms: C_16  and  C_17
REMARK   12  A    between atoms: C_17  and  C_18
REMARK   13  A    between atoms: C_18  and  N_19
REMARK   14  A    between atoms: N_19  and  C_20
REMARK                            x       y       z     vdW  Elec       q    Type
REMARK                         _______ _______ _______ _____ _____    ______ ____
ROOT
ATOM      1  N   UNL     1       3.836   4.187  18.827  0.00  0.00    +0.000 N 
ATOM      2  H   UNL     1       3.273   3.864  18.048  0.00  0.00    +0.000 HD
ENDROOT
BRANCH   1   8
ATOM      3  N   UNL     1       7.137   4.407  15.388  0.00  0.00    +0.000 N 
ATOM      4  C   UNL     1       6.701   4.629  16.688  0.00  0.00    +0.000 A 
ATOM      5  N   UNL     1       7.599   5.217  17.487  0.00  0.00    +0.000 NA
ATOM      6  C   UNL     1       7.217   5.453  18.750  0.00  0.00    +0.000 A 
ATOM      7  C   UNL     1       5.969   5.147  19.227  0.00  0.00    +0.000 A 
ATOM      8  C   UNL     1       5.111   4.529  18.344  0.00  0.00    +0.000 A 
ATOM      9  N   UNL     1       5.467   4.273  17.075  0.00  0.00    +0.000 NA
ATOM     10  H   UNL     1       7.961   4.989  15.280  0.00  0.00    +0.000 HD
BRANCH   3  11
ATOM     11  C   UNL     1       6.123   4.568  14.365  0.00  0.00    +0.000 C 
BRANCH  11  12
ATOM     12  C   UNL     1       6.761   4.342  12.991  0.00  0.00    +0.000 C 
BRANCH  12  13
ATOM     13  C   UNL     1       6.112   3.156  12.279  0.00  0.00    +0.000 C 
BRANCH  13  14
ATOM     14  C   UNL     1       4.604   3.348  12.108  0.00  0.00    +0.000 C 
BRANCH  14  15
ATOM     15  C   UNL     1       4.125   3.056  10.684  0.00  0.00    +0.000 C 
BRANCH  15  16
ATOM     16  C   UNL     1       3.204   4.131  10.121  0.00  0.00    +0.000 C 
BRANCH  16  17
ATOM     17  O   UNL     1       2.648   3.671   8.898  0.00  0.00    +0.000 OA
ATOM     18  H   UNL     1       1.947   4.300   8.653  0.00  0.00    +0.000 HD
ENDBRANCH  16  17
ENDBRANCH  15  16
ENDBRANCH  14  15
ENDBRANCH  13  14
ENDBRANCH  12  13
ENDBRANCH  11  12
ENDBRANCH   3  11
ENDBRANCH   1   8
BRANCH   1  19
ATOM     19  C   UNL     1       3.802   3.329  20.002  0.00  0.00    +0.000 C 
BRANCH  19  20
ATOM     20  C   UNL     1       2.764   3.857  21.003  0.00  0.00    +0.000 C 
BRANCH  20  21
ATOM     21  C   UNL     1       1.552   4.541  20.352  0.00  0.00    +0.000 C 
BRANCH  21  22
ATOM     22  C   UNL     1       1.943   5.839  19.652  0.00  0.00    +0.000 C 
BRANCH  22  23
ATOM     23  N   UNL     1       2.005   6.944  20.610  0.00  0.00    +0.000 N 
ATOM     24  H   UNL     1       2.908   6.973  21.070  0.00  0.00    +0.000 HD
BRANCH  23  25
ATOM     25  C   UNL     1       1.648   8.228  20.113  0.00  0.00    +0.000 A 
ATOM     26  C   UNL     1       1.943   8.591  18.792  0.00  0.00    +0.000 A 
ATOM     27  C   UNL     1       1.527   9.814  18.314  0.00  0.00    +0.000 A 
ATOM     28  N   UNL     1       0.814  10.697  19.034  0.00  0.00    +0.000 NA
ATOM     29  C   UNL     1       0.473  10.352  20.283  0.00  0.00    +0.000 A 
ATOM     30  C   UNL     1      -0.299  11.258  20.992  0.00  0.00    +0.000 A 
ATOM     31  C   UNL     1      -0.700  11.001  22.297  0.00  0.00    +0.000 A 
ATOM     32 CL   UNL     1      -1.665  12.151  23.139  0.00  0.00    +0.000 Cl
ATOM     33  C   UNL     1      -0.330   9.822  22.923  0.00  0.00    +0.000 A 
ATOM     34  C   UNL     1       0.436   8.887  22.224  0.00  0.00    +0.000 A 
ATOM     35  C   UNL     1       0.856   9.127  20.890  0.00  0.00    +0.000 A 
ENDBRANCH  23  25
ENDBRANCH  22  23
ENDBRANCH  21  22
ENDBRANCH  20  21
ENDBRANCH  19  20
ENDBRANCH   1  19
TORSDOF 14
ENDMDL
MODEL 8
REMARK VINA RESULT:      -7.0      1.425      1.932
REMARK  Name = 
REMARK  14 active torsions:
REMARK  status: ('A' for Active; 'I' for Inactive)
REMARK    1  A    between atoms: O_1  and  C_2
REMARK    2  A    between atoms: C_2  and  C_3
REMARK    3  A    between atoms: C_3  and  C_4
REMARK    4  A    between atoms: C_4  and  C_5
REMARK    5  A    between atoms: C_5  and  C_6
REMARK    6  A    between atoms: C_6  and  C_7
REMARK    7  A    between atoms: C_7  and  N_8
REMARK    8  A    between atoms: C_13  and  N_14
REMARK    9  A    between atoms: N_14  and  C_15
REMARK   10  A    between atoms: C_15  and  C_16
REMARK   11  A    between atoms: C_16  and  C_17
REMARK   12  A    between atoms: C_17  and  C_18
REMARK   13  A    between atoms: C_18  and  N_19
REMARK   14  A    between atoms: N_19  and  C_20
REMARK                            x       y       z     vdW  Elec       q    Type
REMARK                         _______ _______ _______ _____ _____    ______ ____
ROOT
ATOM      1  N   UNL     1       4.821   5.679  16.777  0.00  0.00    +0.000 N 
ATOM      2  H   UNL     1       5.064   5.840  15.805  0.00  0.00    +0.000 HD
ENDROOT
BRANCH   1   8
ATOM      3  N   UNL     1       8.538   8.391  18.042  0.00  0.00    +0.000 N 
ATOM      4  C   UNL     1       7.741   7.261  18.174  0.00  0.00    +0.000 A 
ATOM      5  N   UNL     1       8.119   6.419  19.143  0.00  0.00    +0.000 NA
ATOM      6  C   UNL     1       7.373   5.317  19.306  0.00  0.00    +0.000 A 
ATOM      7  C   UNL     1       6.258   5.047  18.557  0.00  0.00    +0.000 A 
ATOM      8  C   UNL     1       5.949   5.957  17.570  0.00  0.00    +0.000 A 
ATOM      9  N   UNL     1       6.680   7.066  17.377  0.00  0.00    +0.000 NA
ATOM     10  H   UNL     1       9.079   8.438  18.900  0.00  0.00    +0.000 HD
BRANCH   3  11
ATOM     11  C   UNL     1       7.829   9.604  17.687  0.00  0.00    +0.000 C 
BRANCH  11  12
ATOM     12  C   UNL     1       8.592  10.809  18.248  0.00  0.00    +0.000 C 
BRANCH  12  13
ATOM     13  C   UNL     1       9.583  10.373  19.324  0.00  0.00    +0.000 C 
BRANCH  13  14
ATOM     14  C   UNL     1      10.176  11.569  20.073  0.00  0.00    +0.000 C 
BRANCH  14  15
ATOM     15  C   UNL     1      11.675  11.746  19.818  0.00  0.00    +0.000 C 
BRANCH  15  16
ATOM     16  C   UNL     1      11.988  12.418  18.487  0.00  0.00    +0.000 C 
BRANCH  16  17
ATOM     17  O   UNL     1      11.111  13.520  18.306  0.00  0.00    +0.000 OA
ATOM     18  H   UNL     1      10.518  13.537  19.077  0.00  0.00    +0.000 HD
ENDBRANCH  16  17
ENDBRANCH  15  16
ENDBRANCH  14  15
ENDBRANCH  13  14
ENDBRANCH  12  13
ENDBRANCH  11  12
ENDBRANCH   3  11
ENDBRANCH   1   8
BRANCH   1  19
ATOM     19  C   UNL     1       4.149   4.414  17.037  0.00  0.00    +0.000 C 
BRANCH  19  20
ATOM     20  C   UNL     1       2.774   4.677  17.668  0.00  0.00    +0.000 C 
BRANCH  20  21
ATOM     21  C   UNL     1       2.694   4.345  19.166  0.00  0.00    +0.000 C 
BRANCH  21  22
ATOM     22  C   UNL     1       1.882   5.385  19.933  0.00  0.00    +0.000 C 
BRANCH  22  23
ATOM     23  N   UNL     1       2.666   6.607  20.133  0.00  0.00    +0.000 N 
ATOM     24  H   UNL     1       3.613   6.488  19.790  0.00  0.00    +0.000 HD
BRANCH  23  25
ATOM     25  C   UNL     1       2.092   7.809  19.636  0.00  0.00    +0.000 A 
ATOM     26  C   UNL     1       2.174   8.131  18.275  0.00  0.00    +0.000 A 
ATOM     27  C   UNL     1       1.553   9.268  17.807  0.00  0.00    +0.000 A 
ATOM     28  N   UNL     1       0.830  10.098  18.577  0.00  0.00    +0.000 NA
ATOM     29  C   UNL     1       0.691   9.784  19.872  0.00  0.00    +0.000 A 
ATOM     30  C   UNL     1      -0.094  10.630  20.639  0.00  0.00    +0.000 A 
ATOM     31  C   UNL     1      -0.295  10.399  21.994  0.00  0.00    +0.000 A 
ATOM     32 CL   UNL     1      -1.285  11.471  22.908  0.00  0.00    +0.000 Cl
ATOM     33  C   UNL     1       0.294   9.309  22.614  0.00  0.00    +0.000 A 
ATOM     34  C   UNL     1       1.079   8.435  21.859  0.00  0.00    +0.000 A 
ATOM     35  C   UNL     1       1.297   8.649  20.473  0.00  0.00    +0.000 A 
ENDBRANCH  23  25
ENDBRANCH  22  23
ENDBRANCH  21  22
ENDBRANCH  20  21
ENDBRANCH  19  20
ENDBRANCH   1  19
TORSDOF 14
ENDMDL
MODEL 9
REMARK VINA RESULT:      -7.0      3.711      8.111
REMARK  Name = 
REMARK  14 active torsions:
REMARK  status: ('A' for Active; 'I' for Inactive)
REMARK    1  A    between atoms: O_1  and  C_2
REMARK    2  A    between atoms: C_2  and  C_3
REMARK    3  A    between atoms: C_3  and  C_4
REMARK    4  A    between atoms: C_4  and  C_5
REMARK    5  A    between atoms: C_5  and  C_6
REMARK    6  A    between atoms: C_6  and  C_7
REMARK    7  A    between atoms: C_7  and  N_8
REMARK    8  A    between atoms: C_13  and  N_14
REMARK    9  A    between atoms: N_14  and  C_15
REMARK   10  A    between atoms: C_15  and  C_16
REMARK   11  A    between atoms: C_16  and  C_17
REMARK   12  A    between atoms: C_17  and  C_18
REMARK   13  A    between atoms: C_18  and  N_19
REMARK   14  A    between atoms: N_19  and  C_20
REMARK                            x       y       z     vdW  Elec       q    Type
REMARK                         _______ _______ _______ _____ _____    ______ ____
ROOT
ATOM      1  N   UNL     1       6.812   4.915  18.573  0.00  0.00    +0.000 N 
ATOM      2  H   UNL     1       7.473   4.235  18.930  0.00  0.00    +0.000 HD
ENDROOT
BRANCH   1   8
ATOM      3  N   UNL     1       3.156   2.089  19.766  0.00  0.00    +0.000 N 
ATOM      4  C   UNL     1       3.845   2.891  18.866  0.00  0.00    +0.000 A 
ATOM      5  N   UNL     1       3.267   3.010  17.665  0.00  0.00    +0.000 NA
ATOM      6  C   UNL     1       3.899   3.778  16.767  0.00  0.00    +0.000 A 
ATOM      7  C   UNL     1       5.065   4.446  17.037  0.00  0.00    +0.000 A 
ATOM      8  C   UNL     1       5.602   4.256  18.291  0.00  0.00    +0.000 A 
ATOM      9  N   UNL     1       4.997   3.487  19.210  0.00  0.00    +0.000 NA
ATOM     10  H   UNL     1       2.225   1.989  19.376  0.00  0.00    +0.000 HD
BRANCH   3  11
ATOM     11  C   UNL     1       3.208   2.532  21.146  0.00  0.00    +0.000 C 
BRANCH  11  12
ATOM     12  C   UNL     1       1.824   3.046  21.557  0.00  0.00    +0.000 C 
BRANCH  12  13
ATOM     13  C   UNL     1       1.122   3.718  20.379  0.00  0.00    +0.000 C 
BRANCH  13  14
ATOM     14  C   UNL     1       1.123   5.243  20.508  0.00  0.00    +0.000 C 
BRANCH  14  15
ATOM     15  C   UNL     1       2.498   5.861  20.241  0.00  0.00    +0.000 C 
BRANCH  15  16
ATOM     16  C   UNL     1       2.588   6.586  18.904  0.00  0.00    +0.000 C 
BRANCH  16  17
ATOM     17  O   UNL     1       2.085   7.906  19.058  0.00  0.00    +0.000 OA
ATOM     18  H   UNL     1       2.196   8.351  18.200  0.00  0.00    +0.000 HD
ENDBRANCH  16  17
ENDBRANCH  15  16
ENDBRANCH  14  15
ENDBRANCH  13  14
ENDBRANCH  12  13
ENDBRANCH  11  12
ENDBRANCH   3  11
ENDBRANCH   1   8
BRANCH   1  19
ATOM     19  C   UNL     1       7.332   5.780  17.524  0.00  0.00    +0.000 C 
BRANCH  19  20
ATOM     20  C   UNL     1       7.106   7.250  17.902  0.00  0.00    +0.000 C 
BRANCH  20  21
ATOM     21  C   UNL     1       8.229   8.198  17.452  0.00  0.00    +0.000 C 
BRANCH  21  22
ATOM     22  C   UNL     1       8.106   9.571  18.107  0.00  0.00    +0.000 C 
BRANCH  22  23
ATOM     23  N   UNL     1       9.201   9.791  19.054  0.00  0.00    +0.000 N 
ATOM     24  H   UNL     1       9.870   9.029  19.016  0.00  0.00    +0.000 HD
BRANCH  23  25
ATOM     25  C   UNL     1       9.858  11.049  18.975  0.00  0.00    +0.000 A 
ATOM     26  C   UNL     1      10.522  11.436  17.803  0.00  0.00    +0.000 A 
ATOM     27  C   UNL     1      11.093  12.687  17.727  0.00  0.00    +0.000 A 
ATOM     28  N   UNL     1      11.034  13.599  18.712  0.00  0.00    +0.000 NA
ATOM     29  C   UNL     1      10.359  13.273  19.823  0.00  0.00    +0.000 A 
ATOM     30  C   UNL     1      10.274  14.244  20.808  0.00  0.00    +0.000 A 
ATOM     31  C   UNL     1       9.604  14.005  22.002  0.00  0.00    +0.000 A 
ATOM     32 CL   UNL     1       9.515  15.241  23.197  0.00  0.00    +0.000 Cl
ATOM     33  C   UNL     1       9.004  12.778  22.235  0.00  0.00    +0.000 A 
ATOM     34  C   UNL     1       9.066  11.789  21.251  0.00  0.00    +0.000 A 
ATOM     35  C   UNL     1       9.743  12.011  20.024  0.00  0.00    +0.000 A 
ENDBRANCH  23  25
ENDBRANCH  22  23
ENDBRANCH  21  22
ENDBRANCH  20  21
ENDBRANCH  19  20
ENDBRANCH   1  19
TORSDOF 14
ENDMDL
