MODEL 1
REMARK VINA RESULT:      -8.6      0.000      0.000
REMARK  Name = 
REMARK  11 active torsions:
REMARK  status: ('A' for Active; 'I' for Inactive)
REMARK    1  A    between atoms: C_1  and  C_2
REMARK    2  A    between atoms: C_2  and  O_3
REMARK    3  A    between atoms: O_3  and  C_4
REMARK    4  A    between atoms: C_4  and  C_6
REMARK    5  A    between atoms: C_8  and  N_9
REMARK    6  A    between atoms: N_12  and  C_13
REMARK    7  A    between atoms: C_17  and  C_18
REMARK    8  A    between atoms: N_23  and  C_24
REMARK    9  A    between atoms: C_24  and  C_25
REMARK   10  A    between atoms: C_25  and  O_26
REMARK   11  A    between atoms: C_25  and  C_27
REMARK                            x       y       z     vdW  Elec       q    Type
REMARK                         _______ _______ _______ _____ _____    ______ ____
ROOT
ATOM      1  C   UNL     1       5.671   5.729  16.767  0.00  0.00    +0.000 A 
ATOM      2  C   UNL     1       5.122   6.678  17.665  0.00  0.00    +0.000 A 
ATOM      3  C   UNL     1       3.811   6.311  17.868  0.00  0.00    +0.000 A 
ATOM      4  N   UNL     1       3.650   5.156  17.137  0.00  0.00    +0.000 N 
ATOM      5  N   UNL     1       4.741   4.824  16.416  0.00  0.00    +0.000 NA
ENDROOT
BRANCH   3   6
ATOM      6  N   UNL     1       2.855   6.964  18.655  0.00  0.00    +0.000 N 
ATOM      7  C   UNL     1       2.275   8.189  18.240  0.00  0.00    +0.000 C 
ATOM      8  O   UNL     1       2.621   8.685  17.179  0.00  0.00    +0.000 OA
ATOM      9  N   UNL     1       1.411   8.717  19.161  0.00  0.00    +0.000 N 
ATOM     10  H   UNL     1       2.609   6.546  19.557  0.00  0.00    +0.000 HD
ATOM     11  H   UNL     1       1.409   8.364  20.108  0.00  0.00    +0.000 HD
BRANCH   9  12
ATOM     12  C   UNL     1       0.642   9.879  18.885  0.00  0.00    +0.000 A 
ATOM     13  C   UNL     1       1.047  11.150  19.326  0.00  0.00    +0.000 A 
ATOM     14  C   UNL     1       0.292  12.288  19.071  0.00  0.00    +0.000 A 
ATOM     15  C   UNL     1      -0.889  12.180  18.356  0.00  0.00    +0.000 A 
ATOM     16  C   UNL     1      -1.325  10.928  17.894  0.00  0.00    +0.000 A 
ATOM     17  C   UNL     1      -0.546   9.778  18.153  0.00  0.00    +0.000 A 
BRANCH  16  18
ATOM     18  C   UNL     1      -2.628  10.821  17.137  0.00  0.00    +0.000 C 
ATOM     19  F   UNL     1      -3.653  11.511  17.711  0.00  0.00    +0.000 F 
ATOM     20  F   UNL     1      -2.524  11.289  15.865  0.00  0.00    +0.000 F 
ATOM     21  F   UNL     1      -3.057   9.533  17.031  0.00  0.00    +0.000 F 
ENDBRANCH  16  18
ENDBRANCH   9  12
ENDBRANCH   3   6
BRANCH   1  22
ATOM     22  C   UNL     1       7.032   5.760  16.215  0.00  0.00    +0.000 C 
ATOM     23  O   UNL     1       7.788   6.710  16.376  0.00  0.00    +0.000 OA
BRANCH  22  24
ATOM     24  O   UNL     1       7.299   4.679  15.428  0.00  0.00    +0.000 OA
BRANCH  24  26
ATOM     25  C   UNL     1       6.315   3.882  13.412  0.00  0.00    +0.000 C 
ATOM     26  C   UNL     1       7.243   4.919  14.020  0.00  0.00    +0.000 C 
ENDBRANCH  24  26
ENDBRANCH  22  24
ENDBRANCH   1  22
BRANCH   4  27
ATOM     27  C   UNL     1       2.540   4.218  17.098  0.00  0.00    +0.000 C 
BRANCH  27  28
ATOM     28  C   UNL     1       2.806   2.851  17.734  0.00  0.00    +0.000 C 
BRANCH  28  29
ATOM     29  C   UNL     1       2.458   2.792  19.199  0.00  0.00    +0.000 A 
ATOM     30  C   UNL     1       1.138   3.041  19.614  0.00  0.00    +0.000 A 
ATOM     31  C   UNL     1       0.805   3.012  20.969  0.00  0.00    +0.000 A 
ATOM     32  C   UNL     1       1.779   2.727  21.921  0.00  0.00    +0.000 A 
ATOM     33  C   UNL     1       3.089   2.473  21.523  0.00  0.00    +0.000 A 
ATOM     34  C   UNL     1       3.428   2.503  20.170  0.00  0.00    +0.000 A 
ENDBRANCH  28  29
BRANCH  28  35
ATOM     35  O   UNL     1       4.191   2.483  17.565  0.00  0.00    +0.000 OA
ATOM     36  H   UNL     1       4.718   3.304  17.648  0.00  0.00    +0.000 HD
ENDBRANCH  28  35
ENDBRANCH  27  28
ENDBRANCH   4  27
TORSDOF 10
ENDMDL
MODEL 2
REMARK VINA RESULT:      -8.5      0.811      1.184
REMARK  Name = 
REMARK  11 active torsions:
REMARK  status: ('A' for Active; 'I' for Inactive)
REMARK    1  A    between atoms: C_1  and  C_2
REMARK    2  A    between atoms: C_2  and  O_3
REMARK    3  A    between atoms: O_3  and  C_4
REMARK    4  A    between atoms: C_4  and  C_6
REMARK    5  A    between atoms: C_8  and  N_9
REMARK    6  A    between atoms: N_12  and  C_13
REMARK    7  A    between atoms: C_17  and  C_18
REMARK    8  A    between atoms: N_23  and  C_24
REMARK    9  A    between atoms: C_24  and  C_25
REMARK   10  A    between atoms: C_25  and  O_26
REMARK   11  A    between atoms: C_25  and  C_27
REMARK                            x       y       z     vdW  Elec       q    Type
REMARK                         _______ _______ _______ _____ _____    ______ ____
ROOT
ATOM      1  C   UNL     1       5.258   5.111  17.312  0.00  0.00    +0.000 A 
ATOM      2  C   UNL     1       4.962   6.145  18.234  0.00  0.00    +0.000 A 
ATOM      3  C   UNL     1       3.590   6.187  18.345  0.00  0.00    +0.000 A 
ATOM      4  N   UNL     1       3.139   5.167  17.541  0.00  0.00    +0.000 N 
ATOM      5  N   UNL     1       4.125   4.547  16.860  0.00  0.00    +0.000 NA
ENDROOT
BRANCH   3   6
ATOM      6  N   UNL     1       2.825   7.069  19.117  0.00  0.00    +0.000 N 
ATOM      7  C   UNL     1       2.153   8.170  18.528  0.00  0.00    +0.000 C 
ATOM      8  O   UNL     1       2.251   8.352  17.324  0.00  0.00    +0.000 OA
ATOM      9  N   UNL     1       1.508   8.961  19.439  0.00  0.00    +0.000 N 
ATOM     10  H   UNL     1       2.790   6.914  20.129  0.00  0.00    +0.000 HD
ATOM     11  H   UNL     1       1.721   8.868  20.423  0.00  0.00    +0.000 HD
BRANCH   9  12
ATOM     12  C   UNL     1       0.684  10.046  19.037  0.00  0.00    +0.000 A 
ATOM     13  C   UNL     1       1.029  11.377  19.327  0.00  0.00    +0.000 A 
ATOM     14  C   UNL     1       0.220  12.441  18.949  0.00  0.00    +0.000 A 
ATOM     15  C   UNL     1      -0.955  12.195  18.259  0.00  0.00    +0.000 A 
ATOM     16  C   UNL     1      -1.332  10.880  17.945  0.00  0.00    +0.000 A 
ATOM     17  C   UNL     1      -0.497   9.806  18.329  0.00  0.00    +0.000 A 
BRANCH  16  18
ATOM     18  C   UNL     1      -2.628  10.624  17.214  0.00  0.00    +0.000 C 
ATOM     19  F   UNL     1      -3.480   9.798  17.883  0.00  0.00    +0.000 F 
ATOM     20  F   UNL     1      -3.322  11.771  16.979  0.00  0.00    +0.000 F 
ATOM     21  F   UNL     1      -2.428  10.050  15.996  0.00  0.00    +0.000 F 
ENDBRANCH  16  18
ENDBRANCH   9  12
ENDBRANCH   3   6
BRANCH   1  22
ATOM     22  C   UNL     1       6.600   4.747  16.835  0.00  0.00    +0.000 C 
ATOM     23  O   UNL     1       7.622   5.201  17.333  0.00  0.00    +0.000 OA
BRANCH  22  24
ATOM     24  O   UNL     1       6.561   3.952  15.728  0.00  0.00    +0.000 OA
BRANCH  24  26
ATOM     25  C   UNL     1       6.002   3.810  13.417  0.00  0.00    +0.000 C 
ATOM     26  C   UNL     1       6.707   4.635  14.481  0.00  0.00    +0.000 C 
ENDBRANCH  24  26
ENDBRANCH  22  24
ENDBRANCH   1  22
BRANCH   4  27
ATOM     27  C   UNL     1       1.803   4.614  17.388  0.00  0.00    +0.000 C 
BRANCH  27  28
ATOM     28  C   UNL     1       1.634   3.160  17.834  0.00  0.00    +0.000 C 
BRANCH  28  29
ATOM     29  C   UNL     1       1.921   2.943  19.297  0.00  0.00    +0.000 A 
ATOM     30  C   UNL     1       3.204   2.540  19.705  0.00  0.00    +0.000 A 
ATOM     31  C   UNL     1       3.480   2.314  21.055  0.00  0.00    +0.000 A 
ATOM     32  C   UNL     1       2.484   2.494  22.010  0.00  0.00    +0.000 A 
ATOM     33  C   UNL     1       1.210   2.899  21.620  0.00  0.00    +0.000 A 
ATOM     34  C   UNL     1       0.929   3.124  20.272  0.00  0.00    +0.000 A 
ENDBRANCH  28  29
BRANCH  28  35
ATOM     35  O   UNL     1       2.486   2.296  17.054  0.00  0.00    +0.000 OA
ATOM     36  H   UNL     1       2.950   1.707  17.684  0.00  0.00    +0.000 HD
ENDBRANCH  28  35
ENDBRANCH  27  28
ENDBRANCH   4  27
TORSDOF 10
ENDMDL
MODEL 3
REMARK VINA RESULT:      -8.5      0.842      1.741
REMARK  Name = 
REMARK  11 active torsions:
REMARK  status: ('A' for Active; 'I' for Inactive)
REMARK    1  A    between atoms: C_1  and  C_2
REMARK    2  A    between atoms: C_2  and  O_3
REMARK    3  A    between atoms: O_3  and  C_4
REMARK    4  A    between atoms: C_4  and  C_6
REMARK    5  A    between atoms: C_8  and  N_9
REMARK    6  A    between atoms: N_12  and  C_13
REMARK    7  A    between atoms: C_17  and  C_18
REMARK    8  A    between atoms: N_23  and  C_24
REMARK    9  A    between atoms: C_24  and  C_25
REMARK   10  A    between atoms: C_25  and  O_26
REMARK   11  A    between atoms: C_25  and  C_27
REMARK                            x       y       z     vdW  Elec       q    Type
REMARK                         _______ _______ _______ _____ _____    ______ ____
ROOT
ATOM      1  C   UNL     1       5.755   5.723  16.938  0.00  0.00    +0.000 A 
ATOM      2  C   UNL     1       5.132   6.625  17.835  0.00  0.00    +0.000 A 
ATOM      3  C   UNL     1       3.815   6.235  17.929  0.00  0.00    +0.000 A 
ATOM      4  N   UNL     1       3.721   5.113  17.139  0.00  0.00    +0.000 N 
ATOM      5  N   UNL     1       4.864   4.824  16.483  0.00  0.00    +0.000 NA
ENDROOT
BRANCH   3   6
ATOM      6  N   UNL     1       2.798   6.842  18.674  0.00  0.00    +0.000 N 
ATOM      7  C   UNL     1       2.250   8.092  18.289  0.00  0.00    +0.000 C 
ATOM      8  O   UNL     1       2.680   8.650  17.290  0.00  0.00    +0.000 OA
ATOM      9  N   UNL     1       1.314   8.566  19.167  0.00  0.00    +0.000 N 
ATOM     10  H   UNL     1       2.481   6.372  19.527  0.00  0.00    +0.000 HD
ATOM     11  H   UNL     1       1.236   8.156  20.088  0.00  0.00    +0.000 HD
BRANCH   9  12
ATOM     12  C   UNL     1       0.567   9.745  18.901  0.00  0.00    +0.000 A 
ATOM     13  C   UNL     1       0.941  10.989  19.436  0.00  0.00    +0.000 A 
ATOM     14  C   UNL     1       0.207  12.142  19.190  0.00  0.00    +0.000 A 
ATOM     15  C   UNL     1      -0.921  12.077  18.390  0.00  0.00    +0.000 A 
ATOM     16  C   UNL     1      -1.325  10.854  17.831  0.00  0.00    +0.000 A 
ATOM     17  C   UNL     1      -0.566   9.689  18.083  0.00  0.00    +0.000 A 
BRANCH  16  18
ATOM     18  C   UNL     1      -2.570  10.794  16.980  0.00  0.00    +0.000 C 
ATOM     19  F   UNL     1      -2.329  10.933  15.646  0.00  0.00    +0.000 F 
ATOM     20  F   UNL     1      -3.234   9.615  17.121  0.00  0.00    +0.000 F 
ATOM     21  F   UNL     1      -3.463  11.769  17.303  0.00  0.00    +0.000 F 
ENDBRANCH  16  18
ENDBRANCH   9  12
ENDBRANCH   3   6
BRANCH   1  22
ATOM     22  C   UNL     1       7.151   5.793  16.484  0.00  0.00    +0.000 C 
ATOM     23  O   UNL     1       7.782   4.802  16.139  0.00  0.00    +0.000 OA
BRANCH  22  24
ATOM     24  O   UNL     1       7.674   7.046  16.601  0.00  0.00    +0.000 OA
BRANCH  24  26
ATOM     25  C   UNL     1       8.254   8.965  17.887  0.00  0.00    +0.000 C 
ATOM     26  C   UNL     1       7.913   7.486  17.940  0.00  0.00    +0.000 C 
ENDBRANCH  24  26
ENDBRANCH  22  24
ENDBRANCH   1  22
BRANCH   4  27
ATOM     27  C   UNL     1       2.630   4.166  16.981  0.00  0.00    +0.000 C 
BRANCH  27  28
ATOM     28  C   UNL     1       2.825   2.811  17.665  0.00  0.00    +0.000 C 
BRANCH  28  29
ATOM     29  C   UNL     1       2.416   2.807  19.116  0.00  0.00    +0.000 A 
ATOM     30  C   UNL     1       1.095   3.130  19.471  0.00  0.00    +0.000 A 
ATOM     31  C   UNL     1       0.707   3.152  20.811  0.00  0.00    +0.000 A 
ATOM     32  C   UNL     1       1.629   2.846  21.809  0.00  0.00    +0.000 A 
ATOM     33  C   UNL     1       2.939   2.519  21.471  0.00  0.00    +0.000 A 
ATOM     34  C   UNL     1       3.332   2.497  20.132  0.00  0.00    +0.000 A 
ENDBRANCH  28  29
BRANCH  28  35
ATOM     35  O   UNL     1       4.201   2.394  17.564  0.00  0.00    +0.000 OA
ATOM     36  H   UNL     1       4.374   2.203  16.619  0.00  0.00    +0.000 HD
ENDBRANCH  28  35
ENDBRANCH  27  28
ENDBRANCH   4  27
TORSDOF 10
ENDMDL
MODEL 4
REMARK VINA RESULT:      -8.4      1.676      2.262
REMARK  Name = 
REMARK  11 active torsions:
REMARK  status: ('A' for Active; 'I' for Inactive)
REMARK    1  A    between atoms: C_1  and  C_2
REMARK    2  A    between atoms: C_2  and  O_3
REMARK    3  A    between atoms: O_3  and  C_4
REMARK    4  A    between atoms: C_4  and  C_6
REMARK    5  A    between atoms: C_8  and  N_9
REMARK    6  A    between atoms: N_12  and  C_13
REMARK    7  A    between atoms: C_17  and  C_18
REMARK    8  A    between atoms: N_23  and  C_24
REMARK    9  A    between atoms: C_24  and  C_25
REMARK   10  A    between atoms: C_25  and  O_26
REMARK   11  A    between atoms: C_25  and  C_27
REMARK                            x       y       z     vdW  Elec       q    Type
REMARK                         _______ _______ _______ _____ _____    ______ ____
ROOT
ATOM      1  C   UNL     1       5.668   4.932  15.201  0.00  0.00    +0.000 A 
ATOM      2  C   UNL     1       5.318   6.290  15.400  0.00  0.00    +0.000 A 
ATOM      3  C   UNL     1       4.942   6.407  16.720  0.00  0.00    +0.000 A 
ATOM      4  N   UNL     1       5.125   5.152  17.252  0.00  0.00    +0.000 N 
ATOM      5  N   UNL     1       5.501   4.234  16.338  0.00  0.00    +0.000 NA
ENDROOT
BRANCH   3   6
ATOM      6  N   UNL     1       4.484   7.555  17.376  0.00  0.00    +0.000 N 
ATOM      7  C   UNL     1       3.121   7.701  17.738  0.00  0.00    +0.000 C 
ATOM      8  O   UNL     1       2.333   6.809  17.466  0.00  0.00    +0.000 OA
ATOM      9  N   UNL     1       2.840   8.911  18.312  0.00  0.00    +0.000 N 
ATOM     10  H   UNL     1       5.158   8.304  17.560  0.00  0.00    +0.000 HD
ATOM     11  H   UNL     1       3.507   9.668  18.240  0.00  0.00    +0.000 HD
BRANCH   9  12
ATOM     12  C   UNL     1       1.558   9.206  18.848  0.00  0.00    +0.000 A 
ATOM     13  C   UNL     1       1.253   8.969  20.199  0.00  0.00    +0.000 A 
ATOM     14  C   UNL     1      -0.003   9.243  20.724  0.00  0.00    +0.000 A 
ATOM     15  C   UNL     1      -0.986   9.773  19.906  0.00  0.00    +0.000 A 
ATOM     16  C   UNL     1      -0.719  10.031  18.552  0.00  0.00    +0.000 A 
ATOM     17  C   UNL     1       0.565   9.754  18.030  0.00  0.00    +0.000 A 
BRANCH  16  18
ATOM     18  C   UNL     1      -1.808  10.586  17.665  0.00  0.00    +0.000 C 
ATOM     19  F   UNL     1      -1.708  11.928  17.452  0.00  0.00    +0.000 F 
ATOM     20  F   UNL     1      -1.814  10.009  16.434  0.00  0.00    +0.000 F 
ATOM     21  F   UNL     1      -3.050  10.381  18.184  0.00  0.00    +0.000 F 
ENDBRANCH  16  18
ENDBRANCH   9  12
ENDBRANCH   3   6
BRANCH   1  22
ATOM     22  C   UNL     1       6.071   4.329  13.923  0.00  0.00    +0.000 C 
ATOM     23  O   UNL     1       7.206   4.428  13.476  0.00  0.00    +0.000 OA
BRANCH  22  24
ATOM     24  O   UNL     1       5.022   3.759  13.263  0.00  0.00    +0.000 OA
BRANCH  24  26
ATOM     25  C   UNL     1       3.978   3.110  11.224  0.00  0.00    +0.000 C 
ATOM     26  C   UNL     1       5.305   3.320  11.932  0.00  0.00    +0.000 C 
ENDBRANCH  24  26
ENDBRANCH  22  24
ENDBRANCH   1  22
BRANCH   4  27
ATOM     27  C   UNL     1       5.062   4.701  18.632  0.00  0.00    +0.000 C 
BRANCH  27  28
ATOM     28  C   UNL     1       4.491   3.297  18.845  0.00  0.00    +0.000 C 
BRANCH  28  29
ATOM     29  C   UNL     1       3.031   3.293  19.220  0.00  0.00    +0.000 A 
ATOM     30  C   UNL     1       2.591   4.043  20.324  0.00  0.00    +0.000 A 
ATOM     31  C   UNL     1       1.246   4.033  20.697  0.00  0.00    +0.000 A 
ATOM     32  C   UNL     1       0.327   3.281  19.971  0.00  0.00    +0.000 A 
ATOM     33  C   UNL     1       0.748   2.538  18.872  0.00  0.00    +0.000 A 
ATOM     34  C   UNL     1       2.092   2.544  18.495  0.00  0.00    +0.000 A 
ENDBRANCH  28  29
BRANCH  28  35
ATOM     35  O   UNL     1       5.240   2.602  19.863  0.00  0.00    +0.000 OA
ATOM     36  H   UNL     1       5.889   3.238  20.225  0.00  0.00    +0.000 HD
ENDBRANCH  28  35
ENDBRANCH  27  28
ENDBRANCH   4  27
TORSDOF 10
ENDMDL
MODEL 5
REMARK VINA RESULT:      -8.2      4.888     10.279
REMARK  Name = 
REMARK  11 active torsions:
REMARK  status: ('A' for Active; 'I' for Inactive)
REMARK    1  A    between atoms: C_1  and  C_2
REMARK    2  A    between atoms: C_2  and  O_3
REMARK    3  A    between atoms: O_3  and  C_4
REMARK    4  A    between atoms: C_4  and  C_6
REMARK    5  A    between atoms: C_8  and  N_9
REMARK    6  A    between atoms: N_12  and  C_13
REMARK    7  A    between atoms: C_17  and  C_18
REMARK    8  A    between atoms: N_23  and  C_24
REMARK    9  A    between atoms: C_24  and  C_25
REMARK   10  A    between atoms: C_25  and  O_26
REMARK   11  A    between atoms: C_25  and  C_27
REMARK                            x       y       z     vdW  Elec       q    Type
REMARK                         _______ _______ _______ _____ _____    ______ ____
ROOT
ATOM      1  C   UNL     1      -2.193  12.032  22.805  0.00  0.00    +0.000 A 
ATOM      2  C   UNL     1      -1.344  10.970  23.203  0.00  0.00    +0.000 A 
ATOM      3  C   UNL     1      -0.397  10.835  22.212  0.00  0.00    +0.000 A 
ATOM      4  N   UNL     1      -0.686  11.831  21.309  0.00  0.00    +0.000 N 
ATOM      5  N   UNL     1      -1.803  12.523  21.616  0.00  0.00    +0.000 NA
ENDROOT
BRANCH   3   6
ATOM      6  N   UNL     1       0.639   9.896  22.146  0.00  0.00    +0.000 N 
ATOM      7  C   UNL     1       0.610   8.835  21.206  0.00  0.00    +0.000 C 
ATOM      8  O   UNL     1      -0.340   8.738  20.444  0.00  0.00    +0.000 OA
ATOM      9  N   UNL     1       1.669   7.977  21.326  0.00  0.00    +0.000 N 
ATOM     10  H   UNL     1       1.406   9.978  22.820  0.00  0.00    +0.000 HD
ATOM     11  H   UNL     1       2.243   8.001  22.158  0.00  0.00    +0.000 HD
BRANCH   9  12
ATOM     12  C   UNL     1       1.883   6.917  20.405  0.00  0.00    +0.000 A 
ATOM     13  C   UNL     1       2.448   7.146  19.139  0.00  0.00    +0.000 A 
ATOM     14  C   UNL     1       2.646   6.115  18.229  0.00  0.00    +0.000 A 
ATOM     15  C   UNL     1       2.289   4.822  18.571  0.00  0.00    +0.000 A 
ATOM     16  C   UNL     1       1.727   4.551  19.829  0.00  0.00    +0.000 A 
ATOM     17  C   UNL     1       1.536   5.607  20.749  0.00  0.00    +0.000 A 
BRANCH  16  18
ATOM     18  C   UNL     1       1.319   3.140  20.180  0.00  0.00    +0.000 C 
ATOM     19  F   UNL     1       2.299   2.218  19.963  0.00  0.00    +0.000 F 
ATOM     20  F   UNL     1       0.968   3.016  21.488  0.00  0.00    +0.000 F 
ATOM     21  F   UNL     1       0.243   2.720  19.459  0.00  0.00    +0.000 F 
ENDBRANCH  16  18
ENDBRANCH   9  12
ENDBRANCH   3   6
BRANCH   1  22
ATOM     22  C   UNL     1      -3.388  12.489  23.527  0.00  0.00    +0.000 C 
ATOM     23  O   UNL     1      -3.948  11.806  24.375  0.00  0.00    +0.000 OA
BRANCH  22  24
ATOM     24  O   UNL     1      -3.847  13.688  23.068  0.00  0.00    +0.000 OA
BRANCH  24  26
ATOM     25  C   UNL     1      -5.539  15.141  23.904  0.00  0.00    +0.000 C 
ATOM     26  C   UNL     1      -4.105  14.670  24.075  0.00  0.00    +0.000 C 
ENDBRANCH  24  26
ENDBRANCH  22  24
ENDBRANCH   1  22
BRANCH   4  27
ATOM     27  C   UNL     1       0.063  12.295  20.153  0.00  0.00    +0.000 C 
BRANCH  27  28
ATOM     28  C   UNL     1      -0.778  12.795  18.976  0.00  0.00    +0.000 C 
BRANCH  28  29
ATOM     29  C   UNL     1      -1.673  11.735  18.386  0.00  0.00    +0.000 A 
ATOM     30  C   UNL     1      -1.108  10.630  17.727  0.00  0.00    +0.000 A 
ATOM     31  C   UNL     1      -1.924   9.652  17.156  0.00  0.00    +0.000 A 
ATOM     32  C   UNL     1      -3.309   9.762  17.244  0.00  0.00    +0.000 A 
ATOM     33  C   UNL     1      -3.882  10.849  17.899  0.00  0.00    +0.000 A 
ATOM     34  C   UNL     1      -3.070  11.830  18.469  0.00  0.00    +0.000 A 
ENDBRANCH  28  29
BRANCH  28  35
ATOM     35  O   UNL     1       0.077  13.319  17.938  0.00  0.00    +0.000 OA
ATOM     36  H   UNL     1       0.331  12.564  17.369  0.00  0.00    +0.000 HD
ENDBRANCH  28  35
ENDBRANCH  27  28
ENDBRANCH   4  27
TORSDOF 10
ENDMDL
MODEL 6
REMARK VINA RESULT:      -8.2      2.080      2.762
REMARK  Name = 
REMARK  11 active torsions:
REMARK  status: ('A' for Active; 'I' for Inactive)
REMARK    1  A    between atoms: C_1  and  C_2
REMARK    2  A    between atoms: C_2  and  O_3
REMARK    3  A    between atoms: O_3  and  C_4
REMARK    4  A    between atoms: C_4  and  C_6
REMARK    5  A    between atoms: C_8  and  N_9
REMARK    6  A    between atoms: N_12  and  C_13
REMARK    7  A    between atoms: C_17  and  C_18
REMARK    8  A    between atoms: N_23  and  C_24
REMARK    9  A    between atoms: C_24  and  C_25
REMARK   10  A    between atoms: C_25  and  O_26
REMARK   11  A    between atoms: C_25  and  C_27
REMARK                            x       y       z     vdW  Elec       q    Type
REMARK                         _______ _______ _______ _____ _____    ______ ____
ROOT
ATOM      1  C   UNL     1       6.130   4.729  15.609  0.00  0.00    +0.000 A 
ATOM      2  C   UNL     1       4.901   5.427  15.696  0.00  0.00    +0.000 A 
ATOM      3  C   UNL     1       4.380   5.147  16.939  0.00  0.00    +0.000 A 
ATOM      4  N   UNL     1       5.323   4.350  17.547  0.00  0.00    +0.000 N 
ATOM      5  N   UNL     1       6.356   4.035  16.739  0.00  0.00    +0.000 NA
ENDROOT
BRANCH   3   6
ATOM      6  N   UNL     1       3.162   5.586  17.471  0.00  0.00    +0.000 N 
ATOM      7  C   UNL     1       3.096   6.726  18.313  0.00  0.00    +0.000 C 
ATOM      8  O   UNL     1       4.123   7.330  18.582  0.00  0.00    +0.000 OA
ATOM      9  N   UNL     1       1.838   6.971  18.793  0.00  0.00    +0.000 N 
ATOM     10  H   UNL     1       2.321   5.041  17.261  0.00  0.00    +0.000 HD
ATOM     11  H   UNL     1       1.127   6.256  18.725  0.00  0.00    +0.000 HD
BRANCH   9  12
ATOM     12  C   UNL     1       1.542   8.130  19.560  0.00  0.00    +0.000 A 
ATOM     13  C   UNL     1       1.437   8.078  20.960  0.00  0.00    +0.000 A 
ATOM     14  C   UNL     1       1.135   9.206  21.712  0.00  0.00    +0.000 A 
ATOM     15  C   UNL     1       0.939  10.420  21.077  0.00  0.00    +0.000 A 
ATOM     16  C   UNL     1       1.040  10.514  19.680  0.00  0.00    +0.000 A 
ATOM     17  C   UNL     1       1.355   9.362  18.925  0.00  0.00    +0.000 A 
BRANCH  16  18
ATOM     18  C   UNL     1       0.800  11.840  18.998  0.00  0.00    +0.000 C 
ATOM     19  F   UNL     1       0.718  12.892  19.860  0.00  0.00    +0.000 F 
ATOM     20  F   UNL     1       1.787  12.152  18.116  0.00  0.00    +0.000 F 
ATOM     21  F   UNL     1      -0.360  11.849  18.284  0.00  0.00    +0.000 F 
ENDBRANCH  16  18
ENDBRANCH   9  12
ENDBRANCH   3   6
BRANCH   1  22
ATOM     22  C   UNL     1       7.008   4.682  14.431  0.00  0.00    +0.000 C 
ATOM     23  O   UNL     1       7.766   5.597  14.137  0.00  0.00    +0.000 OA
BRANCH  22  24
ATOM     24  O   UNL     1       6.795   3.572  13.668  0.00  0.00    +0.000 OA
BRANCH  24  26
ATOM     25  C   UNL     1       5.099   3.356  12.011  0.00  0.00    +0.000 C 
ATOM     26  C   UNL     1       6.517   3.824  12.289  0.00  0.00    +0.000 C 
ENDBRANCH  24  26
ENDBRANCH  22  24
ENDBRANCH   1  22
BRANCH   4  27
ATOM     27  C   UNL     1       5.413   3.886  18.921  0.00  0.00    +0.000 C 
BRANCH  27  28
ATOM     28  C   UNL     1       4.631   2.609  19.241  0.00  0.00    +0.000 C 
BRANCH  28  29
ATOM     29  C   UNL     1       3.165   2.851  19.492  0.00  0.00    +0.000 A 
ATOM     30  C   UNL     1       2.765   3.682  20.553  0.00  0.00    +0.000 A 
ATOM     31  C   UNL     1       1.411   3.898  20.812  0.00  0.00    +0.000 A 
ATOM     32  C   UNL     1       0.443   3.295  20.014  0.00  0.00    +0.000 A 
ATOM     33  C   UNL     1       0.825   2.474  18.956  0.00  0.00    +0.000 A 
ATOM     34  C   UNL     1       2.178   2.254  18.694  0.00  0.00    +0.000 A 
ENDBRANCH  28  29
BRANCH  28  35
ATOM     35  O   UNL     1       5.202   1.949  20.389  0.00  0.00    +0.000 OA
ATOM     36  H   UNL     1       4.941   2.468  21.177  0.00  0.00    +0.000 HD
ENDBRANCH  28  35
ENDBRANCH  27  28
ENDBRANCH   4  27
TORSDOF 10
ENDMDL
MODEL 7
REMARK VINA RESULT:      -8.2      5.644      7.010
REMARK  Name = 
REMARK  11 active torsions:
REMARK  status: ('A' for Active; 'I' for Inactive)
REMARK    1  A    between atoms: C_1  and  C_2
REMARK    2  A    between atoms: C_2  and  O_3
REMARK    3  A    between atoms: O_3  and  C_4
REMARK    4  A    between atoms: C_4  and  C_6
REMARK    5  A    between atoms: C_8  and  N_9
REMARK    6  A    between atoms: N_12  and  C_13
REMARK    7  A    between atoms: C_17  and  C_18
REMARK    8  A    between atoms: N_23  and  C_24
REMARK    9  A    between atoms: C_24  and  C_25
REMARK   10  A    between atoms: C_25  and  O_26
REMARK   11  A    between atoms: C_25  and  C_27
REMARK                            x       y       z     vdW  Elec       q    Type
REMARK                         _______ _______ _______ _____ _____    ______ ____
ROOT
ATOM      1  C   UNL     1       6.699   5.082  15.658  0.00  0.00    +0.000 A 
ATOM      2  C   UNL     1       7.697   5.901  16.242  0.00  0.00    +0.000 A 
ATOM      3  C   UNL     1       7.306   6.127  17.542  0.00  0.00    +0.000 A 
ATOM      4  N   UNL     1       6.141   5.411  17.691  0.00  0.00    +0.000 N 
ATOM      5  N   UNL     1       5.724   4.826  16.548  0.00  0.00    +0.000 NA
ENDROOT
BRANCH   3   6
ATOM      6  N   UNL     1       7.957   6.907  18.504  0.00  0.00    +0.000 N 
ATOM      7  C   UNL     1       8.258   8.272  18.265  0.00  0.00    +0.000 C 
ATOM      8  O   UNL     1       7.946   8.772  17.195  0.00  0.00    +0.000 OA
ATOM      9  N   UNL     1       8.953   8.860  19.286  0.00  0.00    +0.000 N 
ATOM     10  H   UNL     1       8.241   6.454  19.378  0.00  0.00    +0.000 HD
ATOM     11  H   UNL     1       9.389   8.285  19.993  0.00  0.00    +0.000 HD
BRANCH   9  12
ATOM     12  C   UNL     1       9.248  10.250  19.287  0.00  0.00    +0.000 A 
ATOM     13  C   UNL     1       9.671  10.913  18.122  0.00  0.00    +0.000 A 
ATOM     14  C   UNL     1       9.974  12.268  18.121  0.00  0.00    +0.000 A 
ATOM     15  C   UNL     1       9.851  12.998  19.292  0.00  0.00    +0.000 A 
ATOM     16  C   UNL     1       9.426  12.374  20.475  0.00  0.00    +0.000 A 
ATOM     17  C   UNL     1       9.114  10.995  20.463  0.00  0.00    +0.000 A 
BRANCH  16  18
ATOM     18  C   UNL     1       9.319  13.176  21.750  0.00  0.00    +0.000 C 
ATOM     19  F   UNL     1       8.158  13.880  21.858  0.00  0.00    +0.000 F 
ATOM     20  F   UNL     1       9.389  12.392  22.859  0.00  0.00    +0.000 F 
ATOM     21  F   UNL     1      10.323  14.088  21.870  0.00  0.00    +0.000 F 
ENDBRANCH  16  18
ENDBRANCH   9  12
ENDBRANCH   3   6
BRANCH   1  22
ATOM     22  C   UNL     1       6.665   4.639  14.257  0.00  0.00    +0.000 C 
ATOM     23  O   UNL     1       7.316   5.187  13.377  0.00  0.00    +0.000 OA
BRANCH  22  24
ATOM     24  O   UNL     1       5.758   3.642  14.049  0.00  0.00    +0.000 OA
BRANCH  24  26
ATOM     25  C   UNL     1       5.695   2.606  11.906  0.00  0.00    +0.000 C 
ATOM     26  C   UNL     1       5.086   3.683  12.788  0.00  0.00    +0.000 C 
ENDBRANCH  24  26
ENDBRANCH  22  24
ENDBRANCH   1  22
BRANCH   4  27
ATOM     27  C   UNL     1       5.361   5.125  18.884  0.00  0.00    +0.000 C 
BRANCH  27  28
ATOM     28  C   UNL     1       3.986   5.794  18.953  0.00  0.00    +0.000 C 
BRANCH  28  29
ATOM     29  C   UNL     1       2.860   4.825  19.209  0.00  0.00    +0.000 A 
ATOM     30  C   UNL     1       2.413   3.984  18.176  0.00  0.00    +0.000 A 
ATOM     31  C   UNL     1       1.357   3.098  18.391  0.00  0.00    +0.000 A 
ATOM     32  C   UNL     1       0.742   3.036  19.639  0.00  0.00    +0.000 A 
ATOM     33  C   UNL     1       1.179   3.859  20.673  0.00  0.00    +0.000 A 
ATOM     34  C   UNL     1       2.234   4.748  20.462  0.00  0.00    +0.000 A 
ENDBRANCH  28  29
BRANCH  28  35
ATOM     35  O   UNL     1       3.719   6.513  17.732  0.00  0.00    +0.000 OA
ATOM     36  H   UNL     1       4.144   7.391  17.817  0.00  0.00    +0.000 HD
ENDBRANCH  28  35
ENDBRANCH  27  28
ENDBRANCH   4  27
TORSDOF 10
ENDMDL
MODEL 8
REMARK VINA RESULT:      -8.1      5.921      7.050
REMARK  Name = 
REMARK  11 active torsions:
REMARK  status: ('A' for Active; 'I' for Inactive)
REMARK    1  A    between atoms: C_1  and  C_2
REMARK    2  A    between atoms: C_2  and  O_3
REMARK    3  A    between atoms: O_3  and  C_4
REMARK    4  A    between atoms: C_4  and  C_6
REMARK    5  A    between atoms: C_8  and  N_9
REMARK    6  A    between atoms: N_12  and  C_13
REMARK    7  A    between atoms: C_17  and  C_18
REMARK    8  A    between atoms: N_23  and  C_24
REMARK    9  A    between atoms: C_24  and  C_25
REMARK   10  A    between atoms: C_25  and  O_26
REMARK   11  A    between atoms: C_25  and  C_27
REMARK                            x       y       z     vdW  Elec       q    Type
REMARK                         _______ _______ _______ _____ _____    ______ ____
ROOT
ATOM      1  C   UNL     1       6.523   4.472  15.050  0.00  0.00    +0.000 A 
ATOM      2  C   UNL     1       7.391   5.420  15.647  0.00  0.00    +0.000 A 
ATOM      3  C   UNL     1       7.020   5.510  16.970  0.00  0.00    +0.000 A 
ATOM      4  N   UNL     1       6.001   4.596  17.115  0.00  0.00    +0.000 N 
ATOM      5  N   UNL     1       5.644   4.006  15.955  0.00  0.00    +0.000 NA
ENDROOT
BRANCH   3   6
ATOM      6  N   UNL     1       7.568   6.340  17.954  0.00  0.00    +0.000 N 
ATOM      7  C   UNL     1       7.862   7.702  17.686  0.00  0.00    +0.000 C 
ATOM      8  O   UNL     1       7.637   8.153  16.574  0.00  0.00    +0.000 OA
ATOM      9  N   UNL     1       8.453   8.345  18.740  0.00  0.00    +0.000 N 
ATOM     10  H   UNL     1       7.782   5.928  18.867  0.00  0.00    +0.000 HD
ATOM     11  H   UNL     1       8.834   7.807  19.506  0.00  0.00    +0.000 HD
BRANCH   9  12
ATOM     12  C   UNL     1       8.720   9.740  18.711  0.00  0.00    +0.000 A 
ATOM     13  C   UNL     1       8.113  10.585  17.767  0.00  0.00    +0.000 A 
ATOM     14  C   UNL     1       8.381  11.947  17.726  0.00  0.00    +0.000 A 
ATOM     15  C   UNL     1       9.261  12.499  18.641  0.00  0.00    +0.000 A 
ATOM     16  C   UNL     1       9.883  11.689  19.604  0.00  0.00    +0.000 A 
ATOM     17  C   UNL     1       9.598  10.306  19.641  0.00  0.00    +0.000 A 
BRANCH  16  18
ATOM     18  C   UNL     1      10.860  12.300  20.581  0.00  0.00    +0.000 C 
ATOM     19  F   UNL     1      12.052  11.644  20.646  0.00  0.00    +0.000 F 
ATOM     20  F   UNL     1      11.157  13.591  20.273  0.00  0.00    +0.000 F 
ATOM     21  F   UNL     1      10.372  12.319  21.852  0.00  0.00    +0.000 F 
ENDBRANCH  16  18
ENDBRANCH   9  12
ENDBRANCH   3   6
BRANCH   1  22
ATOM     22  C   UNL     1       6.507   4.101  13.628  0.00  0.00    +0.000 C 
ATOM     23  O   UNL     1       7.364   4.477  12.839  0.00  0.00    +0.000 OA
BRANCH  22  24
ATOM     24  O   UNL     1       5.390   3.398  13.286  0.00  0.00    +0.000 OA
BRANCH  24  26
ATOM     25  C   UNL     1       4.070   3.282  11.307  0.00  0.00    +0.000 C 
ATOM     26  C   UNL     1       5.382   2.875  11.956  0.00  0.00    +0.000 C 
ENDBRANCH  24  26
ENDBRANCH  22  24
ENDBRANCH   1  22
BRANCH   4  27
ATOM     27  C   UNL     1       5.332   4.120  18.314  0.00  0.00    +0.000 C 
BRANCH  27  28
ATOM     28  C   UNL     1       4.043   3.328  18.083  0.00  0.00    +0.000 C 
BRANCH  28  29
ATOM     29  C   UNL     1       3.102   3.356  19.260  0.00  0.00    +0.000 A 
ATOM     30  C   UNL     1       1.976   4.196  19.235  0.00  0.00    +0.000 A 
ATOM     31  C   UNL     1       1.108   4.250  20.327  0.00  0.00    +0.000 A 
ATOM     32  C   UNL     1       1.349   3.462  21.449  0.00  0.00    +0.000 A 
ATOM     33  C   UNL     1       2.458   2.621  21.484  0.00  0.00    +0.000 A 
ATOM     34  C   UNL     1       3.330   2.565  20.396  0.00  0.00    +0.000 A 
ENDBRANCH  28  29
BRANCH  28  35
ATOM     35  O   UNL     1       4.351   1.957  17.759  0.00  0.00    +0.000 OA
ATOM     36  H   UNL     1       4.636   1.940  16.823  0.00  0.00    +0.000 HD
ENDBRANCH  28  35
ENDBRANCH  27  28
ENDBRANCH   4  27
TORSDOF 10
ENDMDL
MODEL 9
REMARK VINA RESULT:      -8.1      5.638      6.950
REMARK  Name = 
REMARK  11 active torsions:
REMARK  status: ('A' for Active; 'I' for Inactive)
REMARK    1  A    between atoms: C_1  and  C_2
REMARK    2  A    between atoms: C_2  and  O_3
REMARK    3  A    between atoms: O_3  and  C_4
REMARK    4  A    between atoms: C_4  and  C_6
REMARK    5  A    between atoms: C_8  and  N_9
REMARK    6  A    between atoms: N_12  and  C_13
REMARK    7  A    between atoms: C_17  and  C_18
REMARK    8  A    between atoms: N_23  and  C_24
REMARK    9  A    between atoms: C_24  and  C_25
REMARK   10  A    between atoms: C_25  and  O_26
REMARK   11  A    between atoms: C_25  and  C_27
REMARK                            x       y       z     vdW  Elec       q    Type
REMARK                         _______ _______ _______ _____ _____    ______ ____
ROOT
ATOM      1  C   UNL     1       6.697   5.136  15.499  0.00  0.00    +0.000 A 
ATOM      2  C   UNL     1       7.672   5.951  16.126  0.00  0.00    +0.000 A 
ATOM      3  C   UNL     1       7.253   6.129  17.426  0.00  0.00    +0.000 A 
ATOM      4  N   UNL     1       6.098   5.390  17.530  0.00  0.00    +0.000 N 
ATOM      5  N   UNL     1       5.712   4.834  16.363  0.00  0.00    +0.000 NA
ENDROOT
BRANCH   3   6
ATOM      6  N   UNL     1       7.874   6.888  18.424  0.00  0.00    +0.000 N 
ATOM      7  C   UNL     1       8.227   8.244  18.205  0.00  0.00    +0.000 C 
ATOM      8  O   UNL     1       7.988   8.755  17.121  0.00  0.00    +0.000 OA
ATOM      9  N   UNL     1       8.883   8.810  19.264  0.00  0.00    +0.000 N 
ATOM     10  H   UNL     1       8.098   6.426  19.311  0.00  0.00    +0.000 HD
ATOM     11  H   UNL     1       9.263   8.221  19.992  0.00  0.00    +0.000 HD
BRANCH   9  12
ATOM     12  C   UNL     1       9.218  10.191  19.285  0.00  0.00    +0.000 A 
ATOM     13  C   UNL     1       9.682  10.853  18.136  0.00  0.00    +0.000 A 
ATOM     14  C   UNL     1      10.024  12.199  18.155  0.00  0.00    +0.000 A 
ATOM     15  C   UNL     1       9.900  12.920  19.330  0.00  0.00    +0.000 A 
ATOM     16  C   UNL     1       9.434  12.296  20.498  0.00  0.00    +0.000 A 
ATOM     17  C   UNL     1       9.083  10.928  20.466  0.00  0.00    +0.000 A 
BRANCH  16  18
ATOM     18  C   UNL     1       9.327  13.089  21.780  0.00  0.00    +0.000 C 
ATOM     19  F   UNL     1       8.186  13.828  21.872  0.00  0.00    +0.000 F 
ATOM     20  F   UNL     1       9.350  12.292  22.882  0.00  0.00    +0.000 F 
ATOM     21  F   UNL     1      10.356  13.968  21.930  0.00  0.00    +0.000 F 
ENDBRANCH  16  18
ENDBRANCH   9  12
ENDBRANCH   3   6
BRANCH   1  22
ATOM     22  C   UNL     1       6.696   4.737  14.084  0.00  0.00    +0.000 C 
ATOM     23  O   UNL     1       7.461   5.223  13.262  0.00  0.00    +0.000 OA
BRANCH  22  24
ATOM     24  O   UNL     1       5.689   3.866  13.790  0.00  0.00    +0.000 OA
BRANCH  24  26
ATOM     25  C   UNL     1       4.508   3.384  11.779  0.00  0.00    +0.000 C 
ATOM     26  C   UNL     1       5.811   3.193  12.535  0.00  0.00    +0.000 C 
ENDBRANCH  24  26
ENDBRANCH  22  24
ENDBRANCH   1  22
BRANCH   4  27
ATOM     27  C   UNL     1       5.303   5.052  18.699  0.00  0.00    +0.000 C 
BRANCH  27  28
ATOM     28  C   UNL     1       4.738   3.630  18.728  0.00  0.00    +0.000 C 
BRANCH  28  29
ATOM     29  C   UNL     1       3.286   3.569  19.126  0.00  0.00    +0.000 A 
ATOM     30  C   UNL     1       2.288   3.608  18.137  0.00  0.00    +0.000 A 
ATOM     31  C   UNL     1       0.938   3.575  18.490  0.00  0.00    +0.000 A 
ATOM     32  C   UNL     1       0.570   3.495  19.830  0.00  0.00    +0.000 A 
ATOM     33  C   UNL     1       1.548   3.449  20.819  0.00  0.00    +0.000 A 
ATOM     34  C   UNL     1       2.899   3.484  20.471  0.00  0.00    +0.000 A 
ENDBRANCH  28  29
BRANCH  28  35
ATOM     35  O   UNL     1       5.507   2.806  19.629  0.00  0.00    +0.000 OA
ATOM     36  H   UNL     1       5.033   1.953  19.711  0.00  0.00    +0.000 HD
ENDBRANCH  28  35
ENDBRANCH  27  28
ENDBRANCH   4  27
TORSDOF 10
ENDMDL
