MODEL 1
REMARK VINA RESULT:      -7.4      0.000      0.000
REMARK  Name = 
REMARK  6 active torsions:
REMARK  status: ('A' for Active; 'I' for Inactive)
REMARK    1  A    between atoms: C_1  and  C_2
REMARK    2  A    between atoms: C_2  and  C_17
REMARK    3  A    between atoms: N_3  and  N_4
REMARK    4  A    between atoms: N_7  and  N_8
REMARK    5  A    between atoms: C_9  and  C_10
REMARK    6  A    between atoms: C_9  and  C_11
REMARK                            x       y       z     vdW  Elec       q    Type
REMARK                         _______ _______ _______ _____ _____    ______ ____
ROOT
ATOM      1  N   UNL     1       8.589   8.404  18.748  0.00  0.00    +0.000 N 
ATOM      2  C   UNL     1       8.684   9.785  18.565  0.00  0.00    +0.000 C 
ATOM      3  O   UNL     1       8.213  10.384  17.601  0.00  0.00    +0.000 OA
ATOM      4  N   UNL     1       9.363  10.407  19.616  0.00  0.00    +0.000 N 
ATOM      5  H   UNL     1       8.969   7.980  19.576  0.00  0.00    +0.000 HD
ATOM      6  H   UNL     1       9.820   9.858  20.326  0.00  0.00    +0.000 HD
ENDROOT
BRANCH   1   9
ATOM      7  C   UNL     1       7.785   5.673  19.355  0.00  0.00    +0.000 C 
ATOM      8  C   UNL     1       7.557   6.430  18.063  0.00  0.00    +0.000 C 
ATOM      9  N   UNL     1       7.929   7.655  17.820  0.00  0.00    +0.000 NA
BRANCH   8  10
ATOM     10  C   UNL     1       6.830   5.673  16.985  0.00  0.00    +0.000 A 
ATOM     11  C   UNL     1       5.607   5.063  17.246  0.00  0.00    +0.000 A 
ATOM     12  C   UNL     1       4.971   4.382  16.210  0.00  0.00    +0.000 A 
ATOM     13  C   UNL     1       5.572   4.328  14.957  0.00  0.00    +0.000 A 
ATOM     14  C   UNL     1       6.792   4.961  14.788  0.00  0.00    +0.000 A 
ATOM     15  N   UNL     1       7.437   5.631  15.770  0.00  0.00    +0.000 NA
ENDBRANCH   8  10
ENDBRANCH   1   9
BRANCH   4  16
ATOM     16  N   UNL     1       9.543  11.756  19.567  0.00  0.00    +0.000 NA
ATOM     17  C   UNL     1      10.712  12.303  19.398  0.00  0.00    +0.000 C 
ATOM     18  C   UNL     1      12.028  11.570  19.262  0.00  0.00    +0.000 C 
BRANCH  17  19
ATOM     19  C   UNL     1      10.782  13.804  19.341  0.00  0.00    +0.000 A 
ATOM     20  C   UNL     1      11.961  14.463  19.676  0.00  0.00    +0.000 A 
ATOM     21  C   UNL     1      11.986  15.853  19.621  0.00  0.00    +0.000 A 
ATOM     22  C   UNL     1      10.840  16.538  19.235  0.00  0.00    +0.000 A 
ATOM     23  C   UNL     1       9.711  15.801  18.916  0.00  0.00    +0.000 A 
ATOM     24  N   UNL     1       9.651  14.450  18.958  0.00  0.00    +0.000 NA
ENDBRANCH  17  19
ENDBRANCH   4  16
TORSDOF 4
ENDMDL
MODEL 2
REMARK VINA RESULT:      -7.4      0.330      9.370
REMARK  Name = 
REMARK  6 active torsions:
REMARK  status: ('A' for Active; 'I' for Inactive)
REMARK    1  A    between atoms: C_1  and  C_2
REMARK    2  A    between atoms: C_2  and  C_17
REMARK    3  A    between atoms: N_3  and  N_4
REMARK    4  A    between atoms: N_7  and  N_8
REMARK    5  A    between atoms: C_9  and  C_10
REMARK    6  A    between atoms: C_9  and  C_11
REMARK                            x       y       z     vdW  Elec       q    Type
REMARK                         _______ _______ _______ _____ _____    ______ ____
ROOT
ATOM      1  N   UNL     1       9.330  10.453  19.504  0.00  0.00    +0.000 N 
ATOM      2  C   UNL     1       8.647   9.794  18.481  0.00  0.00    +0.000 C 
ATOM      3  O   UNL     1       8.174  10.357  17.496  0.00  0.00    +0.000 OA
ATOM      4  N   UNL     1       8.577   8.415  18.701  0.00  0.00    +0.000 N 
ATOM      5  H   UNL     1       9.720   9.928  20.267  0.00  0.00    +0.000 HD
ATOM      6  H   UNL     1       8.887   8.021  19.574  0.00  0.00    +0.000 HD
ENDROOT
BRANCH   1   9
ATOM      7  C   UNL     1      11.925  11.565  18.792  0.00  0.00    +0.000 C 
ATOM      8  C   UNL     1      10.656  12.328  19.107  0.00  0.00    +0.000 C 
ATOM      9  N   UNL     1       9.506  11.802  19.423  0.00  0.00    +0.000 NA
BRANCH   8  10
ATOM     10  C   UNL     1      10.764  13.827  19.037  0.00  0.00    +0.000 A 
ATOM     11  C   UNL     1      11.670  14.512  19.842  0.00  0.00    +0.000 A 
ATOM     12  C   UNL     1      11.737  15.900  19.732  0.00  0.00    +0.000 A 
ATOM     13  C   UNL     1      10.904  16.555  18.832  0.00  0.00    +0.000 A 
ATOM     14  C   UNL     1      10.031  15.794  18.072  0.00  0.00    +0.000 A 
ATOM     15  N   UNL     1       9.940  14.447  18.153  0.00  0.00    +0.000 NA
ENDBRANCH   8  10
ENDBRANCH   1   9
BRANCH   4  16
ATOM     16  N   UNL     1       7.927   7.642  17.788  0.00  0.00    +0.000 NA
ATOM     17  C   UNL     1       7.563   6.418  18.036  0.00  0.00    +0.000 C 
ATOM     18  C   UNL     1       7.814   5.656  19.318  0.00  0.00    +0.000 C 
BRANCH  17  19
ATOM     19  C   UNL     1       6.833   5.669  16.955  0.00  0.00    +0.000 A 
ATOM     20  C   UNL     1       5.596   5.089  17.218  0.00  0.00    +0.000 A 
ATOM     21  C   UNL     1       4.955   4.396  16.196  0.00  0.00    +0.000 A 
ATOM     22  C   UNL     1       5.565   4.304  14.950  0.00  0.00    +0.000 A 
ATOM     23  C   UNL     1       6.797   4.916  14.777  0.00  0.00    +0.000 A 
ATOM     24  N   UNL     1       7.448   5.597  15.746  0.00  0.00    +0.000 NA
ENDBRANCH  17  19
ENDBRANCH   4  16
TORSDOF 4
ENDMDL
MODEL 3
REMARK VINA RESULT:      -7.3      2.597      3.798
REMARK  Name = 
REMARK  6 active torsions:
REMARK  status: ('A' for Active; 'I' for Inactive)
REMARK    1  A    between atoms: C_1  and  C_2
REMARK    2  A    between atoms: C_2  and  C_17
REMARK    3  A    between atoms: N_3  and  N_4
REMARK    4  A    between atoms: N_7  and  N_8
REMARK    5  A    between atoms: C_9  and  C_10
REMARK    6  A    between atoms: C_9  and  C_11
REMARK                            x       y       z     vdW  Elec       q    Type
REMARK                         _______ _______ _______ _____ _____    ______ ____
ROOT
ATOM      1  N   UNL     1       6.242   7.073  17.091  0.00  0.00    +0.000 N 
ATOM      2  C   UNL     1       7.355   7.576  17.766  0.00  0.00    +0.000 C 
ATOM      3  O   UNL     1       7.958   6.967  18.648  0.00  0.00    +0.000 OA
ATOM      4  N   UNL     1       7.713   8.848  17.311  0.00  0.00    +0.000 N 
ATOM      5  H   UNL     1       5.814   7.610  16.357  0.00  0.00    +0.000 HD
ATOM      6  H   UNL     1       7.123   9.344  16.662  0.00  0.00    +0.000 HD
ENDROOT
BRANCH   1   9
ATOM      7  C   UNL     1       3.480   6.681  17.925  0.00  0.00    +0.000 C 
ATOM      8  C   UNL     1       4.552   5.622  17.779  0.00  0.00    +0.000 C 
ATOM      9  N   UNL     1       5.783   5.828  17.403  0.00  0.00    +0.000 NA
BRANCH   8  10
ATOM     10  C   UNL     1       4.126   4.216  18.101  0.00  0.00    +0.000 A 
ATOM     11  C   UNL     1       3.284   3.514  17.243  0.00  0.00    +0.000 A 
ATOM     12  C   UNL     1       2.925   2.212  17.584  0.00  0.00    +0.000 A 
ATOM     13  C   UNL     1       3.413   1.654  18.761  0.00  0.00    +0.000 A 
ATOM     14  C   UNL     1       4.244   2.426  19.557  0.00  0.00    +0.000 A 
ATOM     15  N   UNL     1       4.611   3.692  19.256  0.00  0.00    +0.000 NA
ENDBRANCH   8  10
ENDBRANCH   1   9
BRANCH   4  16
ATOM     16  N   UNL     1       8.777   9.471  17.888  0.00  0.00    +0.000 NA
ATOM     17  C   UNL     1       8.881  10.767  17.954  0.00  0.00    +0.000 C 
ATOM     18  C   UNL     1       7.897  11.770  17.397  0.00  0.00    +0.000 C 
BRANCH  17  19
ATOM     19  C   UNL     1      10.094  11.339  18.634  0.00  0.00    +0.000 A 
ATOM     20  C   UNL     1      10.146  11.420  20.023  0.00  0.00    +0.000 A 
ATOM     21  C   UNL     1      11.280  11.965  20.616  0.00  0.00    +0.000 A 
ATOM     22  C   UNL     1      12.322  12.409  19.811  0.00  0.00    +0.000 A 
ATOM     23  C   UNL     1      12.187  12.287  18.436  0.00  0.00    +0.000 A 
ATOM     24  N   UNL     1      11.100  11.763  17.826  0.00  0.00    +0.000 NA
ENDBRANCH  17  19
ENDBRANCH   4  16
TORSDOF 4
ENDMDL
MODEL 4
REMARK VINA RESULT:      -7.3      0.629      9.401
REMARK  Name = 
REMARK  6 active torsions:
REMARK  status: ('A' for Active; 'I' for Inactive)
REMARK    1  A    between atoms: C_1  and  C_2
REMARK    2  A    between atoms: C_2  and  C_17
REMARK    3  A    between atoms: N_3  and  N_4
REMARK    4  A    between atoms: N_7  and  N_8
REMARK    5  A    between atoms: C_9  and  C_10
REMARK    6  A    between atoms: C_9  and  C_11
REMARK                            x       y       z     vdW  Elec       q    Type
REMARK                         _______ _______ _______ _____ _____    ______ ____
ROOT
ATOM      1  N   UNL     1       9.341  10.406  19.568  0.00  0.00    +0.000 N 
ATOM      2  C   UNL     1       8.652   9.755  18.544  0.00  0.00    +0.000 C 
ATOM      3  O   UNL     1       8.148  10.330  17.581  0.00  0.00    +0.000 OA
ATOM      4  N   UNL     1       8.618   8.371  18.733  0.00  0.00    +0.000 N 
ATOM      5  H   UNL     1       9.758   9.873  20.311  0.00  0.00    +0.000 HD
ATOM      6  H   UNL     1       8.954   7.964  19.591  0.00  0.00    +0.000 HD
ENDROOT
BRANCH   1   9
ATOM      7  C   UNL     1      11.965  11.597  19.146  0.00  0.00    +0.000 C 
ATOM      8  C   UNL     1      10.648  12.322  19.328  0.00  0.00    +0.000 C 
ATOM      9  N   UNL     1       9.487  11.761  19.515  0.00  0.00    +0.000 NA
BRANCH   8  10
ATOM     10  C   UNL     1      10.720  13.824  19.279  0.00  0.00    +0.000 A 
ATOM     11  C   UNL     1      10.250  14.522  18.170  0.00  0.00    +0.000 A 
ATOM     12  C   UNL     1      10.332  15.913  18.179  0.00  0.00    +0.000 A 
ATOM     13  C   UNL     1      10.878  16.559  19.283  0.00  0.00    +0.000 A 
ATOM     14  C   UNL     1      11.324  15.784  20.342  0.00  0.00    +0.000 A 
ATOM     15  N   UNL     1      11.259  14.433  20.366  0.00  0.00    +0.000 NA
ENDBRANCH   8  10
ENDBRANCH   1   9
BRANCH   4  16
ATOM     16  N   UNL     1       7.966   7.604  17.816  0.00  0.00    +0.000 NA
ATOM     17  C   UNL     1       7.558   6.396  18.074  0.00  0.00    +0.000 C 
ATOM     18  C   UNL     1       7.753   5.647  19.373  0.00  0.00    +0.000 C 
BRANCH  17  19
ATOM     19  C   UNL     1       6.832   5.654  16.986  0.00  0.00    +0.000 A 
ATOM     20  C   UNL     1       5.601   5.060  17.245  0.00  0.00    +0.000 A 
ATOM     21  C   UNL     1       4.963   4.373  16.216  0.00  0.00    +0.000 A 
ATOM     22  C   UNL     1       5.570   4.301  14.968  0.00  0.00    +0.000 A 
ATOM     23  C   UNL     1       6.797   4.925  14.799  0.00  0.00    +0.000 A 
ATOM     24  N   UNL     1       7.444   5.600  15.775  0.00  0.00    +0.000 NA
ENDBRANCH  17  19
ENDBRANCH   4  16
TORSDOF 4
ENDMDL
MODEL 5
REMARK VINA RESULT:      -7.3      2.619      9.812
REMARK  Name = 
REMARK  6 active torsions:
REMARK  status: ('A' for Active; 'I' for Inactive)
REMARK    1  A    between atoms: C_1  and  C_2
REMARK    2  A    between atoms: C_2  and  C_17
REMARK    3  A    between atoms: N_3  and  N_4
REMARK    4  A    between atoms: N_7  and  N_8
REMARK    5  A    between atoms: C_9  and  C_10
REMARK    6  A    between atoms: C_9  and  C_11
REMARK                            x       y       z     vdW  Elec       q    Type
REMARK                         _______ _______ _______ _____ _____    ______ ____
ROOT
ATOM      1  N   UNL     1       7.636   8.819  17.307  0.00  0.00    +0.000 N 
ATOM      2  C   UNL     1       7.247   7.550  17.738  0.00  0.00    +0.000 C 
ATOM      3  O   UNL     1       7.816   6.922  18.629  0.00  0.00    +0.000 OA
ATOM      4  N   UNL     1       6.124   7.085  17.049  0.00  0.00    +0.000 N 
ATOM      5  H   UNL     1       7.108   9.292  16.595  0.00  0.00    +0.000 HD
ATOM      6  H   UNL     1       5.763   7.593  16.258  0.00  0.00    +0.000 HD
ENDROOT
BRANCH   1   9
ATOM      7  C   UNL     1       7.821  11.723  17.408  0.00  0.00    +0.000 C 
ATOM      8  C   UNL     1       8.813  10.722  17.962  0.00  0.00    +0.000 C 
ATOM      9  N   UNL     1       8.703   9.425  17.902  0.00  0.00    +0.000 NA
BRANCH   8  10
ATOM     10  C   UNL     1      10.020  11.310  18.640  0.00  0.00    +0.000 A 
ATOM     11  C   UNL     1      10.044  11.490  20.019  0.00  0.00    +0.000 A 
ATOM     12  C   UNL     1      11.190  12.031  20.599  0.00  0.00    +0.000 A 
ATOM     13  C   UNL     1      12.268  12.374  19.789  0.00  0.00    +0.000 A 
ATOM     14  C   UNL     1      12.157  12.162  18.425  0.00  0.00    +0.000 A 
ATOM     15  N   UNL     1      11.060  11.640  17.830  0.00  0.00    +0.000 NA
ENDBRANCH   8  10
ENDBRANCH   1   9
BRANCH   4  16
ATOM     16  N   UNL     1       5.637   5.851  17.356  0.00  0.00    +0.000 NA
ATOM     17  C   UNL     1       4.411   5.657  17.748  0.00  0.00    +0.000 C 
ATOM     18  C   UNL     1       3.361   6.726  17.953  0.00  0.00    +0.000 C 
BRANCH  17  19
ATOM     19  C   UNL     1       3.982   4.245  18.040  0.00  0.00    +0.000 A 
ATOM     20  C   UNL     1       3.020   3.628  17.247  0.00  0.00    +0.000 A 
ATOM     21  C   UNL     1       2.642   2.324  17.553  0.00  0.00    +0.000 A 
ATOM     22  C   UNL     1       3.232   1.681  18.634  0.00  0.00    +0.000 A 
ATOM     23  C   UNL     1       4.184   2.372  19.368  0.00  0.00    +0.000 A 
ATOM     24  N   UNL     1       4.576   3.638  19.099  0.00  0.00    +0.000 NA
ENDBRANCH  17  19
ENDBRANCH   4  16
TORSDOF 4
ENDMDL
MODEL 6
REMARK VINA RESULT:      -7.0      9.075     10.097
REMARK  Name = 
REMARK  6 active torsions:
REMARK  status: ('A' for Active; 'I' for Inactive)
REMARK    1  A    between atoms: C_1  and  C_2
REMARK    2  A    between atoms: C_2  and  C_17
REMARK    3  A    between atoms: N_3  and  N_4
REMARK    4  A    between atoms: N_7  and  N_8
REMARK    5  A    between atoms: C_9  and  C_10
REMARK    6  A    between atoms: C_9  and  C_11
REMARK                            x       y       z     vdW  Elec       q    Type
REMARK                         _______ _______ _______ _____ _____    ______ ____
ROOT
ATOM      1  N   UNL     1       1.644   8.045  21.182  0.00  0.00    +0.000 N 
ATOM      2  C   UNL     1       0.540   8.649  21.785  0.00  0.00    +0.000 C 
ATOM      3  O   UNL     1      -0.545   8.094  21.946  0.00  0.00    +0.000 OA
ATOM      4  N   UNL     1       0.818   9.955  22.199  0.00  0.00    +0.000 N 
ATOM      5  H   UNL     1       2.513   8.545  21.109  0.00  0.00    +0.000 HD
ATOM      6  H   UNL     1       1.687  10.396  21.948  0.00  0.00    +0.000 HD
ENDROOT
BRANCH   1   9
ATOM      7  C   UNL     1       2.844   7.240  18.655  0.00  0.00    +0.000 C 
ATOM      8  C   UNL     1       2.069   6.368  19.619  0.00  0.00    +0.000 C 
ATOM      9  N   UNL     1       1.541   6.758  20.746  0.00  0.00    +0.000 NA
BRANCH   8  10
ATOM     10  C   UNL     1       1.912   4.928  19.214  0.00  0.00    +0.000 A 
ATOM     11  C   UNL     1       1.201   4.038  20.013  0.00  0.00    +0.000 A 
ATOM     12  C   UNL     1       1.079   2.716  19.588  0.00  0.00    +0.000 A 
ATOM     13  C   UNL     1       1.667   2.327  18.389  0.00  0.00    +0.000 A 
ATOM     14  C   UNL     1       2.358   3.280  17.658  0.00  0.00    +0.000 A 
ATOM     15  N   UNL     1       2.497   4.569  18.041  0.00  0.00    +0.000 NA
ENDBRANCH   8  10
ENDBRANCH   1   9
BRANCH   4  16
ATOM     16  N   UNL     1      -0.173  10.674  22.795  0.00  0.00    +0.000 NA
ATOM     17  C   UNL     1      -0.545  11.845  22.368  0.00  0.00    +0.000 C 
ATOM     18  C   UNL     1       0.050  12.599  21.200  0.00  0.00    +0.000 C 
BRANCH  17  19
ATOM     19  C   UNL     1      -1.665  12.535  23.097  0.00  0.00    +0.000 A 
ATOM     20  C   UNL     1      -1.536  13.867  23.479  0.00  0.00    +0.000 A 
ATOM     21  C   UNL     1      -2.589  14.469  24.161  0.00  0.00    +0.000 A 
ATOM     22  C   UNL     1      -3.731  13.728  24.439  0.00  0.00    +0.000 A 
ATOM     23  C   UNL     1      -3.775  12.407  24.018  0.00  0.00    +0.000 A 
ATOM     24  N   UNL     1      -2.771  11.790  23.354  0.00  0.00    +0.000 NA
ENDBRANCH  17  19
ENDBRANCH   4  16
TORSDOF 4
ENDMDL
MODEL 7
REMARK VINA RESULT:      -7.0      1.532      1.738
REMARK  Name = 
REMARK  6 active torsions:
REMARK  status: ('A' for Active; 'I' for Inactive)
REMARK    1  A    between atoms: C_1  and  C_2
REMARK    2  A    between atoms: C_2  and  C_17
REMARK    3  A    between atoms: N_3  and  N_4
REMARK    4  A    between atoms: N_7  and  N_8
REMARK    5  A    between atoms: C_9  and  C_10
REMARK    6  A    between atoms: C_9  and  C_11
REMARK                            x       y       z     vdW  Elec       q    Type
REMARK                         _______ _______ _______ _____ _____    ______ ____
ROOT
ATOM      1  N   UNL     1       8.716   8.445  19.070  0.00  0.00    +0.000 N 
ATOM      2  C   UNL     1       9.027   9.800  18.943  0.00  0.00    +0.000 C 
ATOM      3  O   UNL     1       8.749  10.479  17.958  0.00  0.00    +0.000 OA
ATOM      4  N   UNL     1       9.677  10.296  20.076  0.00  0.00    +0.000 N 
ATOM      5  H   UNL     1       8.944   7.954  19.917  0.00  0.00    +0.000 HD
ATOM      6  H   UNL     1       9.974   9.673  20.809  0.00  0.00    +0.000 HD
ENDROOT
BRANCH   1   9
ATOM      7  C   UNL     1       7.789   5.703  19.386  0.00  0.00    +0.000 C 
ATOM      8  C   UNL     1       7.628   6.591  18.170  0.00  0.00    +0.000 C 
ATOM      9  N   UNL     1       8.054   7.817  18.057  0.00  0.00    +0.000 NA
BRANCH   8  10
ATOM     10  C   UNL     1       6.903   5.973  17.005  0.00  0.00    +0.000 A 
ATOM     11  C   UNL     1       7.184   4.671  16.603  0.00  0.00    +0.000 A 
ATOM     12  C   UNL     1       6.479   4.143  15.524  0.00  0.00    +0.000 A 
ATOM     13  C   UNL     1       5.523   4.925  14.883  0.00  0.00    +0.000 A 
ATOM     14  C   UNL     1       5.311   6.212  15.349  0.00  0.00    +0.000 A 
ATOM     15  N   UNL     1       5.977   6.756  16.393  0.00  0.00    +0.000 NA
ENDBRANCH   8  10
ENDBRANCH   1   9
BRANCH   4  16
ATOM     16  N   UNL     1      10.054  11.605  20.090  0.00  0.00    +0.000 NA
ATOM     17  C   UNL     1       9.685  12.432  21.024  0.00  0.00    +0.000 C 
ATOM     18  C   UNL     1       8.786  12.110  22.197  0.00  0.00    +0.000 C 
BRANCH  17  19
ATOM     19  C   UNL     1      10.181  13.849  20.942  0.00  0.00    +0.000 A 
ATOM     20  C   UNL     1       9.990  14.721  22.010  0.00  0.00    +0.000 A 
ATOM     21  C   UNL     1      10.454  16.028  21.895  0.00  0.00    +0.000 A 
ATOM     22  C   UNL     1      11.089  16.422  20.723  0.00  0.00    +0.000 A 
ATOM     23  C   UNL     1      11.238  15.487  19.711  0.00  0.00    +0.000 A 
ATOM     24  N   UNL     1      10.801  14.210  19.789  0.00  0.00    +0.000 NA
ENDBRANCH  17  19
ENDBRANCH   4  16
TORSDOF 4
ENDMDL
MODEL 8
REMARK VINA RESULT:      -7.0      9.027     10.113
REMARK  Name = 
REMARK  6 active torsions:
REMARK  status: ('A' for Active; 'I' for Inactive)
REMARK    1  A    between atoms: C_1  and  C_2
REMARK    2  A    between atoms: C_2  and  C_17
REMARK    3  A    between atoms: N_3  and  N_4
REMARK    4  A    between atoms: N_7  and  N_8
REMARK    5  A    between atoms: C_9  and  C_10
REMARK    6  A    between atoms: C_9  and  C_11
REMARK                            x       y       z     vdW  Elec       q    Type
REMARK                         _______ _______ _______ _____ _____    ______ ____
ROOT
ATOM      1  N   UNL     1       1.672   8.025  21.154  0.00  0.00    +0.000 N 
ATOM      2  C   UNL     1       0.588   8.654  21.768  0.00  0.00    +0.000 C 
ATOM      3  O   UNL     1      -0.505   8.122  21.946  0.00  0.00    +0.000 OA
ATOM      4  N   UNL     1       0.898   9.956  22.172  0.00  0.00    +0.000 N 
ATOM      5  H   UNL     1       2.550   8.506  21.068  0.00  0.00    +0.000 HD
ATOM      6  H   UNL     1       1.773  10.378  21.908  0.00  0.00    +0.000 HD
ENDROOT
BRANCH   1   9
ATOM      7  C   UNL     1       2.827   7.182  18.618  0.00  0.00    +0.000 C 
ATOM      8  C   UNL     1       2.044   6.332  19.596  0.00  0.00    +0.000 C 
ATOM      9  N   UNL     1       1.538   6.738  20.726  0.00  0.00    +0.000 NA
BRANCH   8  10
ATOM     10  C   UNL     1       1.853   4.893  19.200  0.00  0.00    +0.000 A 
ATOM     11  C   UNL     1       2.416   4.398  18.028  0.00  0.00    +0.000 A 
ATOM     12  C   UNL     1       2.217   3.056  17.711  0.00  0.00    +0.000 A 
ATOM     13  C   UNL     1       1.466   2.256  18.566  0.00  0.00    +0.000 A 
ATOM     14  C   UNL     1       0.940   2.833  19.711  0.00  0.00    +0.000 A 
ATOM     15  N   UNL     1       1.114   4.131  20.048  0.00  0.00    +0.000 NA
ENDBRANCH   8  10
ENDBRANCH   1   9
BRANCH   4  16
ATOM     16  N   UNL     1      -0.070  10.698  22.777  0.00  0.00    +0.000 NA
ATOM     17  C   UNL     1      -0.473  11.843  22.307  0.00  0.00    +0.000 C 
ATOM     18  C   UNL     1       0.060  12.539  21.075  0.00  0.00    +0.000 C 
BRANCH  17  19
ATOM     19  C   UNL     1      -1.564  12.562  23.053  0.00  0.00    +0.000 A 
ATOM     20  C   UNL     1      -2.785  11.937  23.282  0.00  0.00    +0.000 A 
ATOM     21  C   UNL     1      -3.774  12.637  23.967  0.00  0.00    +0.000 A 
ATOM     22  C   UNL     1      -3.514  13.932  24.399  0.00  0.00    +0.000 A 
ATOM     23  C   UNL     1      -2.267  14.476  24.129  0.00  0.00    +0.000 A 
ATOM     24  N   UNL     1      -1.284  13.825  23.467  0.00  0.00    +0.000 NA
ENDBRANCH  17  19
ENDBRANCH   4  16
TORSDOF 4
ENDMDL
MODEL 9
REMARK VINA RESULT:      -7.0      9.143     10.194
REMARK  Name = 
REMARK  6 active torsions:
REMARK  status: ('A' for Active; 'I' for Inactive)
REMARK    1  A    between atoms: C_1  and  C_2
REMARK    2  A    between atoms: C_2  and  C_17
REMARK    3  A    between atoms: N_3  and  N_4
REMARK    4  A    between atoms: N_7  and  N_8
REMARK    5  A    between atoms: C_9  and  C_10
REMARK    6  A    between atoms: C_9  and  C_11
REMARK                            x       y       z     vdW  Elec       q    Type
REMARK                         _______ _______ _______ _____ _____    ______ ____
ROOT
ATOM      1  N   UNL     1       1.612   8.077  21.180  0.00  0.00    +0.000 N 
ATOM      2  C   UNL     1       0.500   8.670  21.780  0.00  0.00    +0.000 C 
ATOM      3  O   UNL     1      -0.584   8.107  21.925  0.00  0.00    +0.000 OA
ATOM      4  N   UNL     1       0.768   9.972  22.210  0.00  0.00    +0.000 N 
ATOM      5  H   UNL     1       2.479   8.582  21.121  0.00  0.00    +0.000 HD
ATOM      6  H   UNL     1       1.638  10.420  21.971  0.00  0.00    +0.000 HD
ENDROOT
BRANCH   1   9
ATOM      7  C   UNL     1       2.783   7.319  18.624  0.00  0.00    +0.000 C 
ATOM      8  C   UNL     1       2.034   6.426  19.590  0.00  0.00    +0.000 C 
ATOM      9  N   UNL     1       1.520   6.794  20.729  0.00  0.00    +0.000 NA
BRANCH   8  10
ATOM     10  C   UNL     1       1.890   4.989  19.168  0.00  0.00    +0.000 A 
ATOM     11  C   UNL     1       2.373   4.558  17.936  0.00  0.00    +0.000 A 
ATOM     12  C   UNL     1       2.222   3.214  17.598  0.00  0.00    +0.000 A 
ATOM     13  C   UNL     1       1.598   2.351  18.491  0.00  0.00    +0.000 A 
ATOM     14  C   UNL     1       1.146   2.866  19.695  0.00  0.00    +0.000 A 
ATOM     15  N   UNL     1       1.275   4.163  20.055  0.00  0.00    +0.000 NA
ENDBRANCH   8  10
ENDBRANCH   1   9
BRANCH   4  16
ATOM     16  N   UNL     1      -0.231  10.680  22.805  0.00  0.00    +0.000 NA
ATOM     17  C   UNL     1      -0.596  11.860  22.395  0.00  0.00    +0.000 C 
ATOM     18  C   UNL     1       0.018  12.636  21.252  0.00  0.00    +0.000 C 
BRANCH  17  19
ATOM     19  C   UNL     1      -1.727  12.536  23.120  0.00  0.00    +0.000 A 
ATOM     20  C   UNL     1      -1.627  13.878  23.476  0.00  0.00    +0.000 A 
ATOM     21  C   UNL     1      -2.689  14.467  24.155  0.00  0.00    +0.000 A 
ATOM     22  C   UNL     1      -3.811  13.704  24.456  0.00  0.00    +0.000 A 
ATOM     23  C   UNL     1      -3.826  12.375  24.061  0.00  0.00    +0.000 A 
ATOM     24  N   UNL     1      -2.813  11.770  23.400  0.00  0.00    +0.000 NA
ENDBRANCH  17  19
ENDBRANCH   4  16
TORSDOF 4
ENDMDL
