MODEL 1
REMARK VINA RESULT:      -6.8      0.000      0.000
REMARK  Name = 
REMARK  9 active torsions:
REMARK  status: ('A' for Active; 'I' for Inactive)
REMARK    1  A    between atoms: C_1  and  C_2
REMARK    2  A    between atoms: C_2  and  C_3
REMARK    3  A    between atoms: C_3  and  S_4
REMARK    4  A    between atoms: S_4  and  N_7
REMARK    5  A    between atoms: N_7  and  C_8
REMARK    6  A    between atoms: C_8  and  C_9
REMARK    7  A    between atoms: N_12  and  C_13
REMARK    8  A    between atoms: C_13  and  C_14
REMARK    9  A    between atoms: C_13  and  C_15
REMARK                            x       y       z     vdW  Elec       q    Type
REMARK                         _______ _______ _______ _____ _____    ______ ____
ROOT
ATOM      1  C   UNL     1       4.850   5.807  16.327  0.00  0.00    +0.000 C 
ENDROOT
BRANCH   1   2
ATOM      2  C   UNL     1       4.646   6.293  17.773  0.00  0.00    +0.000 C 
ATOM      3  C   UNL     1       5.369   5.376  18.773  0.00  0.00    +0.000 C 
ATOM      4  C   UNL     1       4.661   4.033  19.022  0.00  0.00    +0.000 C 
ATOM      5  N   UNL     1       3.213   4.149  19.286  0.00  0.00    +0.000 NA
ATOM      6  C   UNL     1       2.554   4.963  18.252  0.00  0.00    +0.000 C 
ATOM      7  C   UNL     1       3.175   6.358  18.181  0.00  0.00    +0.000 C 
BRANCH   5   8
ATOM      8  C   UNL     1       2.569   2.814  19.439  0.00  0.00    +0.000 C 
ATOM      9  C   UNL     1       1.035   2.915  19.409  0.00  0.00    +0.000 C 
ATOM     10  C   UNL     1       2.978   1.815  18.340  0.00  0.00    +0.000 C 
ENDBRANCH   5   8
ENDBRANCH   1   2
BRANCH   1  11
ATOM     11  N   UNL     1       6.161   6.239  15.789  0.00  0.00    +0.000 NA
ATOM     12  H   UNL     1       6.133   6.990  15.098  0.00  0.00    +0.000 HD
BRANCH  11  13
ATOM     13  S   UNL     1       7.150   5.016  15.163  0.00  0.00    +0.000 S 
ATOM     14  O   UNL     1       7.715   4.340  16.303  0.00  0.00    +0.000 OA
ATOM     15  O   UNL     1       7.984   5.624  14.149  0.00  0.00    +0.000 OA
BRANCH  13  16
ATOM     16  C   UNL     1       5.949   3.939  14.372  0.00  0.00    +0.000 C 
BRANCH  16  18
ATOM     17  C   UNL     1       5.119   3.327  12.078  0.00  0.00    +0.000 C 
ATOM     18  C   UNL     1       6.332   3.671  12.924  0.00  0.00    +0.000 C 
ENDBRANCH  16  18
ENDBRANCH  13  16
ENDBRANCH  11  13
ENDBRANCH   1  11
TORSDOF 6
ENDMDL
MODEL 2
REMARK VINA RESULT:      -6.6      2.310      3.156
REMARK  Name = 
REMARK  9 active torsions:
REMARK  status: ('A' for Active; 'I' for Inactive)
REMARK    1  A    between atoms: C_1  and  C_2
REMARK    2  A    between atoms: C_2  and  C_3
REMARK    3  A    between atoms: C_3  and  S_4
REMARK    4  A    between atoms: S_4  and  N_7
REMARK    5  A    between atoms: N_7  and  C_8
REMARK    6  A    between atoms: C_8  and  C_9
REMARK    7  A    between atoms: N_12  and  C_13
REMARK    8  A    between atoms: C_13  and  C_14
REMARK    9  A    between atoms: C_13  and  C_15
REMARK                            x       y       z     vdW  Elec       q    Type
REMARK                         _______ _______ _______ _____ _____    ______ ____
ROOT
ATOM      1  C   UNL     1       4.402   4.741  16.967  0.00  0.00    +0.000 C 
ENDROOT
BRANCH   1   2
ATOM      2  C   UNL     1       4.000   5.766  18.041  0.00  0.00    +0.000 C 
ATOM      3  C   UNL     1       4.300   5.236  19.453  0.00  0.00    +0.000 C 
ATOM      4  C   UNL     1       3.302   4.177  19.953  0.00  0.00    +0.000 C 
ATOM      5  N   UNL     1       1.883   4.540  19.760  0.00  0.00    +0.000 NA
ATOM      6  C   UNL     1       1.632   4.955  18.371  0.00  0.00    +0.000 C 
ATOM      7  C   UNL     1       2.519   6.139  17.989  0.00  0.00    +0.000 C 
BRANCH   5   8
ATOM      8  C   UNL     1       0.969   3.443  20.188  0.00  0.00    +0.000 C 
ATOM      9  C   UNL     1       0.800   2.381  19.090  0.00  0.00    +0.000 C 
ATOM     10  C   UNL     1       1.453   2.711  21.455  0.00  0.00    +0.000 C 
ENDBRANCH   5   8
ENDBRANCH   1   2
BRANCH   1  11
ATOM     11  N   UNL     1       5.656   4.039  17.329  0.00  0.00    +0.000 NA
ATOM     12  H   UNL     1       5.842   3.948  18.328  0.00  0.00    +0.000 HD
BRANCH  11  13
ATOM     13  S   UNL     1       7.071   4.621  16.605  0.00  0.00    +0.000 S 
ATOM     14  O   UNL     1       6.970   4.282  15.208  0.00  0.00    +0.000 OA
ATOM     15  O   UNL     1       8.179   4.168  17.419  0.00  0.00    +0.000 OA
BRANCH  13  16
ATOM     16  C   UNL     1       6.882   6.397  16.798  0.00  0.00    +0.000 C 
BRANCH  16  18
ATOM     17  C   UNL     1       7.978   8.402  17.849  0.00  0.00    +0.000 C 
ATOM     18  C   UNL     1       7.725   6.908  17.957  0.00  0.00    +0.000 C 
ENDBRANCH  16  18
ENDBRANCH  13  16
ENDBRANCH  11  13
ENDBRANCH   1  11
TORSDOF 6
ENDMDL
MODEL 3
REMARK VINA RESULT:      -6.5      1.666      2.680
REMARK  Name = 
REMARK  9 active torsions:
REMARK  status: ('A' for Active; 'I' for Inactive)
REMARK    1  A    between atoms: C_1  and  C_2
REMARK    2  A    between atoms: C_2  and  C_3
REMARK    3  A    between atoms: C_3  and  S_4
REMARK    4  A    between atoms: S_4  and  N_7
REMARK    5  A    between atoms: N_7  and  C_8
REMARK    6  A    between atoms: C_8  and  C_9
REMARK    7  A    between atoms: N_12  and  C_13
REMARK    8  A    between atoms: C_13  and  C_14
REMARK    9  A    between atoms: C_13  and  C_15
REMARK                            x       y       z     vdW  Elec       q    Type
REMARK                         _______ _______ _______ _____ _____    ______ ____
ROOT
ATOM      1  C   UNL     1       5.139   3.884  17.758  0.00  0.00    +0.000 C 
ENDROOT
BRANCH   1   2
ATOM      2  C   UNL     1       4.023   2.933  17.292  0.00  0.00    +0.000 C 
ATOM      3  C   UNL     1       2.733   3.707  16.975  0.00  0.00    +0.000 C 
ATOM      4  C   UNL     1       1.953   4.168  18.219  0.00  0.00    +0.000 C 
ATOM      5  N   UNL     1       1.762   3.117  19.239  0.00  0.00    +0.000 NA
ATOM      6  C   UNL     1       3.041   2.468  19.570  0.00  0.00    +0.000 C 
ATOM      7  C   UNL     1       3.680   1.860  18.323  0.00  0.00    +0.000 C 
BRANCH   5   8
ATOM      8  C   UNL     1       1.073   3.643  20.452  0.00  0.00    +0.000 C 
ATOM      9  C   UNL     1       1.398   2.804  21.699  0.00  0.00    +0.000 C 
ATOM     10  C   UNL     1       1.447   5.101  20.777  0.00  0.00    +0.000 C 
ENDBRANCH   5   8
ENDBRANCH   1   2
BRANCH   1  11
ATOM     11  N   UNL     1       6.240   3.955  16.769  0.00  0.00    +0.000 NA
ATOM     12  H   UNL     1       7.185   3.959  17.155  0.00  0.00    +0.000 HD
BRANCH  11  13
ATOM     13  S   UNL     1       6.151   5.218  15.645  0.00  0.00    +0.000 S 
ATOM     14  O   UNL     1       7.513   5.540  15.303  0.00  0.00    +0.000 OA
ATOM     15  O   UNL     1       5.250   6.209  16.193  0.00  0.00    +0.000 OA
BRANCH  13  16
ATOM     16  C   UNL     1       5.364   4.411  14.246  0.00  0.00    +0.000 C 
BRANCH  16  18
ATOM     17  C   UNL     1       5.769   3.199  12.079  0.00  0.00    +0.000 C 
ATOM     18  C   UNL     1       6.402   3.772  13.335  0.00  0.00    +0.000 C 
ENDBRANCH  16  18
ENDBRANCH  13  16
ENDBRANCH  11  13
ENDBRANCH   1  11
TORSDOF 6
ENDMDL
MODEL 4
REMARK VINA RESULT:      -6.4      1.545      2.521
REMARK  Name = 
REMARK  9 active torsions:
REMARK  status: ('A' for Active; 'I' for Inactive)
REMARK    1  A    between atoms: C_1  and  C_2
REMARK    2  A    between atoms: C_2  and  C_3
REMARK    3  A    between atoms: C_3  and  S_4
REMARK    4  A    between atoms: S_4  and  N_7
REMARK    5  A    between atoms: N_7  and  C_8
REMARK    6  A    between atoms: C_8  and  C_9
REMARK    7  A    between atoms: N_12  and  C_13
REMARK    8  A    between atoms: C_13  and  C_14
REMARK    9  A    between atoms: C_13  and  C_15
REMARK                            x       y       z     vdW  Elec       q    Type
REMARK                         _______ _______ _______ _____ _____    ______ ____
ROOT
ATOM      1  C   UNL     1       5.477   4.005  18.184  0.00  0.00    +0.000 C 
ENDROOT
BRANCH   1   2
ATOM      2  C   UNL     1       4.325   3.341  17.409  0.00  0.00    +0.000 C 
ATOM      3  C   UNL     1       3.191   4.343  17.137  0.00  0.00    +0.000 C 
ATOM      4  C   UNL     1       2.316   4.652  18.364  0.00  0.00    +0.000 C 
ATOM      5  N   UNL     1       1.867   3.456  19.106  0.00  0.00    +0.000 NA
ATOM      6  C   UNL     1       3.003   2.575  19.418  0.00  0.00    +0.000 C 
ATOM      7  C   UNL     1       3.722   2.144  18.141  0.00  0.00    +0.000 C 
BRANCH   5   8
ATOM      8  C   UNL     1       1.092   3.821  20.326  0.00  0.00    +0.000 C 
ATOM      9  C   UNL     1       1.340   2.829  21.475  0.00  0.00    +0.000 C 
ATOM     10  C   UNL     1       1.431   5.226  20.861  0.00  0.00    +0.000 C 
ENDBRANCH   5   8
ENDBRANCH   1   2
BRANCH   1  11
ATOM     11  N   UNL     1       5.762   5.366  17.674  0.00  0.00    +0.000 NA
ATOM     12  H   UNL     1       4.959   5.884  17.317  0.00  0.00    +0.000 HD
BRANCH  11  13
ATOM     13  S   UNL     1       6.992   5.486  16.517  0.00  0.00    +0.000 S 
ATOM     14  O   UNL     1       7.820   4.321  16.697  0.00  0.00    +0.000 OA
ATOM     15  O   UNL     1       7.533   6.825  16.612  0.00  0.00    +0.000 OA
BRANCH  13  16
ATOM     16  C   UNL     1       6.073   5.328  14.982  0.00  0.00    +0.000 C 
BRANCH  16  18
ATOM     17  C   UNL     1       5.989   3.645  13.113  0.00  0.00    +0.000 C 
ATOM     18  C   UNL     1       6.876   4.554  13.947  0.00  0.00    +0.000 C 
ENDBRANCH  16  18
ENDBRANCH  13  16
ENDBRANCH  11  13
ENDBRANCH   1  11
TORSDOF 6
ENDMDL
MODEL 5
REMARK VINA RESULT:      -6.4      2.293      4.053
REMARK  Name = 
REMARK  9 active torsions:
REMARK  status: ('A' for Active; 'I' for Inactive)
REMARK    1  A    between atoms: C_1  and  C_2
REMARK    2  A    between atoms: C_2  and  C_3
REMARK    3  A    between atoms: C_3  and  S_4
REMARK    4  A    between atoms: S_4  and  N_7
REMARK    5  A    between atoms: N_7  and  C_8
REMARK    6  A    between atoms: C_8  and  C_9
REMARK    7  A    between atoms: N_12  and  C_13
REMARK    8  A    between atoms: C_13  and  C_14
REMARK    9  A    between atoms: C_13  and  C_15
REMARK                            x       y       z     vdW  Elec       q    Type
REMARK                         _______ _______ _______ _____ _____    ______ ____
ROOT
ATOM      1  C   UNL     1       4.586   4.356  16.672  0.00  0.00    +0.000 C 
ENDROOT
BRANCH   1   2
ATOM      2  C   UNL     1       3.715   3.730  17.775  0.00  0.00    +0.000 C 
ATOM      3  C   UNL     1       2.251   4.182  17.648  0.00  0.00    +0.000 C 
ATOM      4  C   UNL     1       1.992   5.622  18.127  0.00  0.00    +0.000 C 
ATOM      5  N   UNL     1       2.585   5.940  19.442  0.00  0.00    +0.000 NA
ATOM      6  C   UNL     1       4.008   5.569  19.480  0.00  0.00    +0.000 C 
ATOM      7  C   UNL     1       4.190   4.081  19.184  0.00  0.00    +0.000 C 
BRANCH   5   8
ATOM      8  C   UNL     1       2.371   7.368  19.814  0.00  0.00    +0.000 C 
ATOM      9  C   UNL     1       2.049   8.234  18.585  0.00  0.00    +0.000 C 
ATOM     10  C   UNL     1       1.221   7.565  20.820  0.00  0.00    +0.000 C 
ENDBRANCH   5   8
ENDBRANCH   1   2
BRANCH   1  11
ATOM     11  N   UNL     1       5.902   3.682  16.571  0.00  0.00    +0.000 NA
ATOM     12  H   UNL     1       6.110   3.003  17.303  0.00  0.00    +0.000 HD
BRANCH  11  13
ATOM     13  S   UNL     1       7.249   4.697  16.428  0.00  0.00    +0.000 S 
ATOM     14  O   UNL     1       7.493   4.834  15.015  0.00  0.00    +0.000 OA
ATOM     15  O   UNL     1       8.261   4.186  17.328  0.00  0.00    +0.000 OA
BRANCH  13  16
ATOM     16  C   UNL     1       6.614   6.248  17.073  0.00  0.00    +0.000 C 
BRANCH  16  18
ATOM     17  C   UNL     1       7.885   8.327  17.698  0.00  0.00    +0.000 C 
ATOM     18  C   UNL     1       7.602   6.876  18.046  0.00  0.00    +0.000 C 
ENDBRANCH  16  18
ENDBRANCH  13  16
ENDBRANCH  11  13
ENDBRANCH   1  11
TORSDOF 6
ENDMDL
MODEL 6
REMARK VINA RESULT:      -6.4      2.491      3.767
REMARK  Name = 
REMARK  9 active torsions:
REMARK  status: ('A' for Active; 'I' for Inactive)
REMARK    1  A    between atoms: C_1  and  C_2
REMARK    2  A    between atoms: C_2  and  C_3
REMARK    3  A    between atoms: C_3  and  S_4
REMARK    4  A    between atoms: S_4  and  N_7
REMARK    5  A    between atoms: N_7  and  C_8
REMARK    6  A    between atoms: C_8  and  C_9
REMARK    7  A    between atoms: N_12  and  C_13
REMARK    8  A    between atoms: C_13  and  C_14
REMARK    9  A    between atoms: C_13  and  C_15
REMARK                            x       y       z     vdW  Elec       q    Type
REMARK                         _______ _______ _______ _____ _____    ______ ____
ROOT
ATOM      1  C   UNL     1       5.024   3.793  17.599  0.00  0.00    +0.000 C 
ENDROOT
BRANCH   1   2
ATOM      2  C   UNL     1       3.865   2.876  17.175  0.00  0.00    +0.000 C 
ATOM      3  C   UNL     1       2.584   3.686  16.916  0.00  0.00    +0.000 C 
ATOM      4  C   UNL     1       1.869   4.159  18.194  0.00  0.00    +0.000 C 
ATOM      5  N   UNL     1       1.693   3.108  19.216  0.00  0.00    +0.000 NA
ATOM      6  C   UNL     1       2.966   2.423  19.490  0.00  0.00    +0.000 C 
ATOM      7  C   UNL     1       3.536   1.805  18.213  0.00  0.00    +0.000 C 
BRANCH   5   8
ATOM      8  C   UNL     1       1.069   3.643  20.459  0.00  0.00    +0.000 C 
ATOM      9  C   UNL     1       1.399   2.772  21.683  0.00  0.00    +0.000 C 
ATOM     10  C   UNL     1       1.518   5.079  20.793  0.00  0.00    +0.000 C 
ENDBRANCH   5   8
ENDBRANCH   1   2
BRANCH   1  11
ATOM     11  N   UNL     1       6.087   3.839  16.568  0.00  0.00    +0.000 NA
ATOM     12  H   UNL     1       6.958   3.363  16.805  0.00  0.00    +0.000 HD
BRANCH  11  13
ATOM     13  S   UNL     1       6.495   5.374  15.984  0.00  0.00    +0.000 S 
ATOM     14  O   UNL     1       5.247   6.026  15.676  0.00  0.00    +0.000 OA
ATOM     15  O   UNL     1       7.523   5.187  14.983  0.00  0.00    +0.000 OA
BRANCH  13  16
ATOM     16  C   UNL     1       7.219   6.141  17.439  0.00  0.00    +0.000 C 
BRANCH  16  18
ATOM     17  C   UNL     1       8.170   8.422  17.912  0.00  0.00    +0.000 C 
ATOM     18  C   UNL     1       6.953   7.639  17.451  0.00  0.00    +0.000 C 
ENDBRANCH  16  18
ENDBRANCH  13  16
ENDBRANCH  11  13
ENDBRANCH   1  11
TORSDOF 6
ENDMDL
MODEL 7
REMARK VINA RESULT:      -6.3      1.410      1.651
REMARK  Name = 
REMARK  9 active torsions:
REMARK  status: ('A' for Active; 'I' for Inactive)
REMARK    1  A    between atoms: C_1  and  C_2
REMARK    2  A    between atoms: C_2  and  C_3
REMARK    3  A    between atoms: C_3  and  S_4
REMARK    4  A    between atoms: S_4  and  N_7
REMARK    5  A    between atoms: N_7  and  C_8
REMARK    6  A    between atoms: C_8  and  C_9
REMARK    7  A    between atoms: N_12  and  C_13
REMARK    8  A    between atoms: C_13  and  C_14
REMARK    9  A    between atoms: C_13  and  C_15
REMARK                            x       y       z     vdW  Elec       q    Type
REMARK                         _______ _______ _______ _____ _____    ______ ____
ROOT
ATOM      1  C   UNL     1       4.349   3.999  16.702  0.00  0.00    +0.000 C 
ENDROOT
BRANCH   1   2
ATOM      2  C   UNL     1       4.544   4.946  17.899  0.00  0.00    +0.000 C 
ATOM      3  C   UNL     1       4.843   4.158  19.185  0.00  0.00    +0.000 C 
ATOM      4  C   UNL     1       3.613   3.472  19.805  0.00  0.00    +0.000 C 
ATOM      5  N   UNL     1       2.427   4.344  19.922  0.00  0.00    +0.000 NA
ATOM      6  C   UNL     1       2.132   5.005  18.642  0.00  0.00    +0.000 C 
ATOM      7  C   UNL     1       3.327   5.830  18.168  0.00  0.00    +0.000 C 
BRANCH   5   8
ATOM      8  C   UNL     1       1.247   3.603  20.453  0.00  0.00    +0.000 C 
ATOM      9  C   UNL     1       0.577   2.746  19.366  0.00  0.00    +0.000 C 
ATOM     10  C   UNL     1       1.598   2.661  21.620  0.00  0.00    +0.000 C 
ENDBRANCH   5   8
ENDBRANCH   1   2
BRANCH   1  11
ATOM     11  N   UNL     1       5.643   3.643  16.075  0.00  0.00    +0.000 NA
ATOM     12  H   UNL     1       6.317   3.175  16.681  0.00  0.00    +0.000 HD
BRANCH  11  13
ATOM     13  S   UNL     1       6.461   4.899  15.288  0.00  0.00    +0.000 S 
ATOM     14  O   UNL     1       7.692   5.085  16.013  0.00  0.00    +0.000 OA
ATOM     15  O   UNL     1       5.511   5.977  15.113  0.00  0.00    +0.000 OA
BRANCH  13  16
ATOM     16  C   UNL     1       6.820   4.162  13.690  0.00  0.00    +0.000 C 
BRANCH  16  18
ATOM     17  C   UNL     1       5.812   2.752  11.866  0.00  0.00    +0.000 C 
ATOM     18  C   UNL     1       5.538   3.738  12.988  0.00  0.00    +0.000 C 
ENDBRANCH  16  18
ENDBRANCH  13  16
ENDBRANCH  11  13
ENDBRANCH   1  11
TORSDOF 6
ENDMDL
MODEL 8
REMARK VINA RESULT:      -6.2      2.914      6.010
REMARK  Name = 
REMARK  9 active torsions:
REMARK  status: ('A' for Active; 'I' for Inactive)
REMARK    1  A    between atoms: C_1  and  C_2
REMARK    2  A    between atoms: C_2  and  C_3
REMARK    3  A    between atoms: C_3  and  S_4
REMARK    4  A    between atoms: S_4  and  N_7
REMARK    5  A    between atoms: N_7  and  C_8
REMARK    6  A    between atoms: C_8  and  C_9
REMARK    7  A    between atoms: N_12  and  C_13
REMARK    8  A    between atoms: C_13  and  C_14
REMARK    9  A    between atoms: C_13  and  C_15
REMARK                            x       y       z     vdW  Elec       q    Type
REMARK                         _______ _______ _______ _____ _____    ______ ____
ROOT
ATOM      1  C   UNL     1       4.633   4.845  18.401  0.00  0.00    +0.000 C 
ENDROOT
BRANCH   1   2
ATOM      2  C   UNL     1       5.609   5.975  18.030  0.00  0.00    +0.000 C 
ATOM      3  C   UNL     1       5.176   6.679  16.734  0.00  0.00    +0.000 C 
ATOM      4  C   UNL     1       5.467   5.877  15.454  0.00  0.00    +0.000 C 
ATOM      5  N   UNL     1       6.834   5.322  15.383  0.00  0.00    +0.000 NA
ATOM      6  C   UNL     1       7.167   4.585  16.611  0.00  0.00    +0.000 C 
ATOM      7  C   UNL     1       7.044   5.488  17.837  0.00  0.00    +0.000 C 
BRANCH   5   8
ATOM      8  C   UNL     1       7.031   4.490  14.162  0.00  0.00    +0.000 C 
ATOM      9  C   UNL     1       5.695   3.963  13.611  0.00  0.00    +0.000 C 
ATOM     10  C   UNL     1       7.724   5.251  13.015  0.00  0.00    +0.000 C 
ENDBRANCH   5   8
ENDBRANCH   1   2
BRANCH   1  11
ATOM     11  N   UNL     1       5.248   3.886  19.348  0.00  0.00    +0.000 NA
ATOM     12  H   UNL     1       6.172   3.538  19.092  0.00  0.00    +0.000 HD
BRANCH  11  13
ATOM     13  S   UNL     1       4.304   2.545  19.769  0.00  0.00    +0.000 S 
ATOM     14  O   UNL     1       5.114   1.754  20.660  0.00  0.00    +0.000 OA
ATOM     15  O   UNL     1       3.773   2.000  18.538  0.00  0.00    +0.000 OA
BRANCH  13  16
ATOM     16  C   UNL     1       2.971   3.309  20.700  0.00  0.00    +0.000 C 
BRANCH  16  18
ATOM     17  C   UNL     1       0.690   3.088  19.662  0.00  0.00    +0.000 C 
ATOM     18  C   UNL     1       1.702   2.474  20.614  0.00  0.00    +0.000 C 
ENDBRANCH  16  18
ENDBRANCH  13  16
ENDBRANCH  11  13
ENDBRANCH   1  11
TORSDOF 6
ENDMDL
MODEL 9
REMARK VINA RESULT:      -6.2      2.778      3.899
REMARK  Name = 
REMARK  9 active torsions:
REMARK  status: ('A' for Active; 'I' for Inactive)
REMARK    1  A    between atoms: C_1  and  C_2
REMARK    2  A    between atoms: C_2  and  C_3
REMARK    3  A    between atoms: C_3  and  S_4
REMARK    4  A    between atoms: S_4  and  N_7
REMARK    5  A    between atoms: N_7  and  C_8
REMARK    6  A    between atoms: C_8  and  C_9
REMARK    7  A    between atoms: N_12  and  C_13
REMARK    8  A    between atoms: C_13  and  C_14
REMARK    9  A    between atoms: C_13  and  C_15
REMARK                            x       y       z     vdW  Elec       q    Type
REMARK                         _______ _______ _______ _____ _____    ______ ____
ROOT
ATOM      1  C   UNL     1       4.828   3.771  17.407  0.00  0.00    +0.000 C 
ENDROOT
BRANCH   1   2
ATOM      2  C   UNL     1       3.745   2.693  17.233  0.00  0.00    +0.000 C 
ATOM      3  C   UNL     1       2.362   3.327  17.009  0.00  0.00    +0.000 C 
ATOM      4  C   UNL     1       1.719   3.904  18.282  0.00  0.00    +0.000 C 
ATOM      5  N   UNL     1       1.758   2.996  19.447  0.00  0.00    +0.000 NA
ATOM      6  C   UNL     1       3.120   2.487  19.670  0.00  0.00    +0.000 C 
ATOM      7  C   UNL     1       3.636   1.754  18.433  0.00  0.00    +0.000 C 
BRANCH   5   8
ATOM      8  C   UNL     1       1.196   3.639  20.668  0.00  0.00    +0.000 C 
ATOM      9  C   UNL     1       1.578   2.871  21.944  0.00  0.00    +0.000 C 
ATOM     10  C   UNL     1       1.666   5.094  20.859  0.00  0.00    +0.000 C 
ENDBRANCH   5   8
ENDBRANCH   1   2
BRANCH   1  11
ATOM     11  N   UNL     1       4.952   4.617  16.196  0.00  0.00    +0.000 NA
ATOM     12  H   UNL     1       5.549   4.247  15.455  0.00  0.00    +0.000 HD
BRANCH  11  13
ATOM     13  S   UNL     1       5.407   6.226  16.454  0.00  0.00    +0.000 S 
ATOM     14  O   UNL     1       4.740   6.638  17.662  0.00  0.00    +0.000 OA
ATOM     15  O   UNL     1       5.214   6.926  15.202  0.00  0.00    +0.000 OA
BRANCH  13  16
ATOM     16  C   UNL     1       7.167   6.065  16.775  0.00  0.00    +0.000 C 
BRANCH  16  18
ATOM     17  C   UNL     1       7.915   8.267  17.735  0.00  0.00    +0.000 C 
ATOM     18  C   UNL     1       7.560   6.821  18.036  0.00  0.00    +0.000 C 
ENDBRANCH  16  18
ENDBRANCH  13  16
ENDBRANCH  11  13
ENDBRANCH   1  11
TORSDOF 6
ENDMDL
