MODEL 1
REMARK VINA RESULT:      -8.2      0.000      0.000
REMARK  Name = 
REMARK  8 active torsions:
REMARK  status: ('A' for Active; 'I' for Inactive)
REMARK    1  A    between atoms: C_1  and  O_2
REMARK    2  A    between atoms: O_2  and  C_3
REMARK    3  A    between atoms: C_6  and  C_7
REMARK    4  A    between atoms: C_10  and  C_11
REMARK    5  A    between atoms: N_16  and  C_17
REMARK    6  A    between atoms: N_22  and  C_23
REMARK    7  A    between atoms: C_27  and  O_28
REMARK    8  A    between atoms: O_28  and  C_29
REMARK                            x       y       z     vdW  Elec       q    Type
REMARK                         _______ _______ _______ _____ _____    ______ ____
ROOT
ATOM      1  C   UNL     1       2.815   6.998  18.668  0.00  0.00    +0.000 A 
ATOM      2  C   UNL     1       2.351   6.646  19.919  0.00  0.00    +0.000 A 
ATOM      3  S   UNL     1       1.330   7.840  20.599  0.00  0.00    +0.000 S 
ATOM      4  C   UNL     1       1.474   8.850  19.223  0.00  0.00    +0.000 A 
ATOM      5  C   UNL     1       2.324   8.287  18.290  0.00  0.00    +0.000 A 
ENDROOT
BRANCH   4   6
ATOM      6  C   UNL     1       0.738  10.094  19.124  0.00  0.00    +0.000 A 
ATOM      7  N   UNL     1       1.343  11.118  19.811  0.00  0.00    +0.000 NA
ATOM      8  C   UNL     1       0.828  12.307  19.717  0.00  0.00    +0.000 A 
ATOM      9  C   UNL     1       1.463  13.459  20.433  0.00  0.00    +0.000 A 
ATOM     10  O   UNL     1       2.405  13.265  21.188  0.00  0.00    +0.000 OA
ATOM     11  N   UNL     1       0.890  14.680  20.150  0.00  0.00    +0.000 N 
ATOM     12  C   UNL     1       1.459  15.875  20.742  0.00  0.00    +0.000 C 
ATOM     13  C   UNL     1      -0.226  14.849  19.336  0.00  0.00    +0.000 A 
ATOM     14  O   UNL     1      -0.675  15.973  19.130  0.00  0.00    +0.000 OA
ATOM     15  N   UNL     1      -0.828  13.767  18.759  0.00  0.00    +0.000 NA
ATOM     16  C   UNL     1      -0.388  12.562  18.893  0.00  0.00    +0.000 A 
ATOM     17  N   UNL     1      -0.938  11.431  18.329  0.00  0.00    +0.000 N 
ATOM     18  C   UNL     1      -2.081  11.483  17.431  0.00  0.00    +0.000 C 
ATOM     19  N   UNL     1      -0.352  10.197  18.424  0.00  0.00    +0.000 NA
ENDBRANCH   4   6
BRANCH   1  23
ATOM     20  C   UNL     1       5.356   4.473  16.325  0.00  0.00    +0.000 A 
ATOM     21  C   UNL     1       4.118   4.018  16.800  0.00  0.00    +0.000 A 
ATOM     22  C   UNL     1       3.286   4.854  17.542  0.00  0.00    +0.000 A 
ATOM     23  C   UNL     1       3.693   6.148  17.871  0.00  0.00    +0.000 A 
ATOM     24  C   UNL     1       4.963   6.573  17.465  0.00  0.00    +0.000 A 
ATOM     25  C   UNL     1       5.805   5.750  16.699  0.00  0.00    +0.000 A 
BRANCH  20  27
ATOM     26  C   UNL     1       6.040   3.950  14.124  0.00  0.00    +0.000 C 
ATOM     27  O   UNL     1       6.132   3.680  15.523  0.00  0.00    +0.000 OA
ENDBRANCH  20  27
BRANCH  25  28
ATOM     28  O   UNL     1       6.992   6.366  16.405  0.00  0.00    +0.000 OA
ATOM     29  C   UNL     1       7.558   7.258  17.351  0.00  0.00    +0.000 C 
ENDBRANCH  25  28
ENDBRANCH   1  23
TORSDOF 4
ENDMDL
MODEL 2
REMARK VINA RESULT:      -8.1      0.957      1.839
REMARK  Name = 
REMARK  8 active torsions:
REMARK  status: ('A' for Active; 'I' for Inactive)
REMARK    1  A    between atoms: C_1  and  O_2
REMARK    2  A    between atoms: O_2  and  C_3
REMARK    3  A    between atoms: C_6  and  C_7
REMARK    4  A    between atoms: C_10  and  C_11
REMARK    5  A    between atoms: N_16  and  C_17
REMARK    6  A    between atoms: N_22  and  C_23
REMARK    7  A    between atoms: C_27  and  O_28
REMARK    8  A    between atoms: O_28  and  C_29
REMARK                            x       y       z     vdW  Elec       q    Type
REMARK                         _______ _______ _______ _____ _____    ______ ____
ROOT
ATOM      1  C   UNL     1       2.684   7.081  18.643  0.00  0.00    +0.000 A 
ATOM      2  C   UNL     1       2.280   6.824  19.937  0.00  0.00    +0.000 A 
ATOM      3  S   UNL     1       1.356   8.102  20.602  0.00  0.00    +0.000 S 
ATOM      4  C   UNL     1       1.462   9.024  19.162  0.00  0.00    +0.000 A 
ATOM      5  C   UNL     1       2.230   8.369  18.217  0.00  0.00    +0.000 A 
ENDROOT
BRANCH   4   6
ATOM      6  C   UNL     1       0.778  10.293  19.031  0.00  0.00    +0.000 A 
ATOM      7  N   UNL     1       1.523  11.344  19.508  0.00  0.00    +0.000 NA
ATOM      8  C   UNL     1       1.055  12.547  19.357  0.00  0.00    +0.000 A 
ATOM      9  C   UNL     1       1.840  13.725  19.845  0.00  0.00    +0.000 A 
ATOM     10  O   UNL     1       2.873  13.551  20.477  0.00  0.00    +0.000 OA
ATOM     11  N   UNL     1       1.289  14.943  19.512  0.00  0.00    +0.000 N 
ATOM     12  C   UNL     1       1.993  16.155  19.882  0.00  0.00    +0.000 C 
ATOM     13  C   UNL     1       0.075  15.096  18.849  0.00  0.00    +0.000 A 
ATOM     14  O   UNL     1      -0.347  16.218  18.586  0.00  0.00    +0.000 OA
ATOM     15  N   UNL     1      -0.655  13.999  18.486  0.00  0.00    +0.000 NA
ATOM     16  C   UNL     1      -0.256  12.789  18.689  0.00  0.00    +0.000 A 
ATOM     17  N   UNL     1      -0.933  11.642  18.336  0.00  0.00    +0.000 N 
ATOM     18  C   UNL     1      -2.192  11.672  17.609  0.00  0.00    +0.000 C 
ATOM     19  N   UNL     1      -0.397  10.391  18.484  0.00  0.00    +0.000 NA
ENDBRANCH   4   6
BRANCH   1  23
ATOM     20  C   UNL     1       5.035   4.375  16.304  0.00  0.00    +0.000 A 
ATOM     21  C   UNL     1       5.173   5.763  16.166  0.00  0.00    +0.000 A 
ATOM     22  C   UNL     1       4.422   6.638  16.948  0.00  0.00    +0.000 A 
ATOM     23  C   UNL     1       3.476   6.146  17.850  0.00  0.00    +0.000 A 
ATOM     24  C   UNL     1       3.282   4.763  17.929  0.00  0.00    +0.000 A 
ATOM     25  C   UNL     1       4.047   3.868  17.163  0.00  0.00    +0.000 A 
BRANCH  20  27
ATOM     26  C   UNL     1       6.437   4.070  14.426  0.00  0.00    +0.000 C 
ATOM     27  O   UNL     1       5.837   3.518  15.598  0.00  0.00    +0.000 OA
ENDBRANCH  20  27
BRANCH  25  28
ATOM     28  O   UNL     1       3.699   2.565  17.402  0.00  0.00    +0.000 OA
ATOM     29  C   UNL     1       3.679   2.091  18.738  0.00  0.00    +0.000 C 
ENDBRANCH  25  28
ENDBRANCH   1  23
TORSDOF 4
ENDMDL
MODEL 3
REMARK VINA RESULT:      -7.9      1.906      2.513
REMARK  Name = 
REMARK  8 active torsions:
REMARK  status: ('A' for Active; 'I' for Inactive)
REMARK    1  A    between atoms: C_1  and  O_2
REMARK    2  A    between atoms: O_2  and  C_3
REMARK    3  A    between atoms: C_6  and  C_7
REMARK    4  A    between atoms: C_10  and  C_11
REMARK    5  A    between atoms: N_16  and  C_17
REMARK    6  A    between atoms: N_22  and  C_23
REMARK    7  A    between atoms: C_27  and  O_28
REMARK    8  A    between atoms: O_28  and  C_29
REMARK                            x       y       z     vdW  Elec       q    Type
REMARK                         _______ _______ _______ _____ _____    ______ ____
ROOT
ATOM      1  C   UNL     1       3.379   5.828  18.695  0.00  0.00    +0.000 A 
ATOM      2  C   UNL     1       2.686   4.912  19.461  0.00  0.00    +0.000 A 
ATOM      3  S   UNL     1       1.614   5.659  20.566  0.00  0.00    +0.000 S 
ATOM      4  C   UNL     1       2.042   7.229  20.032  0.00  0.00    +0.000 A 
ATOM      5  C   UNL     1       3.020   7.164  19.056  0.00  0.00    +0.000 A 
ENDROOT
BRANCH   4   6
ATOM      6  C   UNL     1       1.390   8.408  20.564  0.00  0.00    +0.000 A 
ATOM      7  N   UNL     1       1.435   9.471  19.695  0.00  0.00    +0.000 NA
ATOM      8  C   UNL     1       0.799  10.556  20.020  0.00  0.00    +0.000 A 
ATOM      9  C   UNL     1       0.805  11.735  19.096  0.00  0.00    +0.000 A 
ATOM     10  O   UNL     1       1.490  11.714  18.083  0.00  0.00    +0.000 OA
ATOM     11  N   UNL     1      -0.007  12.771  19.504  0.00  0.00    +0.000 N 
ATOM     12  C   UNL     1      -0.126  13.942  18.659  0.00  0.00    +0.000 C 
ATOM     13  C   UNL     1      -0.719  12.781  20.700  0.00  0.00    +0.000 A 
ATOM     14  O   UNL     1      -1.424  13.743  20.991  0.00  0.00    +0.000 OA
ATOM     15  N   UNL     1      -0.640  11.720  21.558  0.00  0.00    +0.000 NA
ATOM     16  C   UNL     1       0.044  10.656  21.301  0.00  0.00    +0.000 A 
ATOM     17  N   UNL     1       0.154   9.548  22.113  0.00  0.00    +0.000 N 
ATOM     18  C   UNL     1      -0.570   9.425  23.368  0.00  0.00    +0.000 C 
ATOM     19  N   UNL     1       0.809   8.409  21.725  0.00  0.00    +0.000 NA
ENDBRANCH   4   6
BRANCH   1  23
ATOM     20  C   UNL     1       6.189   4.678  15.678  0.00  0.00    +0.000 A 
ATOM     21  C   UNL     1       5.058   3.896  15.954  0.00  0.00    +0.000 A 
ATOM     22  C   UNL     1       4.135   4.290  16.921  0.00  0.00    +0.000 A 
ATOM     23  C   UNL     1       4.348   5.447  17.673  0.00  0.00    +0.000 A 
ATOM     24  C   UNL     1       5.517   6.183  17.453  0.00  0.00    +0.000 A 
ATOM     25  C   UNL     1       6.447   5.810  16.467  0.00  0.00    +0.000 A 
BRANCH  20  27
ATOM     26  C   UNL     1       6.425   3.880  13.466  0.00  0.00    +0.000 C 
ATOM     27  O   UNL     1       7.047   4.335  14.668  0.00  0.00    +0.000 OA
ENDBRANCH  20  27
BRANCH  25  28
ATOM     28  O   UNL     1       7.510   6.672  16.416  0.00  0.00    +0.000 OA
ATOM     29  C   UNL     1       7.637   7.669  17.416  0.00  0.00    +0.000 C 
ENDBRANCH  25  28
ENDBRANCH   1  23
TORSDOF 4
ENDMDL
MODEL 4
REMARK VINA RESULT:      -7.7      4.033      9.912
REMARK  Name = 
REMARK  8 active torsions:
REMARK  status: ('A' for Active; 'I' for Inactive)
REMARK    1  A    between atoms: C_1  and  O_2
REMARK    2  A    between atoms: O_2  and  C_3
REMARK    3  A    between atoms: C_6  and  C_7
REMARK    4  A    between atoms: C_10  and  C_11
REMARK    5  A    between atoms: N_16  and  C_17
REMARK    6  A    between atoms: N_22  and  C_23
REMARK    7  A    between atoms: C_27  and  O_28
REMARK    8  A    between atoms: O_28  and  C_29
REMARK                            x       y       z     vdW  Elec       q    Type
REMARK                         _______ _______ _______ _____ _____    ______ ____
ROOT
ATOM      1  C   UNL     1       0.402  10.538  19.962  0.00  0.00    +0.000 A 
ATOM      2  C   UNL     1       0.883  11.268  18.895  0.00  0.00    +0.000 A 
ATOM      3  S   UNL     1       1.976  10.372  17.928  0.00  0.00    +0.000 S 
ATOM      4  C   UNL     1       1.815   8.978  18.909  0.00  0.00    +0.000 A 
ATOM      5  C   UNL     1       0.971   9.225  19.976  0.00  0.00    +0.000 A 
ENDROOT
BRANCH   4   6
ATOM      6  C   UNL     1       2.484   7.739  18.570  0.00  0.00    +0.000 A 
ATOM      7  N   UNL     1       1.950   6.657  19.226  0.00  0.00    +0.000 NA
ATOM      8  C   UNL     1       2.403   5.476  18.931  0.00  0.00    +0.000 A 
ATOM      9  C   UNL     1       1.840   4.264  19.607  0.00  0.00    +0.000 A 
ATOM     10  O   UNL     1       1.025   4.392  20.509  0.00  0.00    +0.000 OA
ATOM     11  N   UNL     1       2.322   3.071  19.113  0.00  0.00    +0.000 N 
ATOM     12  C   UNL     1       1.804   1.830  19.652  0.00  0.00    +0.000 C 
ATOM     13  C   UNL     1       3.301   2.972  18.130  0.00  0.00    +0.000 A 
ATOM     14  O   UNL     1       3.676   1.869  17.741  0.00  0.00    +0.000 OA
ATOM     15  N   UNL     1       3.851   4.100  17.588  0.00  0.00    +0.000 NA
ATOM     16  C   UNL     1       3.478   5.291  17.913  0.00  0.00    +0.000 A 
ATOM     17  N   UNL     1       3.979   6.467  17.398  0.00  0.00    +0.000 N 
ATOM     18  C   UNL     1       4.977   6.492  16.340  0.00  0.00    +0.000 C 
ATOM     19  N   UNL     1       3.456   7.693  17.710  0.00  0.00    +0.000 NA
ENDBRANCH   4   6
BRANCH   1  23
ATOM     20  C   UNL     1      -2.367  12.078  22.840  0.00  0.00    +0.000 A 
ATOM     21  C   UNL     1      -1.409  11.118  23.195  0.00  0.00    +0.000 A 
ATOM     22  C   UNL     1      -0.495  10.639  22.258  0.00  0.00    +0.000 A 
ATOM     23  C   UNL     1      -0.551  11.069  20.931  0.00  0.00    +0.000 A 
ATOM     24  C   UNL     1      -1.559  11.966  20.560  0.00  0.00    +0.000 A 
ATOM     25  C   UNL     1      -2.474  12.473  21.498  0.00  0.00    +0.000 A 
BRANCH  20  27
ATOM     26  C   UNL     1      -2.877  13.931  24.215  0.00  0.00    +0.000 C 
ATOM     27  O   UNL     1      -3.206  12.611  23.782  0.00  0.00    +0.000 OA
ENDBRANCH  20  27
BRANCH  25  28
ATOM     28  O   UNL     1      -3.366  13.339  20.923  0.00  0.00    +0.000 OA
ATOM     29  C   UNL     1      -4.412  12.818  20.119  0.00  0.00    +0.000 C 
ENDBRANCH  25  28
ENDBRANCH   1  23
TORSDOF 4
ENDMDL
MODEL 5
REMARK VINA RESULT:      -7.7      1.905      1.973
REMARK  Name = 
REMARK  8 active torsions:
REMARK  status: ('A' for Active; 'I' for Inactive)
REMARK    1  A    between atoms: C_1  and  O_2
REMARK    2  A    between atoms: O_2  and  C_3
REMARK    3  A    between atoms: C_6  and  C_7
REMARK    4  A    between atoms: C_10  and  C_11
REMARK    5  A    between atoms: N_16  and  C_17
REMARK    6  A    between atoms: N_22  and  C_23
REMARK    7  A    between atoms: C_27  and  O_28
REMARK    8  A    between atoms: O_28  and  C_29
REMARK                            x       y       z     vdW  Elec       q    Type
REMARK                         _______ _______ _______ _____ _____    ______ ____
ROOT
ATOM      1  C   UNL     1       3.299   6.790  18.535  0.00  0.00    +0.000 A 
ATOM      2  C   UNL     1       2.937   6.187  19.723  0.00  0.00    +0.000 A 
ATOM      3  S   UNL     1       1.689   7.033  20.534  0.00  0.00    +0.000 S 
ATOM      4  C   UNL     1       1.592   8.218  19.300  0.00  0.00    +0.000 A 
ATOM      5  C   UNL     1       2.534   7.979  18.317  0.00  0.00    +0.000 A 
ENDROOT
BRANCH   4   6
ATOM      6  C   UNL     1       0.602   9.273  19.348  0.00  0.00    +0.000 A 
ATOM      7  N   UNL     1       0.435   9.779  20.614  0.00  0.00    +0.000 NA
ATOM      8  C   UNL     1      -0.358  10.798  20.768  0.00  0.00    +0.000 A 
ATOM      9  C   UNL     1      -0.558  11.395  22.127  0.00  0.00    +0.000 A 
ATOM     10  O   UNL     1      -0.057  10.864  23.108  0.00  0.00    +0.000 OA
ATOM     11  N   UNL     1      -1.323  12.542  22.128  0.00  0.00    +0.000 N 
ATOM     12  C   UNL     1      -1.536  13.239  23.380  0.00  0.00    +0.000 C 
ATOM     13  C   UNL     1      -1.932  13.076  20.997  0.00  0.00    +0.000 A 
ATOM     14  O   UNL     1      -2.597  14.104  21.080  0.00  0.00    +0.000 OA
ATOM     15  N   UNL     1      -1.792  12.461  19.784  0.00  0.00    +0.000 NA
ATOM     16  C   UNL     1      -1.074  11.404  19.609  0.00  0.00    +0.000 A 
ATOM     17  N   UNL     1      -0.879  10.744  18.415  0.00  0.00    +0.000 N 
ATOM     18  C   UNL     1      -1.432  11.225  17.158  0.00  0.00    +0.000 C 
ATOM     19  N   UNL     1      -0.013   9.691  18.284  0.00  0.00    +0.000 NA
ENDBRANCH   4   6
BRANCH   1  23
ATOM     20  C   UNL     1       6.300   5.207  15.925  0.00  0.00    +0.000 A 
ATOM     21  C   UNL     1       5.084   4.537  16.125  0.00  0.00    +0.000 A 
ATOM     22  C   UNL     1       4.103   5.071  16.958  0.00  0.00    +0.000 A 
ATOM     23  C   UNL     1       4.333   6.261  17.652  0.00  0.00    +0.000 A 
ATOM     24  C   UNL     1       5.576   6.886  17.514  0.00  0.00    +0.000 A 
ATOM     25  C   UNL     1       6.569   6.371  16.662  0.00  0.00    +0.000 A 
BRANCH  20  27
ATOM     26  C   UNL     1       6.700   4.269  13.793  0.00  0.00    +0.000 C 
ATOM     27  O   UNL     1       7.226   4.726  15.039  0.00  0.00    +0.000 OA
ENDBRANCH  20  27
BRANCH  25  28
ATOM     28  O   UNL     1       7.700   7.142  16.672  0.00  0.00    +0.000 OA
ATOM     29  C   UNL     1       7.796   8.215  17.595  0.00  0.00    +0.000 C 
ENDBRANCH  25  28
ENDBRANCH   1  23
TORSDOF 4
ENDMDL
MODEL 6
REMARK VINA RESULT:      -7.6      1.049      1.051
REMARK  Name = 
REMARK  8 active torsions:
REMARK  status: ('A' for Active; 'I' for Inactive)
REMARK    1  A    between atoms: C_1  and  O_2
REMARK    2  A    between atoms: O_2  and  C_3
REMARK    3  A    between atoms: C_6  and  C_7
REMARK    4  A    between atoms: C_10  and  C_11
REMARK    5  A    between atoms: N_16  and  C_17
REMARK    6  A    between atoms: N_22  and  C_23
REMARK    7  A    between atoms: C_27  and  O_28
REMARK    8  A    between atoms: O_28  and  C_29
REMARK                            x       y       z     vdW  Elec       q    Type
REMARK                         _______ _______ _______ _____ _____    ______ ____
ROOT
ATOM      1  C   UNL     1       2.410   7.383  19.022  0.00  0.00    +0.000 A 
ATOM      2  C   UNL     1       1.942   7.045  20.276  0.00  0.00    +0.000 A 
ATOM      3  S   UNL     1       1.016   8.296  20.989  0.00  0.00    +0.000 S 
ATOM      4  C   UNL     1       1.207   9.314  19.625  0.00  0.00    +0.000 A 
ATOM      5  C   UNL     1       2.003   8.709  18.671  0.00  0.00    +0.000 A 
ENDROOT
BRANCH   4   6
ATOM      6  C   UNL     1       0.557  10.606  19.555  0.00  0.00    +0.000 A 
ATOM      7  N   UNL     1       1.455  11.640  19.444  0.00  0.00    +0.000 NA
ATOM      8  C   UNL     1       0.988  12.842  19.276  0.00  0.00    +0.000 A 
ATOM      9  C   UNL     1       1.928  13.999  19.132  0.00  0.00    +0.000 A 
ATOM     10  O   UNL     1       3.131  13.830  19.274  0.00  0.00    +0.000 OA
ATOM     11  N   UNL     1       1.306  15.193  18.837  0.00  0.00    +0.000 N 
ATOM     12  C   UNL     1       2.122  16.371  18.618  0.00  0.00    +0.000 C 
ATOM     13  C   UNL     1      -0.073  15.355  18.750  0.00  0.00    +0.000 A 
ATOM     14  O   UNL     1      -0.550  16.453  18.479  0.00  0.00    +0.000 OA
ATOM     15  N   UNL     1      -0.906  14.293  18.963  0.00  0.00    +0.000 NA
ATOM     16  C   UNL     1      -0.479  13.100  19.209  0.00  0.00    +0.000 A 
ATOM     17  N   UNL     1      -1.261  11.986  19.419  0.00  0.00    +0.000 N 
ATOM     18  C   UNL     1      -2.712  12.020  19.318  0.00  0.00    +0.000 C 
ATOM     19  N   UNL     1      -0.736  10.729  19.564  0.00  0.00    +0.000 NA
ENDBRANCH   4   6
BRANCH   1  23
ATOM     20  C   UNL     1       4.738   4.723  16.610  0.00  0.00    +0.000 A 
ATOM     21  C   UNL     1       3.551   4.297  17.222  0.00  0.00    +0.000 A 
ATOM     22  C   UNL     1       2.786   5.176  17.986  0.00  0.00    +0.000 A 
ATOM     23  C   UNL     1       3.216   6.487  18.200  0.00  0.00    +0.000 A 
ATOM     24  C   UNL     1       4.441   6.887  17.656  0.00  0.00    +0.000 A 
ATOM     25  C   UNL     1       5.214   6.018  16.866  0.00  0.00    +0.000 A 
BRANCH  20  27
ATOM     26  C   UNL     1       5.480   4.265  14.413  0.00  0.00    +0.000 C 
ATOM     27  O   UNL     1       5.442   3.883  15.788  0.00  0.00    +0.000 OA
ENDBRANCH  20  27
BRANCH  25  28
ATOM     28  O   UNL     1       6.367   6.615  16.430  0.00  0.00    +0.000 OA
ATOM     29  C   UNL     1       7.438   6.795  17.342  0.00  0.00    +0.000 C 
ENDBRANCH  25  28
ENDBRANCH   1  23
TORSDOF 4
ENDMDL
MODEL 7
REMARK VINA RESULT:      -7.6      3.923      9.422
REMARK  Name = 
REMARK  8 active torsions:
REMARK  status: ('A' for Active; 'I' for Inactive)
REMARK    1  A    between atoms: C_1  and  O_2
REMARK    2  A    between atoms: O_2  and  C_3
REMARK    3  A    between atoms: C_6  and  C_7
REMARK    4  A    between atoms: C_10  and  C_11
REMARK    5  A    between atoms: N_16  and  C_17
REMARK    6  A    between atoms: N_22  and  C_23
REMARK    7  A    between atoms: C_27  and  O_28
REMARK    8  A    between atoms: O_28  and  C_29
REMARK                            x       y       z     vdW  Elec       q    Type
REMARK                         _______ _______ _______ _____ _____    ______ ____
ROOT
ATOM      1  C   UNL     1      -0.546  10.614  18.222  0.00  0.00    +0.000 A 
ATOM      2  C   UNL     1       0.363  11.536  18.700  0.00  0.00    +0.000 A 
ATOM      3  S   UNL     1       1.900  10.844  19.002  0.00  0.00    +0.000 S 
ATOM      4  C   UNL     1       1.385   9.296  18.482  0.00  0.00    +0.000 A 
ATOM      5  C   UNL     1       0.049   9.317  18.128  0.00  0.00    +0.000 A 
ENDROOT
BRANCH   4   6
ATOM      6  C   UNL     1       2.306   8.179  18.421  0.00  0.00    +0.000 A 
ATOM      7  N   UNL     1       2.026   7.216  19.359  0.00  0.00    +0.000 NA
ATOM      8  C   UNL     1       2.724   6.120  19.340  0.00  0.00    +0.000 A 
ATOM      9  C   UNL     1       2.443   5.033  20.331  0.00  0.00    +0.000 A 
ATOM     10  O   UNL     1       1.627   5.216  21.224  0.00  0.00    +0.000 OA
ATOM     11  N   UNL     1       3.170   3.881  20.121  0.00  0.00    +0.000 N 
ATOM     12  C   UNL     1       2.939   2.741  20.986  0.00  0.00    +0.000 C 
ATOM     13  C   UNL     1       4.139   3.738  19.133  0.00  0.00    +0.000 A 
ATOM     14  O   UNL     1       4.742   2.676  19.009  0.00  0.00    +0.000 OA
ATOM     15  N   UNL     1       4.425   4.777  18.293  0.00  0.00    +0.000 NA
ATOM     16  C   UNL     1       3.804   5.907  18.334  0.00  0.00    +0.000 A 
ATOM     17  N   UNL     1       4.032   6.988  17.510  0.00  0.00    +0.000 N 
ATOM     18  C   UNL     1       4.992   6.948  16.418  0.00  0.00    +0.000 C 
ATOM     19  N   UNL     1       3.257   8.117  17.539  0.00  0.00    +0.000 NA
ENDBRANCH   4   6
BRANCH   1  23
ATOM     20  C   UNL     1      -4.589  11.635  17.252  0.00  0.00    +0.000 A 
ATOM     21  C   UNL     1      -4.054  11.909  18.519  0.00  0.00    +0.000 A 
ATOM     22  C   UNL     1      -2.730  11.596  18.819  0.00  0.00    +0.000 A 
ATOM     23  C   UNL     1      -1.923  10.953  17.878  0.00  0.00    +0.000 A 
ATOM     24  C   UNL     1      -2.482  10.607  16.643  0.00  0.00    +0.000 A 
ATOM     25  C   UNL     1      -3.809  10.935  16.318  0.00  0.00    +0.000 A 
BRANCH  20  27
ATOM     26  C   UNL     1      -6.786  12.046  18.020  0.00  0.00    +0.000 C 
ATOM     27  O   UNL     1      -5.862  12.023  16.931  0.00  0.00    +0.000 OA
ENDBRANCH  20  27
BRANCH  25  28
ATOM     28  O   UNL     1      -4.146  10.512  15.060  0.00  0.00    +0.000 OA
ATOM     29  C   UNL     1      -3.118  10.107  14.170  0.00  0.00    +0.000 C 
ENDBRANCH  25  28
ENDBRANCH   1  23
TORSDOF 4
ENDMDL
MODEL 8
REMARK VINA RESULT:      -7.5      2.384      3.017
REMARK  Name = 
REMARK  8 active torsions:
REMARK  status: ('A' for Active; 'I' for Inactive)
REMARK    1  A    between atoms: C_1  and  O_2
REMARK    2  A    between atoms: O_2  and  C_3
REMARK    3  A    between atoms: C_6  and  C_7
REMARK    4  A    between atoms: C_10  and  C_11
REMARK    5  A    between atoms: N_16  and  C_17
REMARK    6  A    between atoms: N_22  and  C_23
REMARK    7  A    between atoms: C_27  and  O_28
REMARK    8  A    between atoms: O_28  and  C_29
REMARK                            x       y       z     vdW  Elec       q    Type
REMARK                         _______ _______ _______ _____ _____    ______ ____
ROOT
ATOM      1  C   UNL     1       2.307   7.372  19.102  0.00  0.00    +0.000 A 
ATOM      2  C   UNL     1       2.475   8.070  17.923  0.00  0.00    +0.000 A 
ATOM      3  S   UNL     1       1.804   9.644  17.992  0.00  0.00    +0.000 S 
ATOM      4  C   UNL     1       1.287   9.431  19.611  0.00  0.00    +0.000 A 
ATOM      5  C   UNL     1       1.593   8.160  20.059  0.00  0.00    +0.000 A 
ENDROOT
BRANCH   4   6
ATOM      6  C   UNL     1       0.653  10.507  20.344  0.00  0.00    +0.000 A 
ATOM      7  N   UNL     1       0.786  11.721  19.715  0.00  0.00    +0.000 NA
ATOM      8  C   UNL     1       0.175  12.747  20.227  0.00  0.00    +0.000 A 
ATOM      9  C   UNL     1       0.276  14.088  19.567  0.00  0.00    +0.000 A 
ATOM     10  O   UNL     1       1.013  14.240  18.603  0.00  0.00    +0.000 OA
ATOM     11  N   UNL     1      -0.517  15.058  20.143  0.00  0.00    +0.000 N 
ATOM     12  C   UNL     1      -0.545  16.381  19.552  0.00  0.00    +0.000 C 
ATOM     13  C   UNL     1      -1.290  14.859  21.282  0.00  0.00    +0.000 A 
ATOM     14  O   UNL     1      -1.972  15.774  21.733  0.00  0.00    +0.000 OA
ATOM     15  N   UNL     1      -1.299  13.643  21.906  0.00  0.00    +0.000 NA
ATOM     16  C   UNL     1      -0.644  12.622  21.467  0.00  0.00    +0.000 A 
ATOM     17  N   UNL     1      -0.619  11.367  22.038  0.00  0.00    +0.000 N 
ATOM     18  C   UNL     1      -1.414  11.027  23.207  0.00  0.00    +0.000 C 
ATOM     19  N   UNL     1       0.011  10.301  21.454  0.00  0.00    +0.000 NA
ENDBRANCH   4   6
BRANCH   1  23
ATOM     20  C   UNL     1       3.699   3.370  19.704  0.00  0.00    +0.000 A 
ATOM     21  C   UNL     1       2.395   3.746  20.055  0.00  0.00    +0.000 A 
ATOM     22  C   UNL     1       1.942   5.045  19.834  0.00  0.00    +0.000 A 
ATOM     23  C   UNL     1       2.797   6.013  19.305  0.00  0.00    +0.000 A 
ATOM     24  C   UNL     1       4.122   5.657  19.030  0.00  0.00    +0.000 A 
ATOM     25  C   UNL     1       4.588   4.347  19.228  0.00  0.00    +0.000 A 
BRANCH  20  27
ATOM     26  C   UNL     1       3.836   1.221  18.729  0.00  0.00    +0.000 C 
ATOM     27  O   UNL     1       4.114   2.072  19.841  0.00  0.00    +0.000 OA
ENDBRANCH  20  27
BRANCH  25  28
ATOM     28  O   UNL     1       5.908   4.218  18.888  0.00  0.00    +0.000 OA
ATOM     29  C   UNL     1       6.326   4.601  17.588  0.00  0.00    +0.000 C 
ENDBRANCH  25  28
ENDBRANCH   1  23
TORSDOF 4
ENDMDL
MODEL 9
REMARK VINA RESULT:      -7.5      2.388      2.989
REMARK  Name = 
REMARK  8 active torsions:
REMARK  status: ('A' for Active; 'I' for Inactive)
REMARK    1  A    between atoms: C_1  and  O_2
REMARK    2  A    between atoms: O_2  and  C_3
REMARK    3  A    between atoms: C_6  and  C_7
REMARK    4  A    between atoms: C_10  and  C_11
REMARK    5  A    between atoms: N_16  and  C_17
REMARK    6  A    between atoms: N_22  and  C_23
REMARK    7  A    between atoms: C_27  and  O_28
REMARK    8  A    between atoms: O_28  and  C_29
REMARK                            x       y       z     vdW  Elec       q    Type
REMARK                         _______ _______ _______ _____ _____    ______ ____
ROOT
ATOM      1  C   UNL     1       2.353   7.394  19.156  0.00  0.00    +0.000 A 
ATOM      2  C   UNL     1       2.019   6.983  20.431  0.00  0.00    +0.000 A 
ATOM      3  S   UNL     1       1.051   8.128  21.257  0.00  0.00    +0.000 S 
ATOM      4  C   UNL     1       1.043   9.195  19.917  0.00  0.00    +0.000 A 
ATOM      5  C   UNL     1       1.807   8.688  18.882  0.00  0.00    +0.000 A 
ENDROOT
BRANCH   4   6
ATOM      6  C   UNL     1       0.281  10.426  19.942  0.00  0.00    +0.000 A 
ATOM      7  N   UNL     1      -0.406  10.595  21.119  0.00  0.00    +0.000 NA
ATOM      8  C   UNL     1      -1.050  11.709  21.300  0.00  0.00    +0.000 A 
ATOM      9  C   UNL     1      -1.799  11.946  22.574  0.00  0.00    +0.000 A 
ATOM     10  O   UNL     1      -1.891  11.052  23.404  0.00  0.00    +0.000 OA
ATOM     11  N   UNL     1      -2.332  13.212  22.685  0.00  0.00    +0.000 N 
ATOM     12  C   UNL     1      -3.030  13.574  23.903  0.00  0.00    +0.000 C 
ATOM     13  C   UNL     1      -2.262  14.179  21.687  0.00  0.00    +0.000 A 
ATOM     14  O   UNL     1      -2.760  15.287  21.864  0.00  0.00    +0.000 OA
ATOM     15  N   UNL     1      -1.636  13.903  20.503  0.00  0.00    +0.000 NA
ATOM     16  C   UNL     1      -1.052  12.779  20.261  0.00  0.00    +0.000 A 
ATOM     17  N   UNL     1      -0.393  12.442  19.098  0.00  0.00    +0.000 N 
ATOM     18  C   UNL     1      -0.221  13.378  17.999  0.00  0.00    +0.000 C 
ATOM     19  N   UNL     1       0.300  11.269  18.954  0.00  0.00    +0.000 NA
ENDBRANCH   4   6
BRANCH   1  23
ATOM     20  C   UNL     1       4.757   5.088  16.468  0.00  0.00    +0.000 A 
ATOM     21  C   UNL     1       4.814   6.489  16.474  0.00  0.00    +0.000 A 
ATOM     22  C   UNL     1       4.046   7.232  17.369  0.00  0.00    +0.000 A 
ATOM     23  C   UNL     1       3.163   6.595  18.243  0.00  0.00    +0.000 A 
ATOM     24  C   UNL     1       3.048   5.202  18.180  0.00  0.00    +0.000 A 
ATOM     25  C   UNL     1       3.830   4.438  17.298  0.00  0.00    +0.000 A 
BRANCH  20  27
ATOM     26  C   UNL     1       6.960   4.702  15.707  0.00  0.00    +0.000 C 
ATOM     27  O   UNL     1       5.576   4.358  15.649  0.00  0.00    +0.000 OA
ENDBRANCH  20  27
BRANCH  25  28
ATOM     28  O   UNL     1       3.563   3.099  17.408  0.00  0.00    +0.000 OA
ATOM     29  C   UNL     1       2.268   2.685  17.814  0.00  0.00    +0.000 C 
ENDBRANCH  25  28
ENDBRANCH   1  23
TORSDOF 4
ENDMDL
