MODEL 1
REMARK VINA RESULT:      -6.7      0.000      0.000
REMARK  Name = 
REMARK  26 active torsions:
REMARK  status: ('A' for Active; 'I' for Inactive)
REMARK    1  A    between atoms: C_1  and  C_2
REMARK    2  A    between atoms: C_2  and  C_3
REMARK    3  A    between atoms: C_3  and  C_4
REMARK    4  A    between atoms: C_4  and  C_5
REMARK    5  A    between atoms: C_5  and  C_6
REMARK    6  A    between atoms: C_6  and  C_7
REMARK    7  A    between atoms: C_7  and  C_8
REMARK    8  A    between atoms: C_7  and  O_22
REMARK    9  A    between atoms: C_8  and  C_9
REMARK   10  A    between atoms: C_9  and  C_10
REMARK   11  A    between atoms: C_10  and  C_11
REMARK   12  A    between atoms: C_11  and  C_12
REMARK   13  A    between atoms: C_12  and  C_13
REMARK   14  A    between atoms: C_13  and  C_14
REMARK   15  A    between atoms: C_14  and  C_15
REMARK   16  A    between atoms: C_15  and  C_16
REMARK   17  A    between atoms: C_16  and  C_17
REMARK   18  A    between atoms: C_17  and  C_18
REMARK   19  A    between atoms: C_18  and  O_20
REMARK   20  A    between atoms: O_20  and  C_21
REMARK   21  A    between atoms: O_22  and  C_23
REMARK   22  A    between atoms: C_25  and  C_26
REMARK   23  A    between atoms: C_26  and  O_27
REMARK   24  A    between atoms: C_28  and  O_29
REMARK   25  A    between atoms: C_30  and  O_31
REMARK   26  A    between atoms: C_32  and  O_33
REMARK                            x       y       z     vdW  Elec       q    Type
REMARK                         _______ _______ _______ _____ _____    ______ ____
ROOT
ATOM      1  C   UNL     1       5.512   4.961  17.579  0.00  0.00    +0.000 C 
ENDROOT
BRANCH   1   2
ATOM      2  O   UNL     1       4.341   4.681  18.366  0.00  0.00    +0.000 OA
BRANCH   2   3
ATOM      3  C   UNL     1       3.603   3.526  17.965  0.00  0.00    +0.000 C 
ATOM      4  O   UNL     1       4.163   2.349  18.530  0.00  0.00    +0.000 OA
ATOM      5  C   UNL     1       4.188   2.401  19.962  0.00  0.00    +0.000 C 
ATOM      6  C   UNL     1       2.759   2.503  20.527  0.00  0.00    +0.000 C 
ATOM      7  C   UNL     1       2.023   3.705  19.909  0.00  0.00    +0.000 C 
ATOM      8  C   UNL     1       2.117   3.655  18.384  0.00  0.00    +0.000 C 
BRANCH   8   9
ATOM      9  O   UNL     1       1.487   4.787  17.778  0.00  0.00    +0.000 OA
ATOM     10  H   UNL     1       1.921   5.585  18.133  0.00  0.00    +0.000 HD
ENDBRANCH   8   9
BRANCH   7  11
ATOM     11  O   UNL     1       0.644   3.734  20.303  0.00  0.00    +0.000 OA
ATOM     12  H   UNL     1       0.232   4.535  19.926  0.00  0.00    +0.000 HD
ENDBRANCH   7  11
BRANCH   6  13
ATOM     13  O   UNL     1       2.788   2.595  21.956  0.00  0.00    +0.000 OA
ATOM     14  H   UNL     1       2.203   1.897  22.313  0.00  0.00    +0.000 HD
ENDBRANCH   6  13
BRANCH   5  15
ATOM     15  C   UNL     1       4.927   1.159  20.477  0.00  0.00    +0.000 C 
BRANCH  15  16
ATOM     16  O   UNL     1       5.509   1.368  21.757  0.00  0.00    +0.000 OA
ATOM     17  H   UNL     1       5.092   2.170  22.138  0.00  0.00    +0.000 HD
ENDBRANCH  15  16
ENDBRANCH   5  15
ENDBRANCH   2   3
ENDBRANCH   1   2
BRANCH   1  18
ATOM     18  C   UNL     1       5.824   6.471  17.687  0.00  0.00    +0.000 C 
BRANCH  18  19
ATOM     19  C   UNL     1       7.310   6.812  17.891  0.00  0.00    +0.000 C 
BRANCH  19  20
ATOM     20  C   UNL     1       7.696   8.254  17.534  0.00  0.00    +0.000 C 
BRANCH  20  21
ATOM     21  C   UNL     1       8.579   8.921  18.590  0.00  0.00    +0.000 C 
BRANCH  21  22
ATOM     22  C   UNL     1       8.956  10.323  18.140  0.00  0.00    +0.000 C 
BRANCH  22  23
ATOM     23  C   UNL     1      10.012  10.936  19.037  0.00  0.00    +0.000 C 
BRANCH  23  24
ATOM     24  C   UNL     1       9.405  11.136  20.415  0.00  0.00    +0.000 C 
BRANCH  24  25
ATOM     25  C   UNL     1      10.175  12.178  21.202  0.00  0.00    +0.000 C 
BRANCH  25  26
ATOM     26  C   UNL     1       9.237  12.837  22.201  0.00  0.00    +0.000 C 
BRANCH  26  27
ATOM     27  C   UNL     1       8.165  13.654  21.498  0.00  0.00    +0.000 C 
BRANCH  27  28
ATOM     28  C   UNL     1       8.781  14.878  20.873  0.00  0.00    +0.000 C 
ATOM     29  O   UNL     1       9.346  15.780  21.482  0.00  0.00    +0.000 OA
BRANCH  28  30
ATOM     30  O   UNL     1       8.620  14.838  19.523  0.00  0.00    +0.000 OA
ATOM     31  C   UNL     1       7.252  14.858  19.123  0.00  0.00    +0.000 C 
ENDBRANCH  28  30
ENDBRANCH  27  28
ENDBRANCH  26  27
ENDBRANCH  25  26
ENDBRANCH  24  25
ENDBRANCH  23  24
ENDBRANCH  22  23
ENDBRANCH  21  22
ENDBRANCH  20  21
ENDBRANCH  19  20
ENDBRANCH  18  19
ENDBRANCH   1  18
BRANCH   1  32
ATOM     32  C   UNL     1       5.317   4.505  16.129  0.00  0.00    +0.000 C 
BRANCH  32  33
ATOM     33  C   UNL     1       6.584   4.142  15.367  0.00  0.00    +0.000 C 
BRANCH  33  34
ATOM     34  C   UNL     1       6.480   4.316  13.850  0.00  0.00    +0.000 C 
BRANCH  34  35
ATOM     35  C   UNL     1       5.243   3.564  13.364  0.00  0.00    +0.000 C 
BRANCH  35  37
ATOM     36  C   UNL     1       4.033   3.315  11.197  0.00  0.00    +0.000 C 
ATOM     37  C   UNL     1       5.355   3.097  11.920  0.00  0.00    +0.000 C 
ENDBRANCH  35  37
ENDBRANCH  34  35
ENDBRANCH  33  34
ENDBRANCH  32  33
ENDBRANCH   1  32
TORSDOF 24
ENDMDL
MODEL 2
REMARK VINA RESULT:      -6.6      1.953      2.411
REMARK  Name = 
REMARK  26 active torsions:
REMARK  status: ('A' for Active; 'I' for Inactive)
REMARK    1  A    between atoms: C_1  and  C_2
REMARK    2  A    between atoms: C_2  and  C_3
REMARK    3  A    between atoms: C_3  and  C_4
REMARK    4  A    between atoms: C_4  and  C_5
REMARK    5  A    between atoms: C_5  and  C_6
REMARK    6  A    between atoms: C_6  and  C_7
REMARK    7  A    between atoms: C_7  and  C_8
REMARK    8  A    between atoms: C_7  and  O_22
REMARK    9  A    between atoms: C_8  and  C_9
REMARK   10  A    between atoms: C_9  and  C_10
REMARK   11  A    between atoms: C_10  and  C_11
REMARK   12  A    between atoms: C_11  and  C_12
REMARK   13  A    between atoms: C_12  and  C_13
REMARK   14  A    between atoms: C_13  and  C_14
REMARK   15  A    between atoms: C_14  and  C_15
REMARK   16  A    between atoms: C_15  and  C_16
REMARK   17  A    between atoms: C_16  and  C_17
REMARK   18  A    between atoms: C_17  and  C_18
REMARK   19  A    between atoms: C_18  and  O_20
REMARK   20  A    between atoms: O_20  and  C_21
REMARK   21  A    between atoms: O_22  and  C_23
REMARK   22  A    between atoms: C_25  and  C_26
REMARK   23  A    between atoms: C_26  and  O_27
REMARK   24  A    between atoms: C_28  and  O_29
REMARK   25  A    between atoms: C_30  and  O_31
REMARK   26  A    between atoms: C_32  and  O_33
REMARK                            x       y       z     vdW  Elec       q    Type
REMARK                         _______ _______ _______ _____ _____    ______ ____
ROOT
ATOM      1  C   UNL     1       6.039   4.451  17.092  0.00  0.00    +0.000 C 
ENDROOT
BRANCH   1   2
ATOM      2  O   UNL     1       5.095   4.945  18.058  0.00  0.00    +0.000 OA
BRANCH   2   3
ATOM      3  C   UNL     1       3.744   5.019  17.602  0.00  0.00    +0.000 C 
ATOM      4  O   UNL     1       3.017   3.860  17.985  0.00  0.00    +0.000 OA
ATOM      5  C   UNL     1       3.009   3.679  19.408  0.00  0.00    +0.000 C 
ATOM      6  C   UNL     1       2.314   4.865  20.103  0.00  0.00    +0.000 C 
ATOM      7  C   UNL     1       2.971   6.191  19.683  0.00  0.00    +0.000 C 
ATOM      8  C   UNL     1       3.048   6.285  18.160  0.00  0.00    +0.000 C 
BRANCH   8   9
ATOM      9  O   UNL     1       3.701   7.485  17.737  0.00  0.00    +0.000 OA
ATOM     10  H   UNL     1       3.033   8.196  17.743  0.00  0.00    +0.000 HD
ENDBRANCH   8   9
BRANCH   7  11
ATOM     11  O   UNL     1       2.249   7.320  20.198  0.00  0.00    +0.000 OA
ATOM     12  H   UNL     1       2.486   7.437  21.137  0.00  0.00    +0.000 HD
ENDBRANCH   7  11
BRANCH   6  13
ATOM     13  O   UNL     1       2.343   4.702  21.526  0.00  0.00    +0.000 OA
ATOM     14  H   UNL     1       1.554   4.185  21.783  0.00  0.00    +0.000 HD
ENDBRANCH   6  13
BRANCH   5  15
ATOM     15  C   UNL     1       2.325   2.342  19.720  0.00  0.00    +0.000 C 
BRANCH  15  16
ATOM     16  O   UNL     1       2.225   1.505  18.576  0.00  0.00    +0.000 OA
ATOM     17  H   UNL     1       1.272   1.410  18.368  0.00  0.00    +0.000 HD
ENDBRANCH  15  16
ENDBRANCH   5  15
ENDBRANCH   2   3
ENDBRANCH   1   2
BRANCH   1  18
ATOM     18  C   UNL     1       7.200   5.466  16.980  0.00  0.00    +0.000 C 
BRANCH  18  19
ATOM     19  C   UNL     1       7.283   6.484  18.131  0.00  0.00    +0.000 C 
BRANCH  19  20
ATOM     20  C   UNL     1       7.298   7.954  17.693  0.00  0.00    +0.000 C 
BRANCH  20  21
ATOM     21  C   UNL     1       8.647   8.638  17.918  0.00  0.00    +0.000 C 
BRANCH  21  22
ATOM     22  C   UNL     1       8.433  10.052  18.433  0.00  0.00    +0.000 C 
BRANCH  22  23
ATOM     23  C   UNL     1       9.677  10.602  19.100  0.00  0.00    +0.000 C 
BRANCH  23  24
ATOM     24  C   UNL     1       9.294  11.088  20.487  0.00  0.00    +0.000 C 
BRANCH  24  25
ATOM     25  C   UNL     1      10.287  12.116  20.996  0.00  0.00    +0.000 C 
BRANCH  25  26
ATOM     26  C   UNL     1      11.304  12.404  19.904  0.00  0.00    +0.000 C 
BRANCH  26  27
ATOM     27  C   UNL     1      11.378  13.891  19.594  0.00  0.00    +0.000 C 
BRANCH  27  28
ATOM     28  C   UNL     1      10.837  14.154  18.213  0.00  0.00    +0.000 C 
ATOM     29  O   UNL     1       9.766  13.743  17.778  0.00  0.00    +0.000 OA
BRANCH  28  30
ATOM     30  O   UNL     1      11.714  14.922  17.512  0.00  0.00    +0.000 OA
ATOM     31  C   UNL     1      11.076  15.944  16.750  0.00  0.00    +0.000 C 
ENDBRANCH  28  30
ENDBRANCH  27  28
ENDBRANCH  26  27
ENDBRANCH  25  26
ENDBRANCH  24  25
ENDBRANCH  23  24
ENDBRANCH  22  23
ENDBRANCH  21  22
ENDBRANCH  20  21
ENDBRANCH  19  20
ENDBRANCH  18  19
ENDBRANCH   1  18
BRANCH   1  32
ATOM     32  C   UNL     1       5.357   4.190  15.745  0.00  0.00    +0.000 C 
BRANCH  32  33
ATOM     33  C   UNL     1       5.744   5.125  14.608  0.00  0.00    +0.000 C 
BRANCH  33  34
ATOM     34  C   UNL     1       6.684   4.505  13.572  0.00  0.00    +0.000 C 
BRANCH  34  35
ATOM     35  C   UNL     1       6.034   3.229  13.038  0.00  0.00    +0.000 C 
BRANCH  35  37
ATOM     36  C   UNL     1       4.159   3.237  11.393  0.00  0.00    +0.000 C 
ATOM     37  C   UNL     1       5.670   3.315  11.562  0.00  0.00    +0.000 C 
ENDBRANCH  35  37
ENDBRANCH  34  35
ENDBRANCH  33  34
ENDBRANCH  32  33
ENDBRANCH   1  32
TORSDOF 24
ENDMDL
MODEL 3
REMARK VINA RESULT:      -6.5      1.809      2.438
REMARK  Name = 
REMARK  26 active torsions:
REMARK  status: ('A' for Active; 'I' for Inactive)
REMARK    1  A    between atoms: C_1  and  C_2
REMARK    2  A    between atoms: C_2  and  C_3
REMARK    3  A    between atoms: C_3  and  C_4
REMARK    4  A    between atoms: C_4  and  C_5
REMARK    5  A    between atoms: C_5  and  C_6
REMARK    6  A    between atoms: C_6  and  C_7
REMARK    7  A    between atoms: C_7  and  C_8
REMARK    8  A    between atoms: C_7  and  O_22
REMARK    9  A    between atoms: C_8  and  C_9
REMARK   10  A    between atoms: C_9  and  C_10
REMARK   11  A    between atoms: C_10  and  C_11
REMARK   12  A    between atoms: C_11  and  C_12
REMARK   13  A    between atoms: C_12  and  C_13
REMARK   14  A    between atoms: C_13  and  C_14
REMARK   15  A    between atoms: C_14  and  C_15
REMARK   16  A    between atoms: C_15  and  C_16
REMARK   17  A    between atoms: C_16  and  C_17
REMARK   18  A    between atoms: C_17  and  C_18
REMARK   19  A    between atoms: C_18  and  O_20
REMARK   20  A    between atoms: O_20  and  C_21
REMARK   21  A    between atoms: O_22  and  C_23
REMARK   22  A    between atoms: C_25  and  C_26
REMARK   23  A    between atoms: C_26  and  O_27
REMARK   24  A    between atoms: C_28  and  O_29
REMARK   25  A    between atoms: C_30  and  O_31
REMARK   26  A    between atoms: C_32  and  O_33
REMARK                            x       y       z     vdW  Elec       q    Type
REMARK                         _______ _______ _______ _____ _____    ______ ____
ROOT
ATOM      1  C   UNL     1       5.749   4.886  17.273  0.00  0.00    +0.000 C 
ENDROOT
BRANCH   1   2
ATOM      2  O   UNL     1       4.652   4.675  18.179  0.00  0.00    +0.000 OA
BRANCH   2   3
ATOM      3  C   UNL     1       3.363   4.988  17.653  0.00  0.00    +0.000 C 
ATOM      4  O   UNL     1       2.534   3.834  17.629  0.00  0.00    +0.000 OA
ATOM      5  C   UNL     1       2.369   3.266  18.935  0.00  0.00    +0.000 C 
ATOM      6  C   UNL     1       1.676   4.266  19.879  0.00  0.00    +0.000 C 
ATOM      7  C   UNL     1       2.449   5.596  19.911  0.00  0.00    +0.000 C 
ATOM      8  C   UNL     1       2.688   6.103  18.489  0.00  0.00    +0.000 C 
BRANCH   8   9
ATOM      9  O   UNL     1       3.450   7.313  18.481  0.00  0.00    +0.000 OA
ATOM     10  H   UNL     1       4.368   7.076  18.253  0.00  0.00    +0.000 HD
ENDBRANCH   8   9
BRANCH   7  11
ATOM     11  O   UNL     1       1.744   6.594  20.664  0.00  0.00    +0.000 OA
ATOM     12  H   UNL     1       2.367   7.002  21.295  0.00  0.00    +0.000 HD
ENDBRANCH   7  11
BRANCH   6  13
ATOM     13  O   UNL     1       1.548   3.712  21.194  0.00  0.00    +0.000 OA
ATOM     14  H   UNL     1       0.614   3.455  21.321  0.00  0.00    +0.000 HD
ENDBRANCH   6  13
BRANCH   5  15
ATOM     15  C   UNL     1       1.579   1.958  18.796  0.00  0.00    +0.000 C 
BRANCH  15  16
ATOM     16  O   UNL     1       0.174   2.168  18.840  0.00  0.00    +0.000 OA
ATOM     17  H   UNL     1      -0.209   1.740  18.046  0.00  0.00    +0.000 HD
ENDBRANCH  15  16
ENDBRANCH   5  15
ENDBRANCH   2   3
ENDBRANCH   1   2
BRANCH   1  18
ATOM     18  C   UNL     1       6.707   5.926  17.898  0.00  0.00    +0.000 C 
BRANCH  18  19
ATOM     19  C   UNL     1       6.602   7.341  17.304  0.00  0.00    +0.000 C 
BRANCH  19  20
ATOM     20  C   UNL     1       7.910   8.143  17.313  0.00  0.00    +0.000 C 
BRANCH  20  21
ATOM     21  C   UNL     1       8.568   8.208  18.693  0.00  0.00    +0.000 C 
BRANCH  21  22
ATOM     22  C   UNL     1       8.849   9.654  19.066  0.00  0.00    +0.000 C 
BRANCH  22  23
ATOM     23  C   UNL     1       8.975  10.537  17.841  0.00  0.00    +0.000 C 
BRANCH  23  24
ATOM     24  C   UNL     1       9.716  11.801  18.243  0.00  0.00    +0.000 C 
BRANCH  24  25
ATOM     25  C   UNL     1      11.215  11.571  18.258  0.00  0.00    +0.000 C 
BRANCH  25  26
ATOM     26  C   UNL     1      11.802  12.219  19.501  0.00  0.00    +0.000 C 
BRANCH  26  27
ATOM     27  C   UNL     1      10.884  12.047  20.701  0.00  0.00    +0.000 C 
BRANCH  27  28
ATOM     28  C   UNL     1      10.365  13.389  21.146  0.00  0.00    +0.000 C 
ATOM     29  O   UNL     1      10.664  14.469  20.648  0.00  0.00    +0.000 OA
BRANCH  28  30
ATOM     30  O   UNL     1       9.508  13.228  22.190  0.00  0.00    +0.000 OA
ATOM     31  C   UNL     1       8.438  12.331  21.902  0.00  0.00    +0.000 C 
ENDBRANCH  28  30
ENDBRANCH  27  28
ENDBRANCH  26  27
ENDBRANCH  25  26
ENDBRANCH  24  25
ENDBRANCH  23  24
ENDBRANCH  22  23
ENDBRANCH  21  22
ENDBRANCH  20  21
ENDBRANCH  19  20
ENDBRANCH  18  19
ENDBRANCH   1  18
BRANCH   1  32
ATOM     32  C   UNL     1       5.241   5.312  15.891  0.00  0.00    +0.000 C 
BRANCH  32  33
ATOM     33  C   UNL     1       5.545   4.359  14.744  0.00  0.00    +0.000 C 
BRANCH  33  34
ATOM     34  C   UNL     1       6.840   4.669  13.991  0.00  0.00    +0.000 C 
BRANCH  34  35
ATOM     35  C   UNL     1       6.751   4.038  12.602  0.00  0.00    +0.000 C 
BRANCH  35  37
ATOM     36  C   UNL     1       5.641   2.095  11.500  0.00  0.00    +0.000 C 
ATOM     37  C   UNL     1       5.421   3.342  12.346  0.00  0.00    +0.000 C 
ENDBRANCH  35  37
ENDBRANCH  34  35
ENDBRANCH  33  34
ENDBRANCH  32  33
ENDBRANCH   1  32
TORSDOF 24
ENDMDL
MODEL 4
REMARK VINA RESULT:      -6.5      5.033      7.031
REMARK  Name = 
REMARK  26 active torsions:
REMARK  status: ('A' for Active; 'I' for Inactive)
REMARK    1  A    between atoms: C_1  and  C_2
REMARK    2  A    between atoms: C_2  and  C_3
REMARK    3  A    between atoms: C_3  and  C_4
REMARK    4  A    between atoms: C_4  and  C_5
REMARK    5  A    between atoms: C_5  and  C_6
REMARK    6  A    between atoms: C_6  and  C_7
REMARK    7  A    between atoms: C_7  and  C_8
REMARK    8  A    between atoms: C_7  and  O_22
REMARK    9  A    between atoms: C_8  and  C_9
REMARK   10  A    between atoms: C_9  and  C_10
REMARK   11  A    between atoms: C_10  and  C_11
REMARK   12  A    between atoms: C_11  and  C_12
REMARK   13  A    between atoms: C_12  and  C_13
REMARK   14  A    between atoms: C_13  and  C_14
REMARK   15  A    between atoms: C_14  and  C_15
REMARK   16  A    between atoms: C_15  and  C_16
REMARK   17  A    between atoms: C_16  and  C_17
REMARK   18  A    between atoms: C_17  and  C_18
REMARK   19  A    between atoms: C_18  and  O_20
REMARK   20  A    between atoms: O_20  and  C_21
REMARK   21  A    between atoms: O_22  and  C_23
REMARK   22  A    between atoms: C_25  and  C_26
REMARK   23  A    between atoms: C_26  and  O_27
REMARK   24  A    between atoms: C_28  and  O_29
REMARK   25  A    between atoms: C_30  and  O_31
REMARK   26  A    between atoms: C_32  and  O_33
REMARK                            x       y       z     vdW  Elec       q    Type
REMARK                         _______ _______ _______ _____ _____    ______ ____
ROOT
ATOM      1  C   UNL     1       4.664   6.257  17.614  0.00  0.00    +0.000 C 
ENDROOT
BRANCH   1   2
ATOM      2  O   UNL     1       3.735   5.279  18.112  0.00  0.00    +0.000 OA
BRANCH   2   3
ATOM      3  C   UNL     1       4.021   4.786  19.422  0.00  0.00    +0.000 C 
ATOM      4  O   UNL     1       2.824   4.619  20.169  0.00  0.00    +0.000 OA
ATOM      5  C   UNL     1       1.913   3.716  19.529  0.00  0.00    +0.000 C 
ATOM      6  C   UNL     1       2.535   2.312  19.407  0.00  0.00    +0.000 C 
ATOM      7  C   UNL     1       3.892   2.388  18.684  0.00  0.00    +0.000 C 
ATOM      8  C   UNL     1       4.784   3.440  19.343  0.00  0.00    +0.000 C 
BRANCH   8   9
ATOM      9  O   UNL     1       6.035   3.573  18.664  0.00  0.00    +0.000 OA
ATOM     10  H   UNL     1       6.727   3.660  19.345  0.00  0.00    +0.000 HD
ENDBRANCH   8   9
BRANCH   7  11
ATOM     11  O   UNL     1       4.561   1.119  18.690  0.00  0.00    +0.000 OA
ATOM     12  H   UNL     1       3.908   0.427  18.906  0.00  0.00    +0.000 HD
ENDBRANCH   7  11
BRANCH   6  13
ATOM     13  O   UNL     1       1.640   1.421  18.731  0.00  0.00    +0.000 OA
ATOM     14  H   UNL     1       1.668   1.636  17.778  0.00  0.00    +0.000 HD
ENDBRANCH   6  13
BRANCH   5  15
ATOM     15  C   UNL     1       0.605   3.701  20.330  0.00  0.00    +0.000 C 
BRANCH  15  16
ATOM     16  O   UNL     1       0.657   2.810  21.436  0.00  0.00    +0.000 OA
ATOM     17  H   UNL     1       1.338   3.153  22.053  0.00  0.00    +0.000 HD
ENDBRANCH  15  16
ENDBRANCH   5  15
ENDBRANCH   2   3
ENDBRANCH   1   2
BRANCH   1  18
ATOM     18  C   UNL     1       4.022   7.656  17.752  0.00  0.00    +0.000 C 
BRANCH  18  19
ATOM     19  C   UNL     1       2.571   7.655  18.263  0.00  0.00    +0.000 C 
BRANCH  19  20
ATOM     20  C   UNL     1       1.642   8.659  17.567  0.00  0.00    +0.000 C 
BRANCH  20  21
ATOM     21  C   UNL     1       1.504   9.979  18.326  0.00  0.00    +0.000 C 
BRANCH  21  22
ATOM     22  C   UNL     1       0.941   9.723  19.715  0.00  0.00    +0.000 C 
BRANCH  22  23
ATOM     23  C   UNL     1       0.527  11.009  20.399  0.00  0.00    +0.000 C 
BRANCH  23  24
ATOM     24  C   UNL     1       0.397  12.089  19.340  0.00  0.00    +0.000 C 
BRANCH  24  25
ATOM     25  C   UNL     1      -1.029  12.597  19.252  0.00  0.00    +0.000 C 
BRANCH  25  26
ATOM     26  C   UNL     1      -1.943  11.441  18.879  0.00  0.00    +0.000 C 
BRANCH  26  27
ATOM     27  C   UNL     1      -2.120  11.338  17.372  0.00  0.00    +0.000 C 
BRANCH  27  28
ATOM     28  C   UNL     1      -2.792  10.037  17.022  0.00  0.00    +0.000 C 
ATOM     29  O   UNL     1      -3.531   9.395  17.762  0.00  0.00    +0.000 OA
BRANCH  28  30
ATOM     30  O   UNL     1      -2.460   9.673  15.754  0.00  0.00    +0.000 OA
ATOM     31  C   UNL     1      -3.249  10.324  14.761  0.00  0.00    +0.000 C 
ENDBRANCH  28  30
ENDBRANCH  27  28
ENDBRANCH  26  27
ENDBRANCH  25  26
ENDBRANCH  24  25
ENDBRANCH  23  24
ENDBRANCH  22  23
ENDBRANCH  21  22
ENDBRANCH  20  21
ENDBRANCH  19  20
ENDBRANCH  18  19
ENDBRANCH   1  18
BRANCH   1  32
ATOM     32  C   UNL     1       5.070   5.939  16.170  0.00  0.00    +0.000 C 
BRANCH  32  33
ATOM     33  C   UNL     1       4.813   4.514  15.702  0.00  0.00    +0.000 C 
BRANCH  33  34
ATOM     34  C   UNL     1       6.030   3.823  15.084  0.00  0.00    +0.000 C 
BRANCH  34  35
ATOM     35  C   UNL     1       6.670   4.783  14.083  0.00  0.00    +0.000 C 
BRANCH  35  37
ATOM     36  C   UNL     1       5.657   3.221  12.423  0.00  0.00    +0.000 C 
ATOM     37  C   UNL     1       6.798   4.194  12.685  0.00  0.00    +0.000 C 
ENDBRANCH  35  37
ENDBRANCH  34  35
ENDBRANCH  33  34
ENDBRANCH  32  33
ENDBRANCH   1  32
TORSDOF 24
ENDMDL
MODEL 5
REMARK VINA RESULT:      -6.4      2.212      3.391
REMARK  Name = 
REMARK  26 active torsions:
REMARK  status: ('A' for Active; 'I' for Inactive)
REMARK    1  A    between atoms: C_1  and  C_2
REMARK    2  A    between atoms: C_2  and  C_3
REMARK    3  A    between atoms: C_3  and  C_4
REMARK    4  A    between atoms: C_4  and  C_5
REMARK    5  A    between atoms: C_5  and  C_6
REMARK    6  A    between atoms: C_6  and  C_7
REMARK    7  A    between atoms: C_7  and  C_8
REMARK    8  A    between atoms: C_7  and  O_22
REMARK    9  A    between atoms: C_8  and  C_9
REMARK   10  A    between atoms: C_9  and  C_10
REMARK   11  A    between atoms: C_10  and  C_11
REMARK   12  A    between atoms: C_11  and  C_12
REMARK   13  A    between atoms: C_12  and  C_13
REMARK   14  A    between atoms: C_13  and  C_14
REMARK   15  A    between atoms: C_14  and  C_15
REMARK   16  A    between atoms: C_15  and  C_16
REMARK   17  A    between atoms: C_16  and  C_17
REMARK   18  A    between atoms: C_17  and  C_18
REMARK   19  A    between atoms: C_18  and  O_20
REMARK   20  A    between atoms: O_20  and  C_21
REMARK   21  A    between atoms: O_22  and  C_23
REMARK   22  A    between atoms: C_25  and  C_26
REMARK   23  A    between atoms: C_26  and  O_27
REMARK   24  A    between atoms: C_28  and  O_29
REMARK   25  A    between atoms: C_30  and  O_31
REMARK   26  A    between atoms: C_32  and  O_33
REMARK                            x       y       z     vdW  Elec       q    Type
REMARK                         _______ _______ _______ _____ _____    ______ ____
ROOT
ATOM      1  C   UNL     1       6.244   5.775  16.394  0.00  0.00    +0.000 C 
ENDROOT
BRANCH   1   2
ATOM      2  O   UNL     1       5.625   4.750  17.190  0.00  0.00    +0.000 OA
BRANCH   2   3
ATOM      3  C   UNL     1       4.780   5.226  18.238  0.00  0.00    +0.000 C 
ATOM      4  O   UNL     1       3.411   5.047  17.903  0.00  0.00    +0.000 OA
ATOM      5  C   UNL     1       3.096   3.672  17.651  0.00  0.00    +0.000 C 
ATOM      6  C   UNL     1       3.338   2.819  18.910  0.00  0.00    +0.000 C 
ATOM      7  C   UNL     1       4.779   3.008  19.416  0.00  0.00    +0.000 C 
ATOM      8  C   UNL     1       5.095   4.496  19.568  0.00  0.00    +0.000 C 
BRANCH   8   9
ATOM      9  O   UNL     1       6.445   4.709  19.988  0.00  0.00    +0.000 OA
ATOM     10  H   UNL     1       7.004   4.076  19.501  0.00  0.00    +0.000 HD
ENDBRANCH   8   9
BRANCH   7  11
ATOM     11  O   UNL     1       4.985   2.344  20.672  0.00  0.00    +0.000 OA
ATOM     12  H   UNL     1       5.842   1.878  20.638  0.00  0.00    +0.000 HD
ENDBRANCH   7  11
BRANCH   6  13
ATOM     13  O   UNL     1       3.062   1.439  18.645  0.00  0.00    +0.000 OA
ATOM     14  H   UNL     1       2.092   1.337  18.571  0.00  0.00    +0.000 HD
ENDBRANCH   6  13
BRANCH   5  15
ATOM     15  C   UNL     1       1.643   3.590  17.167  0.00  0.00    +0.000 C 
BRANCH  15  16
ATOM     16  O   UNL     1       0.759   3.136  18.183  0.00  0.00    +0.000 OA
ATOM     17  H   UNL     1       0.124   2.518  17.762  0.00  0.00    +0.000 HD
ENDBRANCH  15  16
ENDBRANCH   5  15
ENDBRANCH   2   3
ENDBRANCH   1   2
BRANCH   1  18
ATOM     18  C   UNL     1       6.307   7.074  17.230  0.00  0.00    +0.000 C 
BRANCH  18  19
ATOM     19  C   UNL     1       7.716   7.472  17.703  0.00  0.00    +0.000 C 
BRANCH  19  20
ATOM     20  C   UNL     1       8.016   8.976  17.641  0.00  0.00    +0.000 C 
BRANCH  20  21
ATOM     21  C   UNL     1       8.862   9.471  18.815  0.00  0.00    +0.000 C 
BRANCH  21  22
ATOM     22  C   UNL     1       9.470  10.824  18.482  0.00  0.00    +0.000 C 
BRANCH  22  23
ATOM     23  C   UNL     1      10.175  11.433  19.677  0.00  0.00    +0.000 C 
BRANCH  23  24
ATOM     24  C   UNL     1       9.264  11.296  20.884  0.00  0.00    +0.000 C 
BRANCH  24  25
ATOM     25  C   UNL     1       9.470  12.444  21.854  0.00  0.00    +0.000 C 
BRANCH  25  26
ATOM     26  C   UNL     1       8.221  12.603  22.706  0.00  0.00    +0.000 C 
BRANCH  26  27
ATOM     27  C   UNL     1       8.537  12.451  24.185  0.00  0.00    +0.000 C 
BRANCH  27  28
ATOM     28  C   UNL     1       7.391  11.771  24.887  0.00  0.00    +0.000 C 
ATOM     29  O   UNL     1       6.531  11.085  24.345  0.00  0.00    +0.000 OA
BRANCH  28  30
ATOM     30  O   UNL     1       7.449  12.029  26.221  0.00  0.00    +0.000 OA
ATOM     31  C   UNL     1       7.639  13.411  26.515  0.00  0.00    +0.000 C 
ENDBRANCH  28  30
ENDBRANCH  27  28
ENDBRANCH  26  27
ENDBRANCH  25  26
ENDBRANCH  24  25
ENDBRANCH  23  24
ENDBRANCH  22  23
ENDBRANCH  21  22
ENDBRANCH  20  21
ENDBRANCH  19  20
ENDBRANCH  18  19
ENDBRANCH   1  18
BRANCH   1  32
ATOM     32  C   UNL     1       5.496   5.966  15.070  0.00  0.00    +0.000 C 
BRANCH  32  33
ATOM     33  C   UNL     1       5.054   4.693  14.363  0.00  0.00    +0.000 C 
BRANCH  33  34
ATOM     34  C   UNL     1       6.199   3.748  13.990  0.00  0.00    +0.000 C 
BRANCH  34  35
ATOM     35  C   UNL     1       6.353   3.757  12.471  0.00  0.00    +0.000 C 
BRANCH  35  37
ATOM     36  C   UNL     1       4.228   3.194  11.293  0.00  0.00    +0.000 C 
ATOM     37  C   UNL     1       5.563   2.652  11.782  0.00  0.00    +0.000 C 
ENDBRANCH  35  37
ENDBRANCH  34  35
ENDBRANCH  33  34
ENDBRANCH  32  33
ENDBRANCH   1  32
TORSDOF 24
ENDMDL
MODEL 6
REMARK VINA RESULT:      -6.4      1.622      1.993
REMARK  Name = 
REMARK  26 active torsions:
REMARK  status: ('A' for Active; 'I' for Inactive)
REMARK    1  A    between atoms: C_1  and  C_2
REMARK    2  A    between atoms: C_2  and  C_3
REMARK    3  A    between atoms: C_3  and  C_4
REMARK    4  A    between atoms: C_4  and  C_5
REMARK    5  A    between atoms: C_5  and  C_6
REMARK    6  A    between atoms: C_6  and  C_7
REMARK    7  A    between atoms: C_7  and  C_8
REMARK    8  A    between atoms: C_7  and  O_22
REMARK    9  A    between atoms: C_8  and  C_9
REMARK   10  A    between atoms: C_9  and  C_10
REMARK   11  A    between atoms: C_10  and  C_11
REMARK   12  A    between atoms: C_11  and  C_12
REMARK   13  A    between atoms: C_12  and  C_13
REMARK   14  A    between atoms: C_13  and  C_14
REMARK   15  A    between atoms: C_14  and  C_15
REMARK   16  A    between atoms: C_15  and  C_16
REMARK   17  A    between atoms: C_16  and  C_17
REMARK   18  A    between atoms: C_17  and  C_18
REMARK   19  A    between atoms: C_18  and  O_20
REMARK   20  A    between atoms: O_20  and  C_21
REMARK   21  A    between atoms: O_22  and  C_23
REMARK   22  A    between atoms: C_25  and  C_26
REMARK   23  A    between atoms: C_26  and  O_27
REMARK   24  A    between atoms: C_28  and  O_29
REMARK   25  A    between atoms: C_30  and  O_31
REMARK   26  A    between atoms: C_32  and  O_33
REMARK                            x       y       z     vdW  Elec       q    Type
REMARK                         _______ _______ _______ _____ _____    ______ ____
ROOT
ATOM      1  C   UNL     1       6.155   5.730  16.824  0.00  0.00    +0.000 C 
ENDROOT
BRANCH   1   2
ATOM      2  O   UNL     1       5.250   5.182  17.799  0.00  0.00    +0.000 OA
BRANCH   2   3
ATOM      3  C   UNL     1       3.888   5.096  17.379  0.00  0.00    +0.000 C 
ATOM      4  O   UNL     1       3.448   3.746  17.369  0.00  0.00    +0.000 OA
ATOM      5  C   UNL     1       3.568   3.132  18.659  0.00  0.00    +0.000 C 
ATOM      6  C   UNL     1       2.684   3.858  19.691  0.00  0.00    +0.000 C 
ATOM      7  C   UNL     1       3.018   5.360  19.721  0.00  0.00    +0.000 C 
ATOM      8  C   UNL     1       2.977   5.939  18.307  0.00  0.00    +0.000 C 
BRANCH   8   9
ATOM      9  O   UNL     1       3.333   7.323  18.292  0.00  0.00    +0.000 OA
ATOM     10  H   UNL     1       4.188   7.398  17.828  0.00  0.00    +0.000 HD
ENDBRANCH   8   9
BRANCH   7  11
ATOM     11  O   UNL     1       2.108   6.083  20.562  0.00  0.00    +0.000 OA
ATOM     12  H   UNL     1       2.137   5.693  21.456  0.00  0.00    +0.000 HD
ENDBRANCH   7  11
BRANCH   6  13
ATOM     13  O   UNL     1       2.836   3.270  20.988  0.00  0.00    +0.000 OA
ATOM     14  H   UNL     1       1.947   3.022  21.310  0.00  0.00    +0.000 HD
ENDBRANCH   6  13
BRANCH   5  15
ATOM     15  C   UNL     1       3.203   1.649  18.525  0.00  0.00    +0.000 C 
BRANCH  15  16
ATOM     16  O   UNL     1       1.836   1.399  18.826  0.00  0.00    +0.000 OA
ATOM     17  H   UNL     1       1.576   2.025  19.535  0.00  0.00    +0.000 HD
ENDBRANCH  15  16
ENDBRANCH   5  15
ENDBRANCH   2   3
ENDBRANCH   1   2
BRANCH   1  18
ATOM     18  C   UNL     1       6.338   7.236  17.119  0.00  0.00    +0.000 C 
BRANCH  18  19
ATOM     19  C   UNL     1       7.682   7.610  17.769  0.00  0.00    +0.000 C 
BRANCH  19  20
ATOM     20  C   UNL     1       8.054   9.095  17.672  0.00  0.00    +0.000 C 
BRANCH  20  21
ATOM     21  C   UNL     1       8.844   9.599  18.880  0.00  0.00    +0.000 C 
BRANCH  21  22
ATOM     22  C   UNL     1       9.623  10.850  18.507  0.00  0.00    +0.000 C 
BRANCH  22  23
ATOM     23  C   UNL     1      10.677  11.186  19.541  0.00  0.00    +0.000 C 
BRANCH  23  24
ATOM     24  C   UNL     1      11.614  12.221  18.943  0.00  0.00    +0.000 C 
BRANCH  24  25
ATOM     25  C   UNL     1      10.908  13.549  18.752  0.00  0.00    +0.000 C 
BRANCH  25  26
ATOM     26  C   UNL     1      10.926  14.312  20.067  0.00  0.00    +0.000 C 
BRANCH  26  27
ATOM     27  C   UNL     1       9.532  14.417  20.665  0.00  0.00    +0.000 C 
BRANCH  27  28
ATOM     28  C   UNL     1       8.716  15.418  19.890  0.00  0.00    +0.000 C 
ATOM     29  O   UNL     1       8.980  16.609  19.767  0.00  0.00    +0.000 OA
BRANCH  28  30
ATOM     30  O   UNL     1       7.633  14.804  19.341  0.00  0.00    +0.000 OA
ATOM     31  C   UNL     1       7.509  15.037  17.940  0.00  0.00    +0.000 C 
ENDBRANCH  28  30
ENDBRANCH  27  28
ENDBRANCH  26  27
ENDBRANCH  25  26
ENDBRANCH  24  25
ENDBRANCH  23  24
ENDBRANCH  22  23
ENDBRANCH  21  22
ENDBRANCH  20  21
ENDBRANCH  19  20
ENDBRANCH  18  19
ENDBRANCH   1  18
BRANCH   1  32
ATOM     32  C   UNL     1       5.649   5.468  15.401  0.00  0.00    +0.000 C 
BRANCH  32  33
ATOM     33  C   UNL     1       6.152   4.195  14.736  0.00  0.00    +0.000 C 
BRANCH  33  34
ATOM     34  C   UNL     1       6.621   4.380  13.292  0.00  0.00    +0.000 C 
BRANCH  34  35
ATOM     35  C   UNL     1       5.926   3.332  12.424  0.00  0.00    +0.000 C 
BRANCH  35  37
ATOM     36  C   UNL     1       6.274   1.204  11.170  0.00  0.00    +0.000 C 
ATOM     37  C   UNL     1       6.891   2.543  11.550  0.00  0.00    +0.000 C 
ENDBRANCH  35  37
ENDBRANCH  34  35
ENDBRANCH  33  34
ENDBRANCH  32  33
ENDBRANCH   1  32
TORSDOF 24
ENDMDL
MODEL 7
REMARK VINA RESULT:      -6.3      6.390     11.047
REMARK  Name = 
REMARK  26 active torsions:
REMARK  status: ('A' for Active; 'I' for Inactive)
REMARK    1  A    between atoms: C_1  and  C_2
REMARK    2  A    between atoms: C_2  and  C_3
REMARK    3  A    between atoms: C_3  and  C_4
REMARK    4  A    between atoms: C_4  and  C_5
REMARK    5  A    between atoms: C_5  and  C_6
REMARK    6  A    between atoms: C_6  and  C_7
REMARK    7  A    between atoms: C_7  and  C_8
REMARK    8  A    between atoms: C_7  and  O_22
REMARK    9  A    between atoms: C_8  and  C_9
REMARK   10  A    between atoms: C_9  and  C_10
REMARK   11  A    between atoms: C_10  and  C_11
REMARK   12  A    between atoms: C_11  and  C_12
REMARK   13  A    between atoms: C_12  and  C_13
REMARK   14  A    between atoms: C_13  and  C_14
REMARK   15  A    between atoms: C_14  and  C_15
REMARK   16  A    between atoms: C_15  and  C_16
REMARK   17  A    between atoms: C_16  and  C_17
REMARK   18  A    between atoms: C_17  and  C_18
REMARK   19  A    between atoms: C_18  and  O_20
REMARK   20  A    between atoms: O_20  and  C_21
REMARK   21  A    between atoms: O_22  and  C_23
REMARK   22  A    between atoms: C_25  and  C_26
REMARK   23  A    between atoms: C_26  and  O_27
REMARK   24  A    between atoms: C_28  and  O_29
REMARK   25  A    between atoms: C_30  and  O_31
REMARK   26  A    between atoms: C_32  and  O_33
REMARK                            x       y       z     vdW  Elec       q    Type
REMARK                         _______ _______ _______ _____ _____    ______ ____
ROOT
ATOM      1  C   UNL     1       0.945   9.247  21.214  0.00  0.00    +0.000 C 
ENDROOT
BRANCH   1   2
ATOM      2  O   UNL     1      -0.013   9.895  20.359  0.00  0.00    +0.000 OA
BRANCH   2   3
ATOM      3  C   UNL     1       0.537  10.528  19.204  0.00  0.00    +0.000 C 
ATOM      4  O   UNL     1      -0.131  10.098  18.026  0.00  0.00    +0.000 OA
ATOM      5  C   UNL     1      -1.536  10.376  18.074  0.00  0.00    +0.000 C 
ATOM      6  C   UNL     1      -1.786  11.893  18.173  0.00  0.00    +0.000 C 
ATOM      7  C   UNL     1      -1.028  12.484  19.375  0.00  0.00    +0.000 C 
ATOM      8  C   UNL     1       0.442  12.069  19.329  0.00  0.00    +0.000 C 
BRANCH   8   9
ATOM      9  O   UNL     1       1.165  12.560  20.460  0.00  0.00    +0.000 OA
ATOM     10  H   UNL     1       1.036  11.921  21.186  0.00  0.00    +0.000 HD
ENDBRANCH   8   9
BRANCH   7  11
ATOM     11  O   UNL     1      -1.122  13.916  19.401  0.00  0.00    +0.000 OA
ATOM     12  H   UNL     1      -1.887  14.165  19.954  0.00  0.00    +0.000 HD
ENDBRANCH   7  11
BRANCH   6  13
ATOM     13  O   UNL     1      -3.189  12.168  18.262  0.00  0.00    +0.000 OA
ATOM     14  H   UNL     1      -3.569  12.075  17.366  0.00  0.00    +0.000 HD
ENDBRANCH   6  13
BRANCH   5  15
ATOM     15  C   UNL     1      -2.194   9.760  16.833  0.00  0.00    +0.000 C 
BRANCH  15  16
ATOM     16  O   UNL     1      -2.276  10.680  15.752  0.00  0.00    +0.000 OA
ATOM     17  H   UNL     1      -3.217  10.944  15.667  0.00  0.00    +0.000 HD
ENDBRANCH  15  16
ENDBRANCH   5  15
ENDBRANCH   2   3
ENDBRANCH   1   2
BRANCH   1  18
ATOM     18  C   UNL     1       0.948   7.736  20.888  0.00  0.00    +0.000 C 
BRANCH  18  19
ATOM     19  C   UNL     1       2.182   7.243  20.111  0.00  0.00    +0.000 C 
BRANCH  19  20
ATOM     20  C   UNL     1       2.168   5.750  19.759  0.00  0.00    +0.000 C 
BRANCH  20  21
ATOM     21  C   UNL     1       2.036   4.843  20.982  0.00  0.00    +0.000 C 
BRANCH  21  22
ATOM     22  C   UNL     1       1.186   3.630  20.640  0.00  0.00    +0.000 C 
BRANCH  22  23
ATOM     23  C   UNL     1       1.024   3.461  19.143  0.00  0.00    +0.000 C 
BRANCH  23  24
ATOM     24  C   UNL     1       1.425   2.042  18.781  0.00  0.00    +0.000 C 
BRANCH  24  25
ATOM     25  C   UNL     1       2.910   1.954  18.486  0.00  0.00    +0.000 C 
BRANCH  25  26
ATOM     26  C   UNL     1       3.298   3.092  17.556  0.00  0.00    +0.000 C 
BRANCH  26  27
ATOM     27  C   UNL     1       4.668   3.651  17.905  0.00  0.00    +0.000 C 
BRANCH  27  28
ATOM     28  C   UNL     1       4.966   4.852  17.047  0.00  0.00    +0.000 C 
ATOM     29  O   UNL     1       4.258   5.849  16.948  0.00  0.00    +0.000 OA
BRANCH  28  30
ATOM     30  O   UNL     1       6.145   4.671  16.394  0.00  0.00    +0.000 OA
ATOM     31  C   UNL     1       7.267   4.614  17.271  0.00  0.00    +0.000 C 
ENDBRANCH  28  30
ENDBRANCH  27  28
ENDBRANCH  26  27
ENDBRANCH  25  26
ENDBRANCH  24  25
ENDBRANCH  23  24
ENDBRANCH  22  23
ENDBRANCH  21  22
ENDBRANCH  20  21
ENDBRANCH  19  20
ENDBRANCH  18  19
ENDBRANCH   1  18
BRANCH   1  32
ATOM     32  C   UNL     1       0.639   9.528  22.689  0.00  0.00    +0.000 C 
BRANCH  32  33
ATOM     33  C   UNL     1      -0.780   9.980  23.003  0.00  0.00    +0.000 C 
BRANCH  33  34
ATOM     34  C   UNL     1      -0.973  11.498  23.002  0.00  0.00    +0.000 C 
BRANCH  34  35
ATOM     35  C   UNL     1      -2.443  11.795  23.291  0.00  0.00    +0.000 C 
BRANCH  35  37
ATOM     36  C   UNL     1      -3.243  14.141  23.573  0.00  0.00    +0.000 C 
ATOM     37  C   UNL     1      -2.958  13.032  22.569  0.00  0.00    +0.000 C 
ENDBRANCH  35  37
ENDBRANCH  34  35
ENDBRANCH  33  34
ENDBRANCH  32  33
ENDBRANCH   1  32
TORSDOF 24
ENDMDL
MODEL 8
REMARK VINA RESULT:      -6.3      5.745      8.279
REMARK  Name = 
REMARK  26 active torsions:
REMARK  status: ('A' for Active; 'I' for Inactive)
REMARK    1  A    between atoms: C_1  and  C_2
REMARK    2  A    between atoms: C_2  and  C_3
REMARK    3  A    between atoms: C_3  and  C_4
REMARK    4  A    between atoms: C_4  and  C_5
REMARK    5  A    between atoms: C_5  and  C_6
REMARK    6  A    between atoms: C_6  and  C_7
REMARK    7  A    between atoms: C_7  and  C_8
REMARK    8  A    between atoms: C_7  and  O_22
REMARK    9  A    between atoms: C_8  and  C_9
REMARK   10  A    between atoms: C_9  and  C_10
REMARK   11  A    between atoms: C_10  and  C_11
REMARK   12  A    between atoms: C_11  and  C_12
REMARK   13  A    between atoms: C_12  and  C_13
REMARK   14  A    between atoms: C_13  and  C_14
REMARK   15  A    between atoms: C_14  and  C_15
REMARK   16  A    between atoms: C_15  and  C_16
REMARK   17  A    between atoms: C_16  and  C_17
REMARK   18  A    between atoms: C_17  and  C_18
REMARK   19  A    between atoms: C_18  and  O_20
REMARK   20  A    between atoms: O_20  and  C_21
REMARK   21  A    between atoms: O_22  and  C_23
REMARK   22  A    between atoms: C_25  and  C_26
REMARK   23  A    between atoms: C_26  and  O_27
REMARK   24  A    between atoms: C_28  and  O_29
REMARK   25  A    between atoms: C_30  and  O_31
REMARK   26  A    between atoms: C_32  and  O_33
REMARK                            x       y       z     vdW  Elec       q    Type
REMARK                         _______ _______ _______ _____ _____    ______ ____
ROOT
ATOM      1  C   UNL     1       3.750   6.743  18.065  0.00  0.00    +0.000 C 
ENDROOT
BRANCH   1   2
ATOM      2  O   UNL     1       3.678   5.308  18.120  0.00  0.00    +0.000 OA
BRANCH   2   3
ATOM      3  C   UNL     1       4.021   4.732  19.381  0.00  0.00    +0.000 C 
ATOM      4  O   UNL     1       2.869   4.586  20.199  0.00  0.00    +0.000 OA
ATOM      5  C   UNL     1       1.872   3.764  19.578  0.00  0.00    +0.000 C 
ATOM      6  C   UNL     1       2.410   2.339  19.345  0.00  0.00    +0.000 C 
ATOM      7  C   UNL     1       3.719   2.387  18.536  0.00  0.00    +0.000 C 
ATOM      8  C   UNL     1       4.706   3.357  19.185  0.00  0.00    +0.000 C 
BRANCH   8   9
ATOM      9  O   UNL     1       5.915   3.464  18.430  0.00  0.00    +0.000 OA
ATOM     10  H   UNL     1       5.885   4.314  17.952  0.00  0.00    +0.000 HD
ENDBRANCH   8   9
BRANCH   7  11
ATOM     11  O   UNL     1       4.320   1.088  18.435  0.00  0.00    +0.000 OA
ATOM     12  H   UNL     1       4.749   0.879  19.286  0.00  0.00    +0.000 HD
ENDBRANCH   7  11
BRANCH   6  13
ATOM     13  O   UNL     1       1.427   1.531  18.687  0.00  0.00    +0.000 OA
ATOM     14  H   UNL     1       1.876   0.732  18.347  0.00  0.00    +0.000 HD
ENDBRANCH   6  13
BRANCH   5  15
ATOM     15  C   UNL     1       0.620   3.772  20.463  0.00  0.00    +0.000 C 
BRANCH  15  16
ATOM     16  O   UNL     1       0.629   2.723  21.423  0.00  0.00    +0.000 OA
ATOM     17  H   UNL     1      -0.007   2.043  21.116  0.00  0.00    +0.000 HD
ENDBRANCH  15  16
ENDBRANCH   5  15
ENDBRANCH   2   3
ENDBRANCH   1   2
BRANCH   1  18
ATOM     18  C   UNL     1       2.357   7.288  17.674  0.00  0.00    +0.000 C 
BRANCH  18  19
ATOM     19  C   UNL     1       2.220   8.819  17.734  0.00  0.00    +0.000 C 
BRANCH  19  20
ATOM     20  C   UNL     1       1.274   9.339  18.825  0.00  0.00    +0.000 C 
BRANCH  20  21
ATOM     21  C   UNL     1       1.126  10.861  18.819  0.00  0.00    +0.000 C 
BRANCH  21  22
ATOM     22  C   UNL     1      -0.346  11.239  18.865  0.00  0.00    +0.000 C 
BRANCH  22  23
ATOM     23  C   UNL     1      -1.149  10.499  17.816  0.00  0.00    +0.000 C 
BRANCH  23  24
ATOM     24  C   UNL     1      -2.534  10.232  18.381  0.00  0.00    +0.000 C 
BRANCH  24  25
ATOM     25  C   UNL     1      -3.542  10.010  17.270  0.00  0.00    +0.000 C 
BRANCH  25  26
ATOM     26  C   UNL     1      -4.355  11.280  17.079  0.00  0.00    +0.000 C 
BRANCH  26  27
ATOM     27  C   UNL     1      -5.725  11.163  17.729  0.00  0.00    +0.000 C 
BRANCH  27  28
ATOM     28  C   UNL     1      -5.700  11.795  19.095  0.00  0.00    +0.000 C 
ATOM     29  O   UNL     1      -5.099  12.822  19.394  0.00  0.00    +0.000 OA
BRANCH  28  30
ATOM     30  O   UNL     1      -6.448  11.057  19.959  0.00  0.00    +0.000 OA
ATOM     31  C   UNL     1      -6.974   9.871  19.369  0.00  0.00    +0.000 C 
ENDBRANCH  28  30
ENDBRANCH  27  28
ENDBRANCH  26  27
ENDBRANCH  25  26
ENDBRANCH  24  25
ENDBRANCH  23  24
ENDBRANCH  22  23
ENDBRANCH  21  22
ENDBRANCH  20  21
ENDBRANCH  19  20
ENDBRANCH  18  19
ENDBRANCH   1  18
BRANCH   1  32
ATOM     32  C   UNL     1       4.850   7.198  17.099  0.00  0.00    +0.000 C 
BRANCH  32  33
ATOM     33  C   UNL     1       6.230   6.598  17.328  0.00  0.00    +0.000 C 
BRANCH  33  34
ATOM     34  C   UNL     1       6.883   6.021  16.070  0.00  0.00    +0.000 C 
BRANCH  34  35
ATOM     35  C   UNL     1       5.798   5.348  15.232  0.00  0.00    +0.000 C 
BRANCH  35  37
ATOM     36  C   UNL     1       6.143   3.789  13.315  0.00  0.00    +0.000 C 
ATOM     37  C   UNL     1       6.149   3.921  14.832  0.00  0.00    +0.000 C 
ENDBRANCH  35  37
ENDBRANCH  34  35
ENDBRANCH  33  34
ENDBRANCH  32  33
ENDBRANCH   1  32
TORSDOF 24
ENDMDL
MODEL 9
REMARK VINA RESULT:      -6.3      4.021      5.385
REMARK  Name = 
REMARK  26 active torsions:
REMARK  status: ('A' for Active; 'I' for Inactive)
REMARK    1  A    between atoms: C_1  and  C_2
REMARK    2  A    between atoms: C_2  and  C_3
REMARK    3  A    between atoms: C_3  and  C_4
REMARK    4  A    between atoms: C_4  and  C_5
REMARK    5  A    between atoms: C_5  and  C_6
REMARK    6  A    between atoms: C_6  and  C_7
REMARK    7  A    between atoms: C_7  and  C_8
REMARK    8  A    between atoms: C_7  and  O_22
REMARK    9  A    between atoms: C_8  and  C_9
REMARK   10  A    between atoms: C_9  and  C_10
REMARK   11  A    between atoms: C_10  and  C_11
REMARK   12  A    between atoms: C_11  and  C_12
REMARK   13  A    between atoms: C_12  and  C_13
REMARK   14  A    between atoms: C_13  and  C_14
REMARK   15  A    between atoms: C_14  and  C_15
REMARK   16  A    between atoms: C_15  and  C_16
REMARK   17  A    between atoms: C_16  and  C_17
REMARK   18  A    between atoms: C_17  and  C_18
REMARK   19  A    between atoms: C_18  and  O_20
REMARK   20  A    between atoms: O_20  and  C_21
REMARK   21  A    between atoms: O_22  and  C_23
REMARK   22  A    between atoms: C_25  and  C_26
REMARK   23  A    between atoms: C_26  and  O_27
REMARK   24  A    between atoms: C_28  and  O_29
REMARK   25  A    between atoms: C_30  and  O_31
REMARK   26  A    between atoms: C_32  and  O_33
REMARK                            x       y       z     vdW  Elec       q    Type
REMARK                         _______ _______ _______ _____ _____    ______ ____
ROOT
ATOM      1  C   UNL     1       4.221   6.762  17.600  0.00  0.00    +0.000 C 
ENDROOT
BRANCH   1   2
ATOM      2  O   UNL     1       3.774   5.429  17.906  0.00  0.00    +0.000 OA
BRANCH   2   3
ATOM      3  C   UNL     1       4.132   4.954  19.204  0.00  0.00    +0.000 C 
ATOM      4  O   UNL     1       2.989   4.864  20.042  0.00  0.00    +0.000 OA
ATOM      5  C   UNL     1       1.990   3.992  19.495  0.00  0.00    +0.000 C 
ATOM      6  C   UNL     1       2.535   2.557  19.366  0.00  0.00    +0.000 C 
ATOM      7  C   UNL     1       3.836   2.549  18.544  0.00  0.00    +0.000 C 
ATOM      8  C   UNL     1       4.823   3.571  19.107  0.00  0.00    +0.000 C 
BRANCH   8   9
ATOM      9  O   UNL     1       6.025   3.626  18.334  0.00  0.00    +0.000 OA
ATOM     10  H   UNL     1       5.770   3.838  17.417  0.00  0.00    +0.000 HD
ENDBRANCH   8   9
BRANCH   7  11
ATOM     11  O   UNL     1       4.443   1.249  18.536  0.00  0.00    +0.000 OA
ATOM     12  H   UNL     1       3.751   0.584  18.715  0.00  0.00    +0.000 HD
ENDBRANCH   7  11
BRANCH   6  13
ATOM     13  O   UNL     1       1.550   1.695  18.782  0.00  0.00    +0.000 OA
ATOM     14  H   UNL     1       0.787   1.658  19.391  0.00  0.00    +0.000 HD
ENDBRANCH   6  13
BRANCH   5  15
ATOM     15  C   UNL     1       0.747   4.061  20.390  0.00  0.00    +0.000 C 
BRANCH  15  16
ATOM     16  O   UNL     1       0.633   2.933  21.247  0.00  0.00    +0.000 OA
ATOM     17  H   UNL     1      -0.040   3.150  21.925  0.00  0.00    +0.000 HD
ENDBRANCH  15  16
ENDBRANCH   5  15
ENDBRANCH   2   3
ENDBRANCH   1   2
BRANCH   1  18
ATOM     18  C   UNL     1       2.993   7.607  17.191  0.00  0.00    +0.000 C 
BRANCH  18  19
ATOM     19  C   UNL     1       2.309   8.356  18.348  0.00  0.00    +0.000 C 
BRANCH  19  20
ATOM     20  C   UNL     1       1.763   9.744  17.984  0.00  0.00    +0.000 C 
BRANCH  20  21
ATOM     21  C   UNL     1       0.456  10.085  18.701  0.00  0.00    +0.000 C 
BRANCH  21  22
ATOM     22  C   UNL     1       0.746  10.912  19.943  0.00  0.00    +0.000 C 
BRANCH  22  23
ATOM     23  C   UNL     1      -0.019  12.218  19.940  0.00  0.00    +0.000 C 
BRANCH  23  24
ATOM     24  C   UNL     1       0.171  12.875  18.584  0.00  0.00    +0.000 C 
BRANCH  24  25
ATOM     25  C   UNL     1       1.408  13.753  18.574  0.00  0.00    +0.000 C 
BRANCH  25  26
ATOM     26  C   UNL     1       1.048  15.123  19.126  0.00  0.00    +0.000 C 
BRANCH  26  27
ATOM     27  C   UNL     1       2.291  15.906  19.516  0.00  0.00    +0.000 C 
BRANCH  27  28
ATOM     28  C   UNL     1       2.424  17.125  18.642  0.00  0.00    +0.000 C 
ATOM     29  O   UNL     1       1.632  18.061  18.599  0.00  0.00    +0.000 OA
BRANCH  28  30
ATOM     30  O   UNL     1       3.561  17.039  17.900  0.00  0.00    +0.000 OA
ATOM     31  C   UNL     1       4.599  16.312  18.552  0.00  0.00    +0.000 C 
ENDBRANCH  28  30
ENDBRANCH  27  28
ENDBRANCH  26  27
ENDBRANCH  25  26
ENDBRANCH  24  25
ENDBRANCH  23  24
ENDBRANCH  22  23
ENDBRANCH  21  22
ENDBRANCH  20  21
ENDBRANCH  19  20
ENDBRANCH  18  19
ENDBRANCH   1  18
BRANCH   1  32
ATOM     32  C   UNL     1       5.305   6.739  16.516  0.00  0.00    +0.000 C 
BRANCH  32  33
ATOM     33  C   UNL     1       5.160   5.663  15.450  0.00  0.00    +0.000 C 
BRANCH  33  34
ATOM     34  C   UNL     1       6.488   5.123  14.914  0.00  0.00    +0.000 C 
BRANCH  34  35
ATOM     35  C   UNL     1       6.216   3.796  14.207  0.00  0.00    +0.000 C 
BRANCH  35  37
ATOM     36  C   UNL     1       5.340   3.143  11.965  0.00  0.00    +0.000 C 
ATOM     37  C   UNL     1       6.462   3.857  12.706  0.00  0.00    +0.000 C 
ENDBRANCH  35  37
ENDBRANCH  34  35
ENDBRANCH  33  34
ENDBRANCH  32  33
ENDBRANCH   1  32
TORSDOF 24
ENDMDL
