MODEL 1
REMARK VINA RESULT:      -8.4      0.000      0.000
REMARK  Name = 
REMARK  5 active torsions:
REMARK  status: ('A' for Active; 'I' for Inactive)
REMARK    1  A    between atoms: C_1  and  N_2
REMARK    2  A    between atoms: N_12  and  C_13
REMARK    3  A    between atoms: C_13  and  C_14
REMARK    4  A    between atoms: C_14  and  C_15
REMARK    5  A    between atoms: N_24  and  C_25
REMARK                            x       y       z     vdW  Elec       q    Type
REMARK                         _______ _______ _______ _____ _____    ______ ____
ROOT
ATOM      1  C   UNL     1       6.329   5.596  14.499  0.00  0.00    +0.000 C 
ATOM      2  N   UNL     1       6.111   5.211  15.880  0.00  0.00    +0.000 N 
ATOM      3  C   UNL     1       5.015   4.397  16.164  0.00  0.00    +0.000 A 
ATOM      4  O   UNL     1       4.205   3.996  15.333  0.00  0.00    +0.000 OA
ATOM      5  C   UNL     1       4.916   4.073  17.541  0.00  0.00    +0.000 A 
ATOM      6  C   UNL     1       5.774   4.536  18.493  0.00  0.00    +0.000 A 
ATOM      7  N   UNL     1       5.420   4.116  19.743  0.00  0.00    +0.000 NA
ATOM      8  C   UNL     1       4.330   3.389  19.558  0.00  0.00    +0.000 A 
ATOM      9  N   UNL     1       4.026   3.304  18.217  0.00  0.00    +0.000 N 
ATOM     10  C   UNL     1       2.876   2.599  17.687  0.00  0.00    +0.000 C 
ATOM     11  C   UNL     1       2.209   1.741  18.770  0.00  0.00    +0.000 C 
ATOM     12  N   UNL     1       2.095   2.419  20.082  0.00  0.00    +0.000 NA
ATOM     13  C   UNL     1       3.467   2.710  20.581  0.00  0.00    +0.000 C 
ATOM     14  N   UNL     1       6.837   5.340  18.160  0.00  0.00    +0.000 N 
ATOM     15  C   UNL     1       7.776   5.821  19.153  0.00  0.00    +0.000 C 
ATOM     16  C   UNL     1       7.039   5.693  16.822  0.00  0.00    +0.000 A 
ATOM     17  O   UNL     1       7.991   6.399  16.480  0.00  0.00    +0.000 OA
ENDROOT
BRANCH  12  18
ATOM     18  C   UNL     1       1.283   3.657  20.039  0.00  0.00    +0.000 C 
BRANCH  18  19
ATOM     19  C   UNL     1       1.826   4.783  20.937  0.00  0.00    +0.000 C 
BRANCH  19  20
ATOM     20  C   UNL     1       1.861   6.106  20.210  0.00  0.00    +0.000 A 
ATOM     21  C   UNL     1       2.384   6.190  18.916  0.00  0.00    +0.000 A 
ATOM     22  C   UNL     1       2.401   7.413  18.240  0.00  0.00    +0.000 A 
ATOM     23  C   UNL     1       1.890   8.563  18.849  0.00  0.00    +0.000 A 
ATOM     24 CL   UNL     1       1.940  10.037  17.951  0.00  0.00    +0.000 Cl
ATOM     25  C   UNL     1       1.360   8.488  20.141  0.00  0.00    +0.000 A 
ATOM     26 CL   UNL     1       0.709   9.864  20.958  0.00  0.00    +0.000 Cl
ATOM     27  C   UNL     1       1.344   7.263  20.816  0.00  0.00    +0.000 A 
ENDBRANCH  19  20
ENDBRANCH  18  19
ENDBRANCH  12  18
TORSDOF 3
ENDMDL
MODEL 2
REMARK VINA RESULT:      -8.0      0.697      1.433
REMARK  Name = 
REMARK  5 active torsions:
REMARK  status: ('A' for Active; 'I' for Inactive)
REMARK    1  A    between atoms: C_1  and  N_2
REMARK    2  A    between atoms: N_12  and  C_13
REMARK    3  A    between atoms: C_13  and  C_14
REMARK    4  A    between atoms: C_14  and  C_15
REMARK    5  A    between atoms: N_24  and  C_25
REMARK                            x       y       z     vdW  Elec       q    Type
REMARK                         _______ _______ _______ _____ _____    ______ ____
ROOT
ATOM      1  C   UNL     1       5.899   5.149  14.402  0.00  0.00    +0.000 C 
ATOM      2  N   UNL     1       5.768   4.845  15.814  0.00  0.00    +0.000 N 
ATOM      3  C   UNL     1       4.654   4.112  16.221  0.00  0.00    +0.000 A 
ATOM      4  O   UNL     1       3.761   3.720  15.476  0.00  0.00    +0.000 OA
ATOM      5  C   UNL     1       4.645   3.861  17.617  0.00  0.00    +0.000 A 
ATOM      6  C   UNL     1       5.599   4.317  18.477  0.00  0.00    +0.000 A 
ATOM      7  N   UNL     1       5.320   3.980  19.770  0.00  0.00    +0.000 NA
ATOM      8  C   UNL     1       4.181   3.311  19.706  0.00  0.00    +0.000 A 
ATOM      9  N   UNL     1       3.769   3.179  18.398  0.00  0.00    +0.000 N 
ATOM     10  C   UNL     1       2.544   2.519  17.993  0.00  0.00    +0.000 C 
ATOM     11  C   UNL     1       1.917   1.755  19.166  0.00  0.00    +0.000 C 
ATOM     12  N   UNL     1       1.942   2.501  20.445  0.00  0.00    +0.000 NA
ATOM     13  C   UNL     1       3.364   2.734  20.825  0.00  0.00    +0.000 C 
ATOM     14  N   UNL     1       6.676   5.040  18.024  0.00  0.00    +0.000 N 
ATOM     15  C   UNL     1       7.714   5.513  18.917  0.00  0.00    +0.000 C 
ATOM     16  C   UNL     1       6.792   5.316  16.658  0.00  0.00    +0.000 A 
ATOM     17  O   UNL     1       7.752   5.948  16.208  0.00  0.00    +0.000 OA
ENDROOT
BRANCH  12  18
ATOM     18  C   UNL     1       1.200   3.781  20.398  0.00  0.00    +0.000 C 
BRANCH  18  19
ATOM     19  C   UNL     1       1.880   4.919  21.180  0.00  0.00    +0.000 C 
BRANCH  19  20
ATOM     20  C   UNL     1       1.869   6.212  20.400  0.00  0.00    +0.000 A 
ATOM     21  C   UNL     1       1.187   7.330  20.890  0.00  0.00    +0.000 A 
ATOM     22  C   UNL     1       1.192   8.530  20.174  0.00  0.00    +0.000 A 
ATOM     23  C   UNL     1       1.883   8.626  18.963  0.00  0.00    +0.000 A 
ATOM     24 CL   UNL     1       1.848  10.141  18.135  0.00  0.00    +0.000 Cl
ATOM     25  C   UNL     1       2.572   7.515  18.467  0.00  0.00    +0.000 A 
ATOM     26 CL   UNL     1       3.450   7.556  16.979  0.00  0.00    +0.000 Cl
ATOM     27  C   UNL     1       2.566   6.314  19.185  0.00  0.00    +0.000 A 
ENDBRANCH  19  20
ENDBRANCH  18  19
ENDBRANCH  12  18
TORSDOF 3
ENDMDL
MODEL 3
REMARK VINA RESULT:      -7.4      7.074      9.775
REMARK  Name = 
REMARK  5 active torsions:
REMARK  status: ('A' for Active; 'I' for Inactive)
REMARK    1  A    between atoms: C_1  and  N_2
REMARK    2  A    between atoms: N_12  and  C_13
REMARK    3  A    between atoms: C_13  and  C_14
REMARK    4  A    between atoms: C_14  and  C_15
REMARK    5  A    between atoms: N_24  and  C_25
REMARK                            x       y       z     vdW  Elec       q    Type
REMARK                         _______ _______ _______ _____ _____    ______ ____
ROOT
ATOM      1  C   UNL     1      -6.032  11.941  17.542  0.00  0.00    +0.000 C 
ATOM      2  N   UNL     1      -4.959  12.124  18.500  0.00  0.00    +0.000 N 
ATOM      3  C   UNL     1      -3.719  11.560  18.203  0.00  0.00    +0.000 A 
ATOM      4  O   UNL     1      -3.470  10.899  17.199  0.00  0.00    +0.000 OA
ATOM      5  C   UNL     1      -2.747  11.820  19.203  0.00  0.00    +0.000 A 
ATOM      6  C   UNL     1      -3.002  12.512  20.348  0.00  0.00    +0.000 A 
ATOM      7  N   UNL     1      -1.906  12.571  21.161  0.00  0.00    +0.000 NA
ATOM      8  C   UNL     1      -0.968  11.904  20.510  0.00  0.00    +0.000 A 
ATOM      9  N   UNL     1      -1.437  11.475  19.288  0.00  0.00    +0.000 N 
ATOM     10  C   UNL     1      -0.660  10.694  18.346  0.00  0.00    +0.000 C 
ATOM     11  C   UNL     1       0.818  10.646  18.758  0.00  0.00    +0.000 C 
ATOM     12  N   UNL     1       1.025  10.437  20.210  0.00  0.00    +0.000 NA
ATOM     13  C   UNL     1       0.437  11.595  20.940  0.00  0.00    +0.000 C 
ATOM     14  N   UNL     1      -4.244  13.045  20.594  0.00  0.00    +0.000 N 
ATOM     15  C   UNL     1      -4.530  13.807  21.793  0.00  0.00    +0.000 C 
ATOM     16  C   UNL     1      -5.265  12.868  19.654  0.00  0.00    +0.000 A 
ATOM     17  O   UNL     1      -6.390  13.345  19.830  0.00  0.00    +0.000 OA
ENDROOT
BRANCH  12  18
ATOM     18  C   UNL     1       0.461   9.164  20.711  0.00  0.00    +0.000 C 
BRANCH  18  19
ATOM     19  C   UNL     1       1.520   8.193  21.263  0.00  0.00    +0.000 C 
BRANCH  19  20
ATOM     20  C   UNL     1       1.781   7.053  20.308  0.00  0.00    +0.000 A 
ATOM     21  C   UNL     1       2.374   7.291  19.064  0.00  0.00    +0.000 A 
ATOM     22  C   UNL     1       2.628   6.232  18.189  0.00  0.00    +0.000 A 
ATOM     23  C   UNL     1       2.296   4.923  18.550  0.00  0.00    +0.000 A 
ATOM     24 CL   UNL     1       2.643   3.665  17.419  0.00  0.00    +0.000 Cl
ATOM     25  C   UNL     1       1.706   4.674  19.793  0.00  0.00    +0.000 A 
ATOM     26 CL   UNL     1       1.269   3.085  20.311  0.00  0.00    +0.000 Cl
ATOM     27  C   UNL     1       1.453   5.736  20.668  0.00  0.00    +0.000 A 
ENDBRANCH  19  20
ENDBRANCH  18  19
ENDBRANCH  12  18
TORSDOF 3
ENDMDL
MODEL 4
REMARK VINA RESULT:      -7.3      4.668      6.556
REMARK  Name = 
REMARK  5 active torsions:
REMARK  status: ('A' for Active; 'I' for Inactive)
REMARK    1  A    between atoms: C_1  and  N_2
REMARK    2  A    between atoms: N_12  and  C_13
REMARK    3  A    between atoms: C_13  and  C_14
REMARK    4  A    between atoms: C_14  and  C_15
REMARK    5  A    between atoms: N_24  and  C_25
REMARK                            x       y       z     vdW  Elec       q    Type
REMARK                         _______ _______ _______ _____ _____    ______ ____
ROOT
ATOM      1  C   UNL     1       3.287   3.439  19.958  0.00  0.00    +0.000 C 
ATOM      2  N   UNL     1       3.251   4.728  19.294  0.00  0.00    +0.000 N 
ATOM      3  C   UNL     1       2.441   5.721  19.843  0.00  0.00    +0.000 A 
ATOM      4  O   UNL     1       1.735   5.580  20.838  0.00  0.00    +0.000 OA
ATOM      5  C   UNL     1       2.502   6.939  19.119  0.00  0.00    +0.000 A 
ATOM      6  C   UNL     1       3.241   7.114  17.989  0.00  0.00    +0.000 A 
ATOM      7  N   UNL     1       3.078   8.365  17.464  0.00  0.00    +0.000 NA
ATOM      8  C   UNL     1       2.226   8.964  18.280  0.00  0.00    +0.000 A 
ATOM      9  N   UNL     1       1.894   8.135  19.328  0.00  0.00    +0.000 N 
ATOM     10  C   UNL     1       0.962   8.487  20.381  0.00  0.00    +0.000 C 
ATOM     11  C   UNL     1       0.613   9.981  20.329  0.00  0.00    +0.000 C 
ATOM     12  N   UNL     1       0.377  10.491  18.959  0.00  0.00    +0.000 NA
ATOM     13  C   UNL     1       1.637  10.340  18.178  0.00  0.00    +0.000 C 
ATOM     14  N   UNL     1       4.021   6.101  17.486  0.00  0.00    +0.000 N 
ATOM     15  C   UNL     1       4.834   6.274  16.300  0.00  0.00    +0.000 C 
ATOM     16  C   UNL     1       4.052   4.868  18.145  0.00  0.00    +0.000 A 
ATOM     17  O   UNL     1       4.752   3.938  17.735  0.00  0.00    +0.000 OA
ENDROOT
BRANCH  12  18
ATOM     18  C   UNL     1      -0.748   9.824  18.265  0.00  0.00    +0.000 C 
BRANCH  18  19
ATOM     19  C   UNL     1      -1.633  10.788  17.454  0.00  0.00    +0.000 C 
BRANCH  19  20
ATOM     20  C   UNL     1      -2.796  11.297  18.271  0.00  0.00    +0.000 A 
ATOM     21  C   UNL     1      -2.580  12.150  19.358  0.00  0.00    +0.000 A 
ATOM     22  C   UNL     1      -3.660  12.631  20.102  0.00  0.00    +0.000 A 
ATOM     23  C   UNL     1      -4.967  12.268  19.765  0.00  0.00    +0.000 A 
ATOM     24 CL   UNL     1      -6.251  12.904  20.729  0.00  0.00    +0.000 Cl
ATOM     25  C   UNL     1      -5.194  11.419  18.678  0.00  0.00    +0.000 A 
ATOM     26 CL   UNL     1      -6.779  10.928  18.199  0.00  0.00    +0.000 Cl
ATOM     27  C   UNL     1      -4.111  10.938  17.933  0.00  0.00    +0.000 A 
ENDBRANCH  19  20
ENDBRANCH  18  19
ENDBRANCH  12  18
TORSDOF 3
ENDMDL
MODEL 5
REMARK VINA RESULT:      -7.3      4.547      6.195
REMARK  Name = 
REMARK  5 active torsions:
REMARK  status: ('A' for Active; 'I' for Inactive)
REMARK    1  A    between atoms: C_1  and  N_2
REMARK    2  A    between atoms: N_12  and  C_13
REMARK    3  A    between atoms: C_13  and  C_14
REMARK    4  A    between atoms: C_14  and  C_15
REMARK    5  A    between atoms: N_24  and  C_25
REMARK                            x       y       z     vdW  Elec       q    Type
REMARK                         _______ _______ _______ _____ _____    ______ ____
ROOT
ATOM      1  C   UNL     1       3.778   3.264  19.625  0.00  0.00    +0.000 C 
ATOM      2  N   UNL     1       3.601   4.604  19.100  0.00  0.00    +0.000 N 
ATOM      3  C   UNL     1       2.791   5.483  19.817  0.00  0.00    +0.000 A 
ATOM      4  O   UNL     1       2.195   5.201  20.853  0.00  0.00    +0.000 OA
ATOM      5  C   UNL     1       2.709   6.765  19.217  0.00  0.00    +0.000 A 
ATOM      6  C   UNL     1       3.324   7.096  18.047  0.00  0.00    +0.000 A 
ATOM      7  N   UNL     1       3.037   8.377  17.667  0.00  0.00    +0.000 NA
ATOM      8  C   UNL     1       2.235   8.837  18.613  0.00  0.00    +0.000 A 
ATOM      9  N   UNL     1       2.055   7.892  19.599  0.00  0.00    +0.000 N 
ATOM     10  C   UNL     1       1.211   8.079  20.762  0.00  0.00    +0.000 C 
ATOM     11  C   UNL     1       0.771   9.544  20.892  0.00  0.00    +0.000 C 
ATOM     12  N   UNL     1       0.373  10.163  19.607  0.00  0.00    +0.000 NA
ATOM     13  C   UNL     1       1.558  10.173  18.705  0.00  0.00    +0.000 C 
ATOM     14  N   UNL     1       4.110   6.191  17.377  0.00  0.00    +0.000 N 
ATOM     15  C   UNL     1       4.792   6.530  16.145  0.00  0.00    +0.000 C 
ATOM     16  C   UNL     1       4.277   4.906  17.902  0.00  0.00    +0.000 A 
ATOM     17  O   UNL     1       4.988   4.068  17.340  0.00  0.00    +0.000 OA
ENDROOT
BRANCH  12  18
ATOM     18  C   UNL     1      -0.772   9.490  18.956  0.00  0.00    +0.000 C 
BRANCH  18  19
ATOM     19  C   UNL     1      -1.067  10.007  17.536  0.00  0.00    +0.000 C 
BRANCH  19  20
ATOM     20  C   UNL     1      -2.428  10.656  17.452  0.00  0.00    +0.000 A 
ATOM     21  C   UNL     1      -3.140  10.656  16.248  0.00  0.00    +0.000 A 
ATOM     22  C   UNL     1      -4.405  11.244  16.178  0.00  0.00    +0.000 A 
ATOM     23  C   UNL     1      -4.973  11.835  17.311  0.00  0.00    +0.000 A 
ATOM     24 CL   UNL     1      -6.542  12.540  17.149  0.00  0.00    +0.000 Cl
ATOM     25  C   UNL     1      -4.270  11.837  18.519  0.00  0.00    +0.000 A 
ATOM     26 CL   UNL     1      -4.906  12.545  19.961  0.00  0.00    +0.000 Cl
ATOM     27  C   UNL     1      -3.004  11.247  18.588  0.00  0.00    +0.000 A 
ENDBRANCH  19  20
ENDBRANCH  18  19
ENDBRANCH  12  18
TORSDOF 3
ENDMDL
MODEL 6
REMARK VINA RESULT:      -7.0      1.035      1.668
REMARK  Name = 
REMARK  5 active torsions:
REMARK  status: ('A' for Active; 'I' for Inactive)
REMARK    1  A    between atoms: C_1  and  N_2
REMARK    2  A    between atoms: N_12  and  C_13
REMARK    3  A    between atoms: C_13  and  C_14
REMARK    4  A    between atoms: C_14  and  C_15
REMARK    5  A    between atoms: N_24  and  C_25
REMARK                            x       y       z     vdW  Elec       q    Type
REMARK                         _______ _______ _______ _____ _____    ______ ____
ROOT
ATOM      1  C   UNL     1       5.712   4.366  14.254  0.00  0.00    +0.000 C 
ATOM      2  N   UNL     1       5.587   4.263  15.695  0.00  0.00    +0.000 N 
ATOM      3  C   UNL     1       4.382   3.789  16.212  0.00  0.00    +0.000 A 
ATOM      4  O   UNL     1       3.407   3.470  15.539  0.00  0.00    +0.000 OA
ATOM      5  C   UNL     1       4.386   3.716  17.629  0.00  0.00    +0.000 A 
ATOM      6  C   UNL     1       5.436   4.101  18.406  0.00  0.00    +0.000 A 
ATOM      7  N   UNL     1       5.156   3.976  19.737  0.00  0.00    +0.000 NA
ATOM      8  C   UNL     1       3.918   3.512  19.778  0.00  0.00    +0.000 A 
ATOM      9  N   UNL     1       3.439   3.296  18.505  0.00  0.00    +0.000 N 
ATOM     10  C   UNL     1       2.105   2.813  18.209  0.00  0.00    +0.000 C 
ATOM     11  C   UNL     1       1.404   2.317  19.481  0.00  0.00    +0.000 C 
ATOM     12  N   UNL     1       1.606   3.198  20.655  0.00  0.00    +0.000 NA
ATOM     13  C   UNL     1       3.060   3.225  20.976  0.00  0.00    +0.000 C 
ATOM     14  N   UNL     1       6.601   4.566  17.846  0.00  0.00    +0.000 N 
ATOM     15  C   UNL     1       7.739   4.957  18.653  0.00  0.00    +0.000 C 
ATOM     16  C   UNL     1       6.708   4.649  16.454  0.00  0.00    +0.000 A 
ATOM     17  O   UNL     1       7.743   5.046  15.911  0.00  0.00    +0.000 OA
ENDROOT
BRANCH  12  18
ATOM     18  C   UNL     1       1.090   4.571  20.460  0.00  0.00    +0.000 C 
BRANCH  18  19
ATOM     19  C   UNL     1       2.035   5.667  20.983  0.00  0.00    +0.000 C 
BRANCH  19  20
ATOM     20  C   UNL     1       1.534   7.048  20.632  0.00  0.00    +0.000 A 
ATOM     21  C   UNL     1       0.645   7.716  21.479  0.00  0.00    +0.000 A 
ATOM     22  C   UNL     1       0.196   8.999  21.158  0.00  0.00    +0.000 A 
ATOM     23  C   UNL     1       0.634   9.630  19.991  0.00  0.00    +0.000 A 
ATOM     24 CL   UNL     1       0.039  11.218  19.662  0.00  0.00    +0.000 Cl
ATOM     25  C   UNL     1       1.527   8.972  19.139  0.00  0.00    +0.000 A 
ATOM     26 CL   UNL     1       2.115   9.686  17.680  0.00  0.00    +0.000 Cl
ATOM     27  C   UNL     1       1.976   7.686  19.462  0.00  0.00    +0.000 A 
ENDBRANCH  19  20
ENDBRANCH  18  19
ENDBRANCH  12  18
TORSDOF 3
ENDMDL
MODEL 7
REMARK VINA RESULT:      -7.0      6.880      9.622
REMARK  Name = 
REMARK  5 active torsions:
REMARK  status: ('A' for Active; 'I' for Inactive)
REMARK    1  A    between atoms: C_1  and  N_2
REMARK    2  A    between atoms: N_12  and  C_13
REMARK    3  A    between atoms: C_13  and  C_14
REMARK    4  A    between atoms: C_14  and  C_15
REMARK    5  A    between atoms: N_24  and  C_25
REMARK                            x       y       z     vdW  Elec       q    Type
REMARK                         _______ _______ _______ _____ _____    ______ ____
ROOT
ATOM      1  C   UNL     1      -5.804  11.913  17.194  0.00  0.00    +0.000 C 
ATOM      2  N   UNL     1      -4.781  12.050  18.213  0.00  0.00    +0.000 N 
ATOM      3  C   UNL     1      -3.532  11.485  17.961  0.00  0.00    +0.000 A 
ATOM      4  O   UNL     1      -3.236  10.859  16.948  0.00  0.00    +0.000 OA
ATOM      5  C   UNL     1      -2.612  11.700  19.020  0.00  0.00    +0.000 A 
ATOM      6  C   UNL     1      -2.922  12.353  20.174  0.00  0.00    +0.000 A 
ATOM      7  N   UNL     1      -1.870  12.371  21.045  0.00  0.00    +0.000 NA
ATOM      8  C   UNL     1      -0.903  11.720  20.420  0.00  0.00    +0.000 A 
ATOM      9  N   UNL     1      -1.311  11.339  19.160  0.00  0.00    +0.000 N 
ATOM     10  C   UNL     1      -0.491  10.586  18.233  0.00  0.00    +0.000 C 
ATOM     11  C   UNL     1       0.963  10.510  18.719  0.00  0.00    +0.000 C 
ATOM     12  N   UNL     1       1.092  10.246  20.171  0.00  0.00    +0.000 NA
ATOM     13  C   UNL     1       0.474  11.382  20.911  0.00  0.00    +0.000 C 
ATOM     14  N   UNL     1      -4.171  12.888  20.374  0.00  0.00    +0.000 N 
ATOM     15  C   UNL     1      -4.513  13.608  21.583  0.00  0.00    +0.000 C 
ATOM     16  C   UNL     1      -5.142  12.755  19.377  0.00  0.00    +0.000 A 
ATOM     17  O   UNL     1      -6.271  13.236  19.510  0.00  0.00    +0.000 OA
ENDROOT
BRANCH  12  18
ATOM     18  C   UNL     1       0.492   8.961  20.594  0.00  0.00    +0.000 C 
BRANCH  18  19
ATOM     19  C   UNL     1       1.492   8.004  21.270  0.00  0.00    +0.000 C 
BRANCH  19  20
ATOM     20  C   UNL     1       1.925   6.901  20.334  0.00  0.00    +0.000 A 
ATOM     21  C   UNL     1       1.498   5.586  20.543  0.00  0.00    +0.000 A 
ATOM     22  C   UNL     1       1.888   4.571  19.666  0.00  0.00    +0.000 A 
ATOM     23  C   UNL     1       2.705   4.860  18.569  0.00  0.00    +0.000 A 
ATOM     24 CL   UNL     1       3.143   3.554  17.528  0.00  0.00    +0.000 Cl
ATOM     25  C   UNL     1       3.133   6.173  18.350  0.00  0.00    +0.000 A 
ATOM     26 CL   UNL     1       4.141   6.609  17.016  0.00  0.00    +0.000 Cl
ATOM     27  C   UNL     1       2.741   7.189  19.228  0.00  0.00    +0.000 A 
ENDBRANCH  19  20
ENDBRANCH  18  19
ENDBRANCH  12  18
TORSDOF 3
ENDMDL
MODEL 8
REMARK VINA RESULT:      -6.9      6.512      9.050
REMARK  Name = 
REMARK  5 active torsions:
REMARK  status: ('A' for Active; 'I' for Inactive)
REMARK    1  A    between atoms: C_1  and  N_2
REMARK    2  A    between atoms: N_12  and  C_13
REMARK    3  A    between atoms: C_13  and  C_14
REMARK    4  A    between atoms: C_14  and  C_15
REMARK    5  A    between atoms: N_24  and  C_25
REMARK                            x       y       z     vdW  Elec       q    Type
REMARK                         _______ _______ _______ _____ _____    ______ ____
ROOT
ATOM      1  C   UNL     1      -1.384  14.117  23.482  0.00  0.00    +0.000 C 
ATOM      2  N   UNL     1      -0.443  13.818  22.420  0.00  0.00    +0.000 N 
ATOM      3  C   UNL     1      -0.732  12.746  21.577  0.00  0.00    +0.000 A 
ATOM      4  O   UNL     1      -1.716  12.019  21.678  0.00  0.00    +0.000 OA
ATOM      5  C   UNL     1       0.249  12.563  20.569  0.00  0.00    +0.000 A 
ATOM      6  C   UNL     1       1.372  13.325  20.456  0.00  0.00    +0.000 A 
ATOM      7  N   UNL     1       2.172  12.901  19.433  0.00  0.00    +0.000 NA
ATOM      8  C   UNL     1       1.535  11.865  18.914  0.00  0.00    +0.000 A 
ATOM      9  N   UNL     1       0.333  11.664  19.556  0.00  0.00    +0.000 N 
ATOM     10  C   UNL     1      -0.589  10.592  19.239  0.00  0.00    +0.000 C 
ATOM     11  C   UNL     1      -0.190   9.890  17.933  0.00  0.00    +0.000 C 
ATOM     12  N   UNL     1       1.266   9.647  17.809  0.00  0.00    +0.000 NA
ATOM     13  C   UNL     1       1.962  10.964  17.792  0.00  0.00    +0.000 C 
ATOM     14  N   UNL     1       1.612  14.369  21.316  0.00  0.00    +0.000 N 
ATOM     15  C   UNL     1       2.787  15.208  21.197  0.00  0.00    +0.000 C 
ATOM     16  C   UNL     1       0.688  14.650  22.328  0.00  0.00    +0.000 A 
ATOM     17  O   UNL     1       0.858  15.589  23.111  0.00  0.00    +0.000 OA
ENDROOT
BRANCH  12  18
ATOM     18  C   UNL     1       1.815   8.782  18.877  0.00  0.00    +0.000 C 
BRANCH  18  19
ATOM     19  C   UNL     1       2.798   7.714  18.363  0.00  0.00    +0.000 C 
BRANCH  19  20
ATOM     20  C   UNL     1       2.474   6.347  18.915  0.00  0.00    +0.000 A 
ATOM     21  C   UNL     1       2.058   6.199  20.242  0.00  0.00    +0.000 A 
ATOM     22  C   UNL     1       1.744   4.934  20.746  0.00  0.00    +0.000 A 
ATOM     23  C   UNL     1       1.837   3.805  19.927  0.00  0.00    +0.000 A 
ATOM     24 CL   UNL     1       1.429   2.276  20.617  0.00  0.00    +0.000 Cl
ATOM     25  C   UNL     1       2.247   3.944  18.597  0.00  0.00    +0.000 A 
ATOM     26 CL   UNL     1       2.384   2.597  17.524  0.00  0.00    +0.000 Cl
ATOM     27  C   UNL     1       2.561   5.211  18.094  0.00  0.00    +0.000 A 
ENDBRANCH  19  20
ENDBRANCH  18  19
ENDBRANCH  12  18
TORSDOF 3
ENDMDL
MODEL 9
REMARK VINA RESULT:      -6.9      6.585      9.191
REMARK  Name = 
REMARK  5 active torsions:
REMARK  status: ('A' for Active; 'I' for Inactive)
REMARK    1  A    between atoms: C_1  and  N_2
REMARK    2  A    between atoms: N_12  and  C_13
REMARK    3  A    between atoms: C_13  and  C_14
REMARK    4  A    between atoms: C_14  and  C_15
REMARK    5  A    between atoms: N_24  and  C_25
REMARK                            x       y       z     vdW  Elec       q    Type
REMARK                         _______ _______ _______ _____ _____    ______ ____
ROOT
ATOM      1  C   UNL     1      -4.551  10.811  15.455  0.00  0.00    +0.000 C 
ATOM      2  N   UNL     1      -4.002  11.153  16.753  0.00  0.00    +0.000 N 
ATOM      3  C   UNL     1      -2.667  10.833  16.999  0.00  0.00    +0.000 A 
ATOM      4  O   UNL     1      -1.924  10.262  16.207  0.00  0.00    +0.000 OA
ATOM      5  C   UNL     1      -2.239  11.232  18.292  0.00  0.00    +0.000 A 
ATOM      6  C   UNL     1      -3.050  11.829  19.209  0.00  0.00    +0.000 A 
ATOM      7  N   UNL     1      -2.400  12.059  20.388  0.00  0.00    +0.000 NA
ATOM      8  C   UNL     1      -1.177  11.595  20.194  0.00  0.00    +0.000 A 
ATOM      9  N   UNL     1      -1.033  11.128  18.906  0.00  0.00    +0.000 N 
ATOM     10  C   UNL     1       0.182  10.533  18.387  0.00  0.00    +0.000 C 
ATOM     11  C   UNL     1       1.354  10.740  19.355  0.00  0.00    +0.000 C 
ATOM     12  N   UNL     1       0.998  10.524  20.776  0.00  0.00    +0.000 NA
ATOM     13  C   UNL     1      -0.030  11.531  21.161  0.00  0.00    +0.000 C 
ATOM     14  N   UNL     1      -4.360  12.120  18.917  0.00  0.00    +0.000 N 
ATOM     15  C   UNL     1      -5.232  12.777  19.868  0.00  0.00    +0.000 C 
ATOM     16  C   UNL     1      -4.871  11.791  17.657  0.00  0.00    +0.000 A 
ATOM     17  O   UNL     1      -6.038  12.050  17.349  0.00  0.00    +0.000 OA
ENDROOT
BRANCH  12  18
ATOM     18  C   UNL     1       0.519   9.154  21.064  0.00  0.00    +0.000 C 
BRANCH  18  19
ATOM     19  C   UNL     1       1.638   8.181  21.477  0.00  0.00    +0.000 C 
BRANCH  19  20
ATOM     20  C   UNL     1       1.806   7.068  20.472  0.00  0.00    +0.000 A 
ATOM     21  C   UNL     1       2.352   7.327  19.211  0.00  0.00    +0.000 A 
ATOM     22  C   UNL     1       2.520   6.291  18.289  0.00  0.00    +0.000 A 
ATOM     23  C   UNL     1       2.149   4.985  18.619  0.00  0.00    +0.000 A 
ATOM     24 CL   UNL     1       2.389   3.756  17.429  0.00  0.00    +0.000 Cl
ATOM     25  C   UNL     1       1.606   4.714  19.879  0.00  0.00    +0.000 A 
ATOM     26 CL   UNL     1       1.125   3.127  20.361  0.00  0.00    +0.000 Cl
ATOM     27  C   UNL     1       1.439   5.753  20.801  0.00  0.00    +0.000 A 
ENDBRANCH  19  20
ENDBRANCH  18  19
ENDBRANCH  12  18
TORSDOF 3
ENDMDL
