MODEL 1
REMARK VINA RESULT:      -9.0      0.000      0.000
REMARK  Name = 
REMARK  7 active torsions:
REMARK  status: ('A' for Active; 'I' for Inactive)
REMARK    1  A    between atoms: N_1  and  S_2
REMARK    2  A    between atoms: S_2  and  C_5
REMARK    3  A    between atoms: C_8  and  N_9
REMARK    4  A    between atoms: N_9  and  C_10
REMARK    5  A    between atoms: C_13  and  C_14
REMARK    6  A    between atoms: C_18  and  S_19
REMARK    7  A    between atoms: S_19  and  N_20
REMARK                            x       y       z     vdW  Elec       q    Type
REMARK                         _______ _______ _______ _____ _____    ______ ____
ROOT
ATOM      1  C   UNL     1       2.523   6.558  19.698  0.00  0.00    +0.000 A 
ATOM      2  N   UNL     1       2.432   6.346  18.349  0.00  0.00    +0.000 NA
ATOM      3  N   UNL     1       1.656   5.463  18.045  0.00  0.00    +0.000 NA
ATOM      4  C   UNL     1       2.268   4.371  18.314  0.00  0.00    +0.000 A 
ATOM      5  C   UNL     1       2.033   4.045  19.622  0.00  0.00    +0.000 A 
ATOM      6  C   UNL     1       1.069   3.571  20.739  0.00  0.00    +0.000 A 
ATOM      7  C   UNL     1       1.399   2.551  21.689  0.00  0.00    +0.000 A 
ATOM      8  C   UNL     1       2.541   1.957  21.373  0.00  0.00    +0.000 A 
ATOM      9  C   UNL     1       3.290   3.019  20.599  0.00  0.00    +0.000 A 
ATOM     10  C   UNL     1       2.905   4.782  20.170  0.00  0.00    +0.000 A 
ENDROOT
BRANCH   4  11
ATOM     11  C   UNL     1       3.718   4.301  17.723  0.00  0.00    +0.000 A 
ATOM     12  C   UNL     1       3.688   4.129  16.363  0.00  0.00    +0.000 A 
ATOM     13  C   UNL     1       4.839   4.344  15.642  0.00  0.00    +0.000 A 
ATOM     14  C   UNL     1       6.008   4.826  16.258  0.00  0.00    +0.000 A 
ATOM     15  C   UNL     1       6.111   4.882  17.642  0.00  0.00    +0.000 A 
ATOM     16  C   UNL     1       4.988   4.553  18.383  0.00  0.00    +0.000 A 
BRANCH  15  17
ATOM     17  S   UNL     1       7.606   5.425  18.446  0.00  0.00    +0.000 S 
ATOM     18  O   UNL     1       8.611   4.408  18.249  0.00  0.00    +0.000 OA
ATOM     19  O   UNL     1       7.836   6.815  18.119  0.00  0.00    +0.000 OA
BRANCH  17  20
ATOM     20  N   UNL     1       7.142   5.387  20.059  0.00  0.00    +0.000 NA
ATOM     21  H   UNL     1       7.899   5.207  20.712  0.00  0.00    +0.000 HD
ATOM     22  H   UNL     1       6.261   4.910  20.234  0.00  0.00    +0.000 HD
ENDBRANCH  17  20
ENDBRANCH  15  17
ENDBRANCH   4  11
BRANCH   1  23
ATOM     23  N   UNL     1       2.165   8.078  18.910  0.00  0.00    +0.000 N 
ATOM     24  H   UNL     1       2.248   7.858  17.908  0.00  0.00    +0.000 HD
BRANCH  23  28
ATOM     25  C   UNL     1       0.553  12.846  19.068  0.00  0.00    +0.000 A 
ATOM     26  C   UNL     1       1.697  12.592  18.321  0.00  0.00    +0.000 A 
ATOM     27  C   UNL     1       2.219  11.071  18.106  0.00  0.00    +0.000 A 
ATOM     28  C   UNL     1       1.644   9.750  18.795  0.00  0.00    +0.000 A 
ATOM     29  C   UNL     1       0.452  10.204  19.384  0.00  0.00    +0.000 A 
ATOM     30  C   UNL     1      -0.053  11.657  19.508  0.00  0.00    +0.000 A 
BRANCH  25  31
ATOM     31  S   UNL     1      -0.230  14.480  19.483  0.00  0.00    +0.000 S 
ATOM     32  O   UNL     1      -0.187  15.339  18.320  0.00  0.00    +0.000 OA
ATOM     33  O   UNL     1       0.212  14.960  20.775  0.00  0.00    +0.000 OA
BRANCH  31  34
ATOM     34  N   UNL     1      -1.882  14.113  19.705  0.00  0.00    +0.000 NA
ATOM     35  H   UNL     1      -2.005  13.364  20.401  0.00  0.00    +0.000 HD
ATOM     36  H   UNL     1      -2.348  13.859  18.836  0.00  0.00    +0.000 HD
ENDBRANCH  31  34
ENDBRANCH  25  31
ENDBRANCH  23  28
ENDBRANCH   1  23
TORSDOF 7
ENDMDL
MODEL 2
REMARK VINA RESULT:      -8.9      2.341      2.771
REMARK  Name = 
REMARK  7 active torsions:
REMARK  status: ('A' for Active; 'I' for Inactive)
REMARK    1  A    between atoms: N_1  and  S_2
REMARK    2  A    between atoms: S_2  and  C_5
REMARK    3  A    between atoms: C_8  and  N_9
REMARK    4  A    between atoms: N_9  and  C_10
REMARK    5  A    between atoms: C_13  and  C_14
REMARK    6  A    between atoms: C_18  and  S_19
REMARK    7  A    between atoms: S_19  and  N_20
REMARK                            x       y       z     vdW  Elec       q    Type
REMARK                         _______ _______ _______ _____ _____    ______ ____
ROOT
ATOM      1  C   UNL     1       2.350   6.064  20.385  0.00  0.00    +0.000 A 
ATOM      2  N   UNL     1       2.379   6.811  19.239  0.00  0.00    +0.000 NA
ATOM      3  N   UNL     1       1.715   6.343  18.335  0.00  0.00    +0.000 NA
ATOM      4  C   UNL     1       2.409   5.367  17.880  0.00  0.00    +0.000 A 
ATOM      5  C   UNL     1       2.111   4.242  18.600  0.00  0.00    +0.000 A 
ATOM      6  C   UNL     1       1.118   3.120  18.994  0.00  0.00    +0.000 A 
ATOM      7  C   UNL     1       1.474   1.734  19.055  0.00  0.00    +0.000 A 
ATOM      8  C   UNL     1       2.687   1.532  18.563  0.00  0.00    +0.000 A 
ATOM      9  C   UNL     1       3.386   2.854  18.787  0.00  0.00    +0.000 A 
ATOM     10  C   UNL     1       2.866   4.440  19.598  0.00  0.00    +0.000 A 
ENDROOT
BRANCH   4  11
ATOM     11  C   UNL     1       3.898   5.745  17.571  0.00  0.00    +0.000 A 
ATOM     12  C   UNL     1       3.968   6.803  16.700  0.00  0.00    +0.000 A 
ATOM     13  C   UNL     1       5.167   7.459  16.550  0.00  0.00    +0.000 A 
ATOM     14  C   UNL     1       6.285   7.128  17.335  0.00  0.00    +0.000 A 
ATOM     15  C   UNL     1       6.287   5.984  18.122  0.00  0.00    +0.000 A 
ATOM     16  C   UNL     1       5.115   5.249  18.189  0.00  0.00    +0.000 A 
BRANCH  15  17
ATOM     17  S   UNL     1       7.717   5.509  19.075  0.00  0.00    +0.000 S 
ATOM     18  O   UNL     1       7.281   5.231  20.423  0.00  0.00    +0.000 OA
ATOM     19  O   UNL     1       8.502   4.570  18.306  0.00  0.00    +0.000 OA
BRANCH  17  20
ATOM     20  N   UNL     1       8.585   6.947  19.100  0.00  0.00    +0.000 NA
ATOM     21  H   UNL     1       8.671   7.404  18.196  0.00  0.00    +0.000 HD
ATOM     22  H   UNL     1       9.416   6.929  19.686  0.00  0.00    +0.000 HD
ENDBRANCH  17  20
ENDBRANCH  15  17
ENDBRANCH   4  11
BRANCH   1  23
ATOM     23  N   UNL     1       1.906   7.711  20.772  0.00  0.00    +0.000 N 
ATOM     24  H   UNL     1       2.533   8.276  20.183  0.00  0.00    +0.000 HD
BRANCH  23  28
ATOM     25  C   UNL     1      -1.030  11.468  22.390  0.00  0.00    +0.000 A 
ATOM     26  C   UNL     1      -0.888  10.372  23.232  0.00  0.00    +0.000 A 
ATOM     27  C   UNL     1       0.137   9.172  22.856  0.00  0.00    +0.000 A 
ATOM     28  C   UNL     1       0.953   8.996  21.494  0.00  0.00    +0.000 A 
ATOM     29  C   UNL     1       0.771  10.237  20.863  0.00  0.00    +0.000 A 
ATOM     30  C   UNL     1      -0.161  11.391  21.288  0.00  0.00    +0.000 A 
BRANCH  25  31
ATOM     31  S   UNL     1      -2.143  12.945  22.576  0.00  0.00    +0.000 S 
ATOM     32  O   UNL     1      -2.422  13.500  21.269  0.00  0.00    +0.000 OA
ATOM     33  O   UNL     1      -1.710  13.795  23.664  0.00  0.00    +0.000 OA
BRANCH  31  34
ATOM     34  N   UNL     1      -3.627  12.291  23.107  0.00  0.00    +0.000 NA
ATOM     35  H   UNL     1      -4.418  12.884  22.818  0.00  0.00    +0.000 HD
ATOM     36  H   UNL     1      -3.653  12.144  24.115  0.00  0.00    +0.000 HD
ENDBRANCH  31  34
ENDBRANCH  25  31
ENDBRANCH  23  28
ENDBRANCH   1  23
TORSDOF 7
ENDMDL
MODEL 3
REMARK VINA RESULT:      -8.9      5.575      7.387
REMARK  Name = 
REMARK  7 active torsions:
REMARK  status: ('A' for Active; 'I' for Inactive)
REMARK    1  A    between atoms: N_1  and  S_2
REMARK    2  A    between atoms: S_2  and  C_5
REMARK    3  A    between atoms: C_8  and  N_9
REMARK    4  A    between atoms: N_9  and  C_10
REMARK    5  A    between atoms: C_13  and  C_14
REMARK    6  A    between atoms: C_18  and  S_19
REMARK    7  A    between atoms: S_19  and  N_20
REMARK                            x       y       z     vdW  Elec       q    Type
REMARK                         _______ _______ _______ _____ _____    ______ ____
ROOT
ATOM      1  C   UNL     1       6.904   7.178  16.640  0.00  0.00    +0.000 A 
ATOM      2  N   UNL     1       7.250   6.431  17.733  0.00  0.00    +0.000 NA
ATOM      3  N   UNL     1       7.874   5.426  17.458  0.00  0.00    +0.000 NA
ATOM      4  C   UNL     1       7.004   4.605  17.001  0.00  0.00    +0.000 A 
ATOM      5  C   UNL     1       6.867   4.815  15.655  0.00  0.00    +0.000 A 
ATOM      6  C   UNL     1       7.435   4.738  14.216  0.00  0.00    +0.000 A 
ATOM      7  C   UNL     1       6.696   4.229  13.099  0.00  0.00    +0.000 A 
ATOM      8  C   UNL     1       5.557   3.678  13.493  0.00  0.00    +0.000 A 
ATOM      9  C   UNL     1       5.238   4.406  14.780  0.00  0.00    +0.000 A 
ATOM     10  C   UNL     1       6.066   5.795  15.688  0.00  0.00    +0.000 A 
ENDROOT
BRANCH   4  11
ATOM     11  C   UNL     1       5.742   4.451  17.917  0.00  0.00    +0.000 A 
ATOM     12  C   UNL     1       5.810   5.296  18.995  0.00  0.00    +0.000 A 
ATOM     13  C   UNL     1       4.672   5.517  19.736  0.00  0.00    +0.000 A 
ATOM     14  C   UNL     1       3.434   4.972  19.354  0.00  0.00    +0.000 A 
ATOM     15  C   UNL     1       3.358   4.012  18.354  0.00  0.00    +0.000 A 
ATOM     16  C   UNL     1       4.525   3.696  17.677  0.00  0.00    +0.000 A 
BRANCH  15  17
ATOM     17  S   UNL     1       1.808   3.259  17.898  0.00  0.00    +0.000 S 
ATOM     18  O   UNL     1       1.017   4.251  17.209  0.00  0.00    +0.000 OA
ATOM     19  O   UNL     1       2.068   1.951  17.339  0.00  0.00    +0.000 OA
BRANCH  17  20
ATOM     20  N   UNL     1       1.114   3.002  19.406  0.00  0.00    +0.000 NA
ATOM     21  H   UNL     1       0.116   3.186  19.448  0.00  0.00    +0.000 HD
ATOM     22  H   UNL     1       1.675   3.326  20.190  0.00  0.00    +0.000 HD
ENDBRANCH  17  20
ENDBRANCH  15  17
ENDBRANCH   4  11
BRANCH   1  23
ATOM     23  N   UNL     1       7.736   8.204  17.788  0.00  0.00    +0.000 N 
ATOM     24  H   UNL     1       7.898   7.586  18.594  0.00  0.00    +0.000 HD
BRANCH  23  28
ATOM     25  C   UNL     1       9.696  12.591  19.294  0.00  0.00    +0.000 A 
ATOM     26  C   UNL     1       9.942  11.483  20.096  0.00  0.00    +0.000 A 
ATOM     27  C   UNL     1       9.462  10.005  19.627  0.00  0.00    +0.000 A 
ATOM     28  C   UNL     1       8.562   9.644  18.358  0.00  0.00    +0.000 A 
ATOM     29  C   UNL     1       8.539  10.852  17.642  0.00  0.00    +0.000 A 
ATOM     30  C   UNL     1       9.072  12.230  18.088  0.00  0.00    +0.000 A 
BRANCH  25  31
ATOM     31  S   UNL     1      10.112  14.375  19.611  0.00  0.00    +0.000 S 
ATOM     32  O   UNL     1       9.798  14.702  20.985  0.00  0.00    +0.000 OA
ATOM     33  O   UNL     1       9.659  15.220  18.527  0.00  0.00    +0.000 OA
BRANCH  31  34
ATOM     34  N   UNL     1      11.815  14.434  19.517  0.00  0.00    +0.000 NA
ATOM     35  H   UNL     1      12.143  14.195  18.571  0.00  0.00    +0.000 HD
ATOM     36  H   UNL     1      12.268  13.834  20.205  0.00  0.00    +0.000 HD
ENDBRANCH  31  34
ENDBRANCH  25  31
ENDBRANCH  23  28
ENDBRANCH   1  23
TORSDOF 7
ENDMDL
MODEL 4
REMARK VINA RESULT:      -8.8      1.084      1.325
REMARK  Name = 
REMARK  7 active torsions:
REMARK  status: ('A' for Active; 'I' for Inactive)
REMARK    1  A    between atoms: N_1  and  S_2
REMARK    2  A    between atoms: S_2  and  C_5
REMARK    3  A    between atoms: C_8  and  N_9
REMARK    4  A    between atoms: N_9  and  C_10
REMARK    5  A    between atoms: C_13  and  C_14
REMARK    6  A    between atoms: C_18  and  S_19
REMARK    7  A    between atoms: S_19  and  N_20
REMARK                            x       y       z     vdW  Elec       q    Type
REMARK                         _______ _______ _______ _____ _____    ______ ____
ROOT
ATOM      1  C   UNL     1       2.421   6.656  19.658  0.00  0.00    +0.000 A 
ATOM      2  N   UNL     1       2.408   6.418  18.311  0.00  0.00    +0.000 NA
ATOM      3  N   UNL     1       1.661   5.519  17.982  0.00  0.00    +0.000 NA
ATOM      4  C   UNL     1       2.271   4.440  18.306  0.00  0.00    +0.000 A 
ATOM      5  C   UNL     1       1.968   4.136  19.606  0.00  0.00    +0.000 A 
ATOM      6  C   UNL     1       0.950   3.671  20.677  0.00  0.00    +0.000 A 
ATOM      7  C   UNL     1       1.240   2.674  21.664  0.00  0.00    +0.000 A 
ATOM      8  C   UNL     1       2.405   2.090  21.423  0.00  0.00    +0.000 A 
ATOM      9  C   UNL     1       3.182   3.146  20.671  0.00  0.00    +0.000 A 
ATOM     10  C   UNL     1       2.800   4.896  20.186  0.00  0.00    +0.000 A 
ENDROOT
BRANCH   4  11
ATOM     11  C   UNL     1       3.753   4.379  17.798  0.00  0.00    +0.000 A 
ATOM     12  C   UNL     1       3.800   4.183  16.441  0.00  0.00    +0.000 A 
ATOM     13  C   UNL     1       4.987   4.400  15.781  0.00  0.00    +0.000 A 
ATOM     14  C   UNL     1       6.114   4.907  16.451  0.00  0.00    +0.000 A 
ATOM     15  C   UNL     1       6.139   4.989  17.838  0.00  0.00    +0.000 A 
ATOM     16  C   UNL     1       4.980   4.659  18.522  0.00  0.00    +0.000 A 
BRANCH  15  17
ATOM     17  S   UNL     1       7.581   5.567  18.712  0.00  0.00    +0.000 S 
ATOM     18  O   UNL     1       7.984   6.822  18.125  0.00  0.00    +0.000 OA
ATOM     19  O   UNL     1       7.361   5.412  20.133  0.00  0.00    +0.000 OA
BRANCH  17  20
ATOM     20  N   UNL     1       8.714   4.405  18.277  0.00  0.00    +0.000 NA
ATOM     21  H   UNL     1       9.652   4.766  18.132  0.00  0.00    +0.000 HD
ATOM     22  H   UNL     1       8.377   3.717  17.609  0.00  0.00    +0.000 HD
ENDBRANCH  17  20
ENDBRANCH  15  17
ENDBRANCH   4  11
BRANCH   1  23
ATOM     23  N   UNL     1       2.089   8.157  18.821  0.00  0.00    +0.000 N 
ATOM     24  H   UNL     1       1.836   7.854  17.871  0.00  0.00    +0.000 HD
BRANCH  23  28
ATOM     25  C   UNL     1       1.247  13.121  18.834  0.00  0.00    +0.000 A 
ATOM     26  C   UNL     1       2.283  12.660  18.030  0.00  0.00    +0.000 A 
ATOM     27  C   UNL     1       2.547  11.068  17.861  0.00  0.00    +0.000 A 
ATOM     28  C   UNL     1       1.825   9.884  18.654  0.00  0.00    +0.000 A 
ATOM     29  C   UNL     1       0.763  10.543  19.293  0.00  0.00    +0.000 A 
ATOM     30  C   UNL     1       0.499  12.062  19.374  0.00  0.00    +0.000 A 
BRANCH  25  31
ATOM     31  S   UNL     1       0.758  14.874  19.213  0.00  0.00    +0.000 S 
ATOM     32  O   UNL     1       0.864  15.102  20.638  0.00  0.00    +0.000 OA
ATOM     33  O   UNL     1      -0.438  15.252  18.490  0.00  0.00    +0.000 OA
BRANCH  31  34
ATOM     34  N   UNL     1       1.996  15.819  18.517  0.00  0.00    +0.000 NA
ATOM     35  H   UNL     1       2.844  15.808  19.102  0.00  0.00    +0.000 HD
ATOM     36  H   UNL     1       1.706  16.779  18.342  0.00  0.00    +0.000 HD
ENDBRANCH  31  34
ENDBRANCH  25  31
ENDBRANCH  23  28
ENDBRANCH   1  23
TORSDOF 7
ENDMDL
MODEL 5
REMARK VINA RESULT:      -8.7      5.587      7.272
REMARK  Name = 
REMARK  7 active torsions:
REMARK  status: ('A' for Active; 'I' for Inactive)
REMARK    1  A    between atoms: N_1  and  S_2
REMARK    2  A    between atoms: S_2  and  C_5
REMARK    3  A    between atoms: C_8  and  N_9
REMARK    4  A    between atoms: N_9  and  C_10
REMARK    5  A    between atoms: C_13  and  C_14
REMARK    6  A    between atoms: C_18  and  S_19
REMARK    7  A    between atoms: S_19  and  N_20
REMARK                            x       y       z     vdW  Elec       q    Type
REMARK                         _______ _______ _______ _____ _____    ______ ____
ROOT
ATOM      1  C   UNL     1       6.925   7.154  16.742  0.00  0.00    +0.000 A 
ATOM      2  N   UNL     1       7.251   6.404  17.838  0.00  0.00    +0.000 NA
ATOM      3  N   UNL     1       7.826   5.369  17.567  0.00  0.00    +0.000 NA
ATOM      4  C   UNL     1       6.915   4.583  17.130  0.00  0.00    +0.000 A 
ATOM      5  C   UNL     1       6.769   4.784  15.784  0.00  0.00    +0.000 A 
ATOM      6  C   UNL     1       7.315   4.666  14.339  0.00  0.00    +0.000 A 
ATOM      7  C   UNL     1       6.539   4.179  13.237  0.00  0.00    +0.000 A 
ATOM      8  C   UNL     1       5.382   3.684  13.651  0.00  0.00    +0.000 A 
ATOM      9  C   UNL     1       5.112   4.439  14.933  0.00  0.00    +0.000 A 
ATOM     10  C   UNL     1       6.013   5.800  15.816  0.00  0.00    +0.000 A 
ENDROOT
BRANCH   4  11
ATOM     11  C   UNL     1       5.659   4.495  18.064  0.00  0.00    +0.000 A 
ATOM     12  C   UNL     1       5.708   5.450  19.047  0.00  0.00    +0.000 A 
ATOM     13  C   UNL     1       4.568   5.720  19.766  0.00  0.00    +0.000 A 
ATOM     14  C   UNL     1       3.342   5.109  19.450  0.00  0.00    +0.000 A 
ATOM     15  C   UNL     1       3.287   4.047  18.556  0.00  0.00    +0.000 A 
ATOM     16  C   UNL     1       4.460   3.690  17.910  0.00  0.00    +0.000 A 
BRANCH  15  17
ATOM     17  S   UNL     1       1.755   3.214  18.189  0.00  0.00    +0.000 S 
ATOM     18  O   UNL     1       1.190   2.753  19.435  0.00  0.00    +0.000 OA
ATOM     19  O   UNL     1       1.002   4.009  17.245  0.00  0.00    +0.000 OA
BRANCH  17  20
ATOM     20  N   UNL     1       2.307   1.871  17.345  0.00  0.00    +0.000 NA
ATOM     21  H   UNL     1       1.677   1.540  16.619  0.00  0.00    +0.000 HD
ATOM     22  H   UNL     1       2.754   1.163  17.923  0.00  0.00    +0.000 HD
ENDBRANCH  17  20
ENDBRANCH  15  17
ENDBRANCH   4  11
BRANCH   1  23
ATOM     23  N   UNL     1       7.817   8.154  17.867  0.00  0.00    +0.000 N 
ATOM     24  H   UNL     1       8.103   7.495  18.604  0.00  0.00    +0.000 HD
BRANCH  23  28
ATOM     25  C   UNL     1       9.705  12.567  19.388  0.00  0.00    +0.000 A 
ATOM     26  C   UNL     1       9.911  11.473  20.220  0.00  0.00    +0.000 A 
ATOM     27  C   UNL     1       9.453   9.988  19.755  0.00  0.00    +0.000 A 
ATOM     28  C   UNL     1       8.616   9.604  18.450  0.00  0.00    +0.000 A 
ATOM     29  C   UNL     1       8.628  10.799  17.713  0.00  0.00    +0.000 A 
ATOM     30  C   UNL     1       9.140  12.185  18.159  0.00  0.00    +0.000 A 
BRANCH  25  31
ATOM     31  S   UNL     1      10.107  14.356  19.693  0.00  0.00    +0.000 S 
ATOM     32  O   UNL     1       9.402  15.175  18.730  0.00  0.00    +0.000 OA
ATOM     33  O   UNL     1      11.523  14.543  19.927  0.00  0.00    +0.000 OA
BRANCH  31  34
ATOM     34  N   UNL     1       9.375  14.704  21.194  0.00  0.00    +0.000 NA
ATOM     35  H   UNL     1       9.493  13.922  21.854  0.00  0.00    +0.000 HD
ATOM     36  H   UNL     1       8.388  14.938  21.105  0.00  0.00    +0.000 HD
ENDBRANCH  31  34
ENDBRANCH  25  31
ENDBRANCH  23  28
ENDBRANCH   1  23
TORSDOF 7
ENDMDL
MODEL 6
REMARK VINA RESULT:      -8.7      5.295      7.365
REMARK  Name = 
REMARK  7 active torsions:
REMARK  status: ('A' for Active; 'I' for Inactive)
REMARK    1  A    between atoms: N_1  and  S_2
REMARK    2  A    between atoms: S_2  and  C_5
REMARK    3  A    between atoms: C_8  and  N_9
REMARK    4  A    between atoms: N_9  and  C_10
REMARK    5  A    between atoms: C_13  and  C_14
REMARK    6  A    between atoms: C_18  and  S_19
REMARK    7  A    between atoms: S_19  and  N_20
REMARK                            x       y       z     vdW  Elec       q    Type
REMARK                         _______ _______ _______ _____ _____    ______ ____
ROOT
ATOM      1  C   UNL     1       7.045   7.389  16.940  0.00  0.00    +0.000 A 
ATOM      2  N   UNL     1       7.174   6.712  18.122  0.00  0.00    +0.000 NA
ATOM      3  N   UNL     1       7.631   5.594  17.997  0.00  0.00    +0.000 NA
ATOM      4  C   UNL     1       6.666   4.887  17.538  0.00  0.00    +0.000 A 
ATOM      5  C   UNL     1       6.666   4.975  16.172  0.00  0.00    +0.000 A 
ATOM      6  C   UNL     1       7.316   4.655  14.803  0.00  0.00    +0.000 A 
ATOM      7  C   UNL     1       6.583   4.164  13.674  0.00  0.00    +0.000 A 
ATOM      8  C   UNL     1       5.340   3.855  14.012  0.00  0.00    +0.000 A 
ATOM      9  C   UNL     1       5.059   4.755  15.194  0.00  0.00    +0.000 A 
ATOM     10  C   UNL     1       6.049   6.074  16.045  0.00  0.00    +0.000 A 
ENDROOT
BRANCH   4  11
ATOM     11  C   UNL     1       5.333   5.042  18.347  0.00  0.00    +0.000 A 
ATOM     12  C   UNL     1       4.704   6.221  18.038  0.00  0.00    +0.000 A 
ATOM     13  C   UNL     1       3.392   6.390  18.416  0.00  0.00    +0.000 A 
ATOM     14  C   UNL     1       2.665   5.350  19.020  0.00  0.00    +0.000 A 
ATOM     15  C   UNL     1       3.305   4.201  19.465  0.00  0.00    +0.000 A 
ATOM     16  C   UNL     1       4.657   4.072  19.191  0.00  0.00    +0.000 A 
BRANCH  15  17
ATOM     17  S   UNL     1       2.415   2.898  20.294  0.00  0.00    +0.000 S 
ATOM     18  O   UNL     1       2.147   1.858  19.329  0.00  0.00    +0.000 OA
ATOM     19  O   UNL     1       3.052   2.629  21.564  0.00  0.00    +0.000 OA
BRANCH  17  20
ATOM     20  N   UNL     1       0.963   3.665  20.643  0.00  0.00    +0.000 NA
ATOM     21  H   UNL     1       0.333   3.128  21.232  0.00  0.00    +0.000 HD
ATOM     22  H   UNL     1       0.547   4.160  19.857  0.00  0.00    +0.000 HD
ENDBRANCH  17  20
ENDBRANCH  15  17
ENDBRANCH   4  11
BRANCH   1  23
ATOM     23  N   UNL     1       7.958   8.375  18.060  0.00  0.00    +0.000 N 
ATOM     24  H   UNL     1       8.217   7.717  18.808  0.00  0.00    +0.000 HD
BRANCH  23  28
ATOM     25  C   UNL     1       9.983  12.750  19.516  0.00  0.00    +0.000 A 
ATOM     26  C   UNL     1      10.082  11.684  20.402  0.00  0.00    +0.000 A 
ATOM     27  C   UNL     1       9.575  10.204  19.970  0.00  0.00    +0.000 A 
ATOM     28  C   UNL     1       8.796   9.807  18.633  0.00  0.00    +0.000 A 
ATOM     29  C   UNL     1       8.915  10.967  17.851  0.00  0.00    +0.000 A 
ATOM     30  C   UNL     1       9.471  12.344  18.272  0.00  0.00    +0.000 A 
BRANCH  25  31
ATOM     31  S   UNL     1      10.459  14.528  19.773  0.00  0.00    +0.000 S 
ATOM     32  O   UNL     1      10.227  14.890  21.154  0.00  0.00    +0.000 OA
ATOM     33  O   UNL     1       9.969  15.363  18.697  0.00  0.00    +0.000 OA
BRANCH  31  34
ATOM     34  N   UNL     1      12.155  14.542  19.587  0.00  0.00    +0.000 NA
ATOM     35  H   UNL     1      12.629  14.506  20.501  0.00  0.00    +0.000 HD
ATOM     36  H   UNL     1      12.486  15.345  19.056  0.00  0.00    +0.000 HD
ENDBRANCH  31  34
ENDBRANCH  25  31
ENDBRANCH  23  28
ENDBRANCH   1  23
TORSDOF 7
ENDMDL
MODEL 7
REMARK VINA RESULT:      -8.6      5.442      7.271
REMARK  Name = 
REMARK  7 active torsions:
REMARK  status: ('A' for Active; 'I' for Inactive)
REMARK    1  A    between atoms: N_1  and  S_2
REMARK    2  A    between atoms: S_2  and  C_5
REMARK    3  A    between atoms: C_8  and  N_9
REMARK    4  A    between atoms: N_9  and  C_10
REMARK    5  A    between atoms: C_13  and  C_14
REMARK    6  A    between atoms: C_18  and  S_19
REMARK    7  A    between atoms: S_19  and  N_20
REMARK                            x       y       z     vdW  Elec       q    Type
REMARK                         _______ _______ _______ _____ _____    ______ ____
ROOT
ATOM      1  C   UNL     1       6.919   7.156  16.706  0.00  0.00    +0.000 A 
ATOM      2  N   UNL     1       7.279   6.403  17.790  0.00  0.00    +0.000 NA
ATOM      3  N   UNL     1       7.888   5.392  17.501  0.00  0.00    +0.000 NA
ATOM      4  C   UNL     1       7.000   4.581  17.059  0.00  0.00    +0.000 A 
ATOM      5  C   UNL     1       6.838   4.795  15.717  0.00  0.00    +0.000 A 
ATOM      6  C   UNL     1       7.377   4.715  14.267  0.00  0.00    +0.000 A 
ATOM      7  C   UNL     1       6.611   4.217  13.164  0.00  0.00    +0.000 A 
ATOM      8  C   UNL     1       5.475   3.677  13.579  0.00  0.00    +0.000 A 
ATOM      9  C   UNL     1       5.188   4.405  14.873  0.00  0.00    +0.000 A 
ATOM     10  C   UNL     1       6.048   5.783  15.768  0.00  0.00    +0.000 A 
ENDROOT
BRANCH   4  11
ATOM     11  C   UNL     1       5.755   4.438  18.000  0.00  0.00    +0.000 A 
ATOM     12  C   UNL     1       5.778   5.382  18.995  0.00  0.00    +0.000 A 
ATOM     13  C   UNL     1       4.634   5.602  19.725  0.00  0.00    +0.000 A 
ATOM     14  C   UNL     1       3.428   4.952  19.409  0.00  0.00    +0.000 A 
ATOM     15  C   UNL     1       3.404   3.901  18.502  0.00  0.00    +0.000 A 
ATOM     16  C   UNL     1       4.584   3.593  17.844  0.00  0.00    +0.000 A 
BRANCH  15  17
ATOM     17  S   UNL     1       1.899   3.018  18.135  0.00  0.00    +0.000 S 
ATOM     18  O   UNL     1       2.217   1.967  17.199  0.00  0.00    +0.000 OA
ATOM     19  O   UNL     1       1.189   2.767  19.370  0.00  0.00    +0.000 OA
BRANCH  17  20
ATOM     20  N   UNL     1       1.024   4.193  17.314  0.00  0.00    +0.000 NA
ATOM     21  H   UNL     1       1.580   4.781  16.700  0.00  0.00    +0.000 HD
ATOM     22  H   UNL     1       0.311   4.657  17.872  0.00  0.00    +0.000 HD
ENDBRANCH  17  20
ENDBRANCH  15  17
ENDBRANCH   4  11
BRANCH   1  23
ATOM     23  N   UNL     1       7.785   8.171  17.839  0.00  0.00    +0.000 N 
ATOM     24  H   UNL     1       8.053   7.522  18.591  0.00  0.00    +0.000 HD
BRANCH  23  28
ATOM     25  C   UNL     1       9.645  12.606  19.329  0.00  0.00    +0.000 A 
ATOM     26  C   UNL     1       9.792  11.536  20.204  0.00  0.00    +0.000 A 
ATOM     27  C   UNL     1       9.340  10.042  19.758  0.00  0.00    +0.000 A 
ATOM     28  C   UNL     1       8.570   9.628  18.422  0.00  0.00    +0.000 A 
ATOM     29  C   UNL     1       8.638  10.800  17.652  0.00  0.00    +0.000 A 
ATOM     30  C   UNL     1       9.143  12.193  18.084  0.00  0.00    +0.000 A 
BRANCH  25  31
ATOM     31  S   UNL     1      10.053  14.399  19.603  0.00  0.00    +0.000 S 
ATOM     32  O   UNL     1      11.462  14.612  19.348  0.00  0.00    +0.000 OA
ATOM     33  O   UNL     1       9.436  14.899  20.813  0.00  0.00    +0.000 OA
BRANCH  31  34
ATOM     34  N   UNL     1       9.244  15.214  18.341  0.00  0.00    +0.000 NA
ATOM     35  H   UNL     1       9.685  15.019  17.431  0.00  0.00    +0.000 HD
ATOM     36  H   UNL     1       9.190  16.219  18.493  0.00  0.00    +0.000 HD
ENDBRANCH  31  34
ENDBRANCH  25  31
ENDBRANCH  23  28
ENDBRANCH   1  23
TORSDOF 7
ENDMDL
MODEL 8
REMARK VINA RESULT:      -8.5      1.133      1.283
REMARK  Name = 
REMARK  7 active torsions:
REMARK  status: ('A' for Active; 'I' for Inactive)
REMARK    1  A    between atoms: N_1  and  S_2
REMARK    2  A    between atoms: S_2  and  C_5
REMARK    3  A    between atoms: C_8  and  N_9
REMARK    4  A    between atoms: N_9  and  C_10
REMARK    5  A    between atoms: C_13  and  C_14
REMARK    6  A    between atoms: C_18  and  S_19
REMARK    7  A    between atoms: S_19  and  N_20
REMARK                            x       y       z     vdW  Elec       q    Type
REMARK                         _______ _______ _______ _____ _____    ______ ____
ROOT
ATOM      1  C   UNL     1       2.482   6.799  19.671  0.00  0.00    +0.000 A 
ATOM      2  N   UNL     1       2.483   6.612  18.316  0.00  0.00    +0.000 NA
ATOM      3  N   UNL     1       1.739   5.727  17.945  0.00  0.00    +0.000 NA
ATOM      4  C   UNL     1       2.345   4.636  18.234  0.00  0.00    +0.000 A 
ATOM      5  C   UNL     1       2.027   4.283  19.517  0.00  0.00    +0.000 A 
ATOM      6  C   UNL     1       0.997   3.779  20.558  0.00  0.00    +0.000 A 
ATOM      7  C   UNL     1       1.275   2.744  21.510  0.00  0.00    +0.000 A 
ATOM      8  C   UNL     1       2.441   2.168  21.260  0.00  0.00    +0.000 A 
ATOM      9  C   UNL     1       3.228   3.251  20.557  0.00  0.00    +0.000 A 
ATOM     10  C   UNL     1       2.853   5.019  20.135  0.00  0.00    +0.000 A 
ENDROOT
BRANCH   4  11
ATOM     11  C   UNL     1       3.832   4.593  17.740  0.00  0.00    +0.000 A 
ATOM     12  C   UNL     1       3.985   3.688  16.719  0.00  0.00    +0.000 A 
ATOM     13  C   UNL     1       5.135   3.728  15.967  0.00  0.00    +0.000 A 
ATOM     14  C   UNL     1       6.102   4.730  16.161  0.00  0.00    +0.000 A 
ATOM     15  C   UNL     1       6.041   5.572  17.264  0.00  0.00    +0.000 A 
ATOM     16  C   UNL     1       4.940   5.460  18.098  0.00  0.00    +0.000 A 
BRANCH  15  17
ATOM     17  S   UNL     1       7.292   6.806  17.567  0.00  0.00    +0.000 S 
ATOM     18  O   UNL     1       7.886   6.530  18.854  0.00  0.00    +0.000 OA
ATOM     19  O   UNL     1       8.084   6.975  16.370  0.00  0.00    +0.000 OA
BRANCH  17  20
ATOM     20  N   UNL     1       6.354   8.191  17.718  0.00  0.00    +0.000 NA
ATOM     21  H   UNL     1       5.356   8.039  17.606  0.00  0.00    +0.000 HD
ATOM     22  H   UNL     1       6.746   9.017  17.273  0.00  0.00    +0.000 HD
ENDBRANCH  17  20
ENDBRANCH  15  17
ENDBRANCH   4  11
BRANCH   1  23
ATOM     23  N   UNL     1       2.161   8.330  18.888  0.00  0.00    +0.000 N 
ATOM     24  H   UNL     1       2.308   8.129  17.890  0.00  0.00    +0.000 HD
BRANCH  23  28
ATOM     25  C   UNL     1       0.519  13.088  19.035  0.00  0.00    +0.000 A 
ATOM     26  C   UNL     1       1.676  12.843  18.305  0.00  0.00    +0.000 A 
ATOM     27  C   UNL     1       2.209  11.326  18.093  0.00  0.00    +0.000 A 
ATOM     28  C   UNL     1       1.631  10.000  18.770  0.00  0.00    +0.000 A 
ATOM     29  C   UNL     1       0.428  10.445  19.342  0.00  0.00    +0.000 A 
ATOM     30  C   UNL     1      -0.086  11.895  19.463  0.00  0.00    +0.000 A 
BRANCH  25  31
ATOM     31  S   UNL     1      -0.280  14.717  19.442  0.00  0.00    +0.000 S 
ATOM     32  O   UNL     1      -1.533  14.477  20.124  0.00  0.00    +0.000 OA
ATOM     33  O   UNL     1      -0.210  15.630  18.321  0.00  0.00    +0.000 OA
BRANCH  31  34
ATOM     34  N   UNL     1       0.744  15.406  20.620  0.00  0.00    +0.000 NA
ATOM     35  H   UNL     1       0.629  16.429  20.658  0.00  0.00    +0.000 HD
ATOM     36  H   UNL     1       1.724  15.171  20.475  0.00  0.00    +0.000 HD
ENDBRANCH  31  34
ENDBRANCH  25  31
ENDBRANCH  23  28
ENDBRANCH   1  23
TORSDOF 7
ENDMDL
MODEL 9
REMARK VINA RESULT:      -8.5      5.548      7.461
REMARK  Name = 
REMARK  7 active torsions:
REMARK  status: ('A' for Active; 'I' for Inactive)
REMARK    1  A    between atoms: N_1  and  S_2
REMARK    2  A    between atoms: S_2  and  C_5
REMARK    3  A    between atoms: C_8  and  N_9
REMARK    4  A    between atoms: N_9  and  C_10
REMARK    5  A    between atoms: C_13  and  C_14
REMARK    6  A    between atoms: C_18  and  S_19
REMARK    7  A    between atoms: S_19  and  N_20
REMARK                            x       y       z     vdW  Elec       q    Type
REMARK                         _______ _______ _______ _____ _____    ______ ____
ROOT
ATOM      1  C   UNL     1       7.104   7.419  17.000  0.00  0.00    +0.000 A 
ATOM      2  N   UNL     1       7.177   6.734  18.182  0.00  0.00    +0.000 NA
ATOM      3  N   UNL     1       7.605   5.604  18.064  0.00  0.00    +0.000 NA
ATOM      4  C   UNL     1       6.636   4.927  17.573  0.00  0.00    +0.000 A 
ATOM      5  C   UNL     1       6.680   5.021  16.208  0.00  0.00    +0.000 A 
ATOM      6  C   UNL     1       7.363   4.688  14.858  0.00  0.00    +0.000 A 
ATOM      7  C   UNL     1       6.651   4.223  13.705  0.00  0.00    +0.000 A 
ATOM      8  C   UNL     1       5.389   3.949  14.002  0.00  0.00    +0.000 A 
ATOM      9  C   UNL     1       5.099   4.852  15.180  0.00  0.00    +0.000 A 
ATOM     10  C   UNL     1       6.099   6.137  16.067  0.00  0.00    +0.000 A 
ENDROOT
BRANCH   4  11
ATOM     11  C   UNL     1       5.283   5.117  18.342  0.00  0.00    +0.000 A 
ATOM     12  C   UNL     1       4.694   6.312  18.015  0.00  0.00    +0.000 A 
ATOM     13  C   UNL     1       3.377   6.515  18.352  0.00  0.00    +0.000 A 
ATOM     14  C   UNL     1       2.605   5.495  18.934  0.00  0.00    +0.000 A 
ATOM     15  C   UNL     1       3.201   4.329  19.397  0.00  0.00    +0.000 A 
ATOM     16  C   UNL     1       4.557   4.165  19.164  0.00  0.00    +0.000 A 
BRANCH  15  17
ATOM     17  S   UNL     1       2.253   3.049  20.198  0.00  0.00    +0.000 S 
ATOM     18  O   UNL     1       1.117   3.672  20.835  0.00  0.00    +0.000 OA
ATOM     19  O   UNL     1       2.115   1.931  19.292  0.00  0.00    +0.000 OA
BRANCH  17  20
ATOM     20  N   UNL     1       3.316   2.560  21.402  0.00  0.00    +0.000 NA
ATOM     21  H   UNL     1       4.008   1.879  21.102  0.00  0.00    +0.000 HD
ATOM     22  H   UNL     1       2.885   2.407  22.310  0.00  0.00    +0.000 HD
ENDBRANCH  17  20
ENDBRANCH  15  17
ENDBRANCH   4  11
BRANCH   1  23
ATOM     23  N   UNL     1       8.010   8.374  18.153  0.00  0.00    +0.000 N 
ATOM     24  H   UNL     1       8.180   7.720  18.930  0.00  0.00    +0.000 HD
BRANCH  23  28
ATOM     25  C   UNL     1      10.315  12.636  19.523  0.00  0.00    +0.000 A 
ATOM     26  C   UNL     1       9.974  11.749  20.538  0.00  0.00    +0.000 A 
ATOM     27  C   UNL     1       9.346  10.296  20.184  0.00  0.00    +0.000 A 
ATOM     28  C   UNL     1       8.904   9.763  18.745  0.00  0.00    +0.000 A 
ATOM     29  C   UNL     1       9.439  10.732  17.880  0.00  0.00    +0.000 A 
ATOM     30  C   UNL     1      10.099  12.077  18.252  0.00  0.00    +0.000 A 
BRANCH  25  31
ATOM     31  S   UNL     1      11.017  14.351  19.660  0.00  0.00    +0.000 S 
ATOM     32  O   UNL     1      12.331  14.380  19.057  0.00  0.00    +0.000 OA
ATOM     33  O   UNL     1      10.796  14.904  20.980  0.00  0.00    +0.000 OA
BRANCH  31  34
ATOM     34  N   UNL     1      10.034  15.293  18.632  0.00  0.00    +0.000 NA
ATOM     35  H   UNL     1       9.267  14.732  18.235  0.00  0.00    +0.000 HD
ATOM     36  H   UNL     1      10.562  15.740  17.884  0.00  0.00    +0.000 HD
ENDBRANCH  31  34
ENDBRANCH  25  31
ENDBRANCH  23  28
ENDBRANCH   1  23
TORSDOF 7
ENDMDL
