MODEL 1
REMARK VINA RESULT:      -8.9      0.000      0.000
REMARK  Name = 
REMARK  8 active torsions:
REMARK  status: ('A' for Active; 'I' for Inactive)
REMARK    1  A    between atoms: C_1  and  C_2
REMARK    2  A    between atoms: C_3  and  N_4
REMARK    3  A    between atoms: N_4  and  C_5
REMARK    4  A    between atoms: C_6  and  C_7
REMARK    5  A    between atoms: C_12  and  C_13
REMARK    6  A    between atoms: C_17  and  C_18
REMARK    7  A    between atoms: C_18  and  N_19
REMARK    8  A    between atoms: N_22  and  C_23
REMARK                            x       y       z     vdW  Elec       q    Type
REMARK                         _______ _______ _______ _____ _____    ______ ____
ROOT
ATOM      1  C   UNL     1      -0.026  13.045  19.405  0.00  0.00    +0.000 A 
ATOM      2  C   UNL     1      -0.010  14.459  19.451  0.00  0.00    +0.000 A 
ATOM      3  C   UNL     1       1.052  15.139  18.877  0.00  0.00    +0.000 A 
ATOM      4  N   UNL     1       2.123  14.540  18.320  0.00  0.00    +0.000 NA
ATOM      5  C   UNL     1       2.158  13.189  18.398  0.00  0.00    +0.000 A 
ATOM      6  C   UNL     1       1.149  12.386  18.947  0.00  0.00    +0.000 A 
ENDROOT
BRANCH   6   7
ATOM      7  C   UNL     1       1.355  10.927  19.074  0.00  0.00    +0.000 A 
ATOM      8  C   UNL     1       1.691  10.025  18.082  0.00  0.00    +0.000 A 
ATOM      9  C   UNL     1       1.906   8.696  18.559  0.00  0.00    +0.000 A 
ATOM     10  C   UNL     1       2.367   7.553  17.872  0.00  0.00    +0.000 A 
ATOM     11  C   UNL     1       2.462   6.315  18.524  0.00  0.00    +0.000 A 
ATOM     12  C   UNL     1       2.085   6.223  19.867  0.00  0.00    +0.000 A 
ATOM     13  C   UNL     1       1.649   7.346  20.576  0.00  0.00    +0.000 A 
ATOM     14  C   UNL     1       1.584   8.584  19.909  0.00  0.00    +0.000 A 
ATOM     15  S   UNL     1       1.148  10.111  20.569  0.00  0.00    +0.000 S 
BRANCH  11  16
ATOM     16  C   UNL     1       3.018   5.117  17.785  0.00  0.00    +0.000 C 
BRANCH  16  17
ATOM     17  N   UNL     1       4.258   5.407  17.051  0.00  0.00    +0.000 NA
ATOM     18  C   UNL     1       4.897   4.149  16.614  0.00  0.00    +0.000 C 
ATOM     19  C   UNL     1       6.236   4.386  15.876  0.00  0.00    +0.000 C 
ATOM     20  N   UNL     1       7.218   5.210  16.607  0.00  0.00    +0.000 NA
ATOM     21  C   UNL     1       7.843   4.473  17.701  0.00  0.00    +0.000 C 
ATOM     22  C   UNL     1       6.550   6.434  17.091  0.00  0.00    +0.000 C 
ATOM     23  C   UNL     1       5.222   6.194  17.846  0.00  0.00    +0.000 C 
ENDBRANCH  16  17
ENDBRANCH  11  16
ENDBRANCH   6   7
BRANCH   1  24
ATOM     24  N   UNL     1      -1.173  12.304  19.852  0.00  0.00    +0.000 N 
ATOM     25  H   UNL     1      -0.898  11.356  20.116  0.00  0.00    +0.000 HD
BRANCH  24  28
ATOM     26  C   UNL     1      -3.774  12.894  21.108  0.00  0.00    +0.000 C 
ATOM     27  C   UNL     1      -3.646  12.340  19.714  0.00  0.00    +0.000 A 
ATOM     28  C   UNL     1      -2.383  12.121  19.101  0.00  0.00    +0.000 A 
ATOM     29  C   UNL     1      -2.313  11.592  17.799  0.00  0.00    +0.000 A 
ATOM     30  C   UNL     1      -3.450  11.353  17.035  0.00  0.00    +0.000 A 
ATOM     31  C   UNL     1      -4.681  11.557  17.651  0.00  0.00    +0.000 A 
ATOM     32  N   UNL     1      -5.949  11.369  17.152  0.00  0.00    +0.000 N 
ATOM     33  C   UNL     1      -6.881  11.621  18.121  0.00  0.00    +0.000 A 
ATOM     34  C   UNL     1      -6.208  12.028  19.249  0.00  0.00    +0.000 A 
ATOM     35  C   UNL     1      -4.808  12.012  18.963  0.00  0.00    +0.000 A 
ATOM     36  H   UNL     1      -6.152  11.063  16.211  0.00  0.00    +0.000 HD
ENDBRANCH  24  28
ENDBRANCH   1  24
BRANCH   2  37
ATOM     37  C   UNL     1      -1.028  15.248  20.078  0.00  0.00    +0.000 C 
ATOM     38  N   UNL     1      -1.907  15.829  20.568  0.00  0.00    +0.000 NA
ENDBRANCH   2  37
TORSDOF 6
ENDMDL
MODEL 2
REMARK VINA RESULT:      -8.8      0.737      1.087
REMARK  Name = 
REMARK  8 active torsions:
REMARK  status: ('A' for Active; 'I' for Inactive)
REMARK    1  A    between atoms: C_1  and  C_2
REMARK    2  A    between atoms: C_3  and  N_4
REMARK    3  A    between atoms: N_4  and  C_5
REMARK    4  A    between atoms: C_6  and  C_7
REMARK    5  A    between atoms: C_12  and  C_13
REMARK    6  A    between atoms: C_17  and  C_18
REMARK    7  A    between atoms: C_18  and  N_19
REMARK    8  A    between atoms: N_22  and  C_23
REMARK                            x       y       z     vdW  Elec       q    Type
REMARK                         _______ _______ _______ _____ _____    ______ ____
ROOT
ATOM      1  C   UNL     1       0.255  12.679  19.184  0.00  0.00    +0.000 A 
ATOM      2  C   UNL     1       0.327  14.093  19.182  0.00  0.00    +0.000 A 
ATOM      3  C   UNL     1       1.426  14.709  18.605  0.00  0.00    +0.000 A 
ATOM      4  N   UNL     1       2.482  14.049  18.089  0.00  0.00    +0.000 NA
ATOM      5  C   UNL     1       2.460  12.701  18.214  0.00  0.00    +0.000 A 
ATOM      6  C   UNL     1       1.411  11.958  18.771  0.00  0.00    +0.000 A 
ENDROOT
BRANCH   6   7
ATOM      7  C   UNL     1       1.555  10.498  18.951  0.00  0.00    +0.000 A 
ATOM      8  C   UNL     1       1.921   9.556  18.009  0.00  0.00    +0.000 A 
ATOM      9  C   UNL     1       2.057   8.235  18.536  0.00  0.00    +0.000 A 
ATOM     10  C   UNL     1       2.520   7.057  17.912  0.00  0.00    +0.000 A 
ATOM     11  C   UNL     1       2.528   5.836  18.603  0.00  0.00    +0.000 A 
ATOM     12  C   UNL     1       2.062   5.797  19.920  0.00  0.00    +0.000 A 
ATOM     13  C   UNL     1       1.623   6.956  20.568  0.00  0.00    +0.000 A 
ATOM     14  C   UNL     1       1.645   8.174  19.864  0.00  0.00    +0.000 A 
ATOM     15  S   UNL     1       1.223   9.734  20.452  0.00  0.00    +0.000 S 
BRANCH  11  16
ATOM     16  C   UNL     1       3.086   4.598  17.935  0.00  0.00    +0.000 C 
BRANCH  16  17
ATOM     17  N   UNL     1       4.549   4.495  18.026  0.00  0.00    +0.000 NA
ATOM     18  C   UNL     1       5.058   5.396  19.080  0.00  0.00    +0.000 C 
ATOM     19  C   UNL     1       6.602   5.370  19.193  0.00  0.00    +0.000 C 
ATOM     20  N   UNL     1       7.327   5.625  17.932  0.00  0.00    +0.000 NA
ATOM     21  C   UNL     1       7.285   7.034  17.554  0.00  0.00    +0.000 C 
ATOM     22  C   UNL     1       6.766   4.763  16.875  0.00  0.00    +0.000 C 
ATOM     23  C   UNL     1       5.226   4.805  16.750  0.00  0.00    +0.000 C 
ENDBRANCH  16  17
ENDBRANCH  11  16
ENDBRANCH   6   7
BRANCH   1  24
ATOM     24  N   UNL     1      -0.929  12.001  19.634  0.00  0.00    +0.000 N 
ATOM     25  H   UNL     1      -0.709  11.032  19.875  0.00  0.00    +0.000 HD
BRANCH  24  28
ATOM     26  C   UNL     1      -3.466  12.755  20.930  0.00  0.00    +0.000 C 
ATOM     27  C   UNL     1      -3.394  12.206  19.531  0.00  0.00    +0.000 A 
ATOM     28  C   UNL     1      -2.158  11.907  18.898  0.00  0.00    +0.000 A 
ATOM     29  C   UNL     1      -2.142  11.386  17.591  0.00  0.00    +0.000 A 
ATOM     30  C   UNL     1      -3.303  11.232  16.841  0.00  0.00    +0.000 A 
ATOM     31  C   UNL     1      -4.508  11.514  17.476  0.00  0.00    +0.000 A 
ATOM     32  N   UNL     1      -5.793  11.417  16.993  0.00  0.00    +0.000 N 
ATOM     33  C   UNL     1      -6.693  11.723  17.976  0.00  0.00    +0.000 A 
ATOM     34  C   UNL     1      -5.978  12.074  19.098  0.00  0.00    +0.000 A 
ATOM     35  C   UNL     1      -4.587  11.965  18.793  0.00  0.00    +0.000 A 
ATOM     36  H   UNL     1      -6.028  11.134  16.052  0.00  0.00    +0.000 HD
ENDBRANCH  24  28
ENDBRANCH   1  24
BRANCH   2  37
ATOM     37  C   UNL     1      -0.669  14.943  19.762  0.00  0.00    +0.000 C 
ATOM     38  N   UNL     1      -1.532  15.594  20.187  0.00  0.00    +0.000 NA
ENDBRANCH   2  37
TORSDOF 6
ENDMDL
MODEL 3
REMARK VINA RESULT:      -8.4      3.460     10.415
REMARK  Name = 
REMARK  8 active torsions:
REMARK  status: ('A' for Active; 'I' for Inactive)
REMARK    1  A    between atoms: C_1  and  C_2
REMARK    2  A    between atoms: C_3  and  N_4
REMARK    3  A    between atoms: N_4  and  C_5
REMARK    4  A    between atoms: C_6  and  C_7
REMARK    5  A    between atoms: C_12  and  C_13
REMARK    6  A    between atoms: C_17  and  C_18
REMARK    7  A    between atoms: C_18  and  N_19
REMARK    8  A    between atoms: N_22  and  C_23
REMARK                            x       y       z     vdW  Elec       q    Type
REMARK                         _______ _______ _______ _____ _____    ______ ____
ROOT
ATOM      1  C   UNL     1       3.072   4.498  20.051  0.00  0.00    +0.000 A 
ATOM      2  C   UNL     1       3.111   3.096  20.234  0.00  0.00    +0.000 A 
ATOM      3  C   UNL     1       1.924   2.382  20.211  0.00  0.00    +0.000 A 
ATOM      4  N   UNL     1       0.704   2.942  20.088  0.00  0.00    +0.000 NA
ATOM      5  C   UNL     1       0.672   4.295  20.044  0.00  0.00    +0.000 A 
ATOM      6  C   UNL     1       1.797   5.130  20.053  0.00  0.00    +0.000 A 
ENDROOT
BRANCH   6   7
ATOM      7  C   UNL     1       1.626   6.597  20.114  0.00  0.00    +0.000 A 
ATOM      8  C   UNL     1       1.882   7.526  19.123  0.00  0.00    +0.000 A 
ATOM      9  C   UNL     1       1.519   8.862  19.475  0.00  0.00    +0.000 A 
ATOM     10  C   UNL     1       1.525  10.036  18.693  0.00  0.00    +0.000 A 
ATOM     11  C   UNL     1       1.172  11.272  19.254  0.00  0.00    +0.000 A 
ATOM     12  C   UNL     1       0.822  11.330  20.605  0.00  0.00    +0.000 A 
ATOM     13  C   UNL     1       0.784  10.177  21.394  0.00  0.00    +0.000 A 
ATOM     14  C   UNL     1       1.118   8.943  20.806  0.00  0.00    +0.000 A 
ATOM     15  S   UNL     1       1.085   7.387  21.538  0.00  0.00    +0.000 S 
BRANCH  11  16
ATOM     16  C   UNL     1       1.126  12.508  18.381  0.00  0.00    +0.000 C 
BRANCH  16  17
ATOM     17  N   UNL     1       1.837  13.657  18.958  0.00  0.00    +0.000 NA
ATOM     18  C   UNL     1       1.041  14.889  18.782  0.00  0.00    +0.000 C 
ATOM     19  C   UNL     1       1.759  16.146  19.328  0.00  0.00    +0.000 C 
ATOM     20  N   UNL     1       3.125  16.363  18.810  0.00  0.00    +0.000 NA
ATOM     21  C   UNL     1       3.116  16.850  17.434  0.00  0.00    +0.000 C 
ATOM     22  C   UNL     1       3.888  15.107  18.936  0.00  0.00    +0.000 C 
ATOM     23  C   UNL     1       3.178  13.855  18.372  0.00  0.00    +0.000 C 
ENDBRANCH  16  17
ENDBRANCH  11  16
ENDBRANCH   6   7
BRANCH   1  24
ATOM     24  N   UNL     1       4.284   5.260  19.917  0.00  0.00    +0.000 N 
ATOM     25  H   UNL     1       4.086   6.257  20.021  0.00  0.00    +0.000 HD
BRANCH  24  28
ATOM     26  C   UNL     1       3.211   4.767  17.216  0.00  0.00    +0.000 C 
ATOM     27  C   UNL     1       4.683   4.895  17.500  0.00  0.00    +0.000 A 
ATOM     28  C   UNL     1       5.180   5.196  18.797  0.00  0.00    +0.000 A 
ATOM     29  C   UNL     1       6.566   5.296  19.016  0.00  0.00    +0.000 A 
ATOM     30  C   UNL     1       7.489   5.200  17.979  0.00  0.00    +0.000 A 
ATOM     31  C   UNL     1       6.992   4.892  16.716  0.00  0.00    +0.000 A 
ATOM     32  N   UNL     1       7.669   4.704  15.533  0.00  0.00    +0.000 N 
ATOM     33  C   UNL     1       6.798   4.343  14.542  0.00  0.00    +0.000 A 
ATOM     34  C   UNL     1       5.532   4.346  15.080  0.00  0.00    +0.000 A 
ATOM     35  C   UNL     1       5.633   4.711  16.457  0.00  0.00    +0.000 A 
ATOM     36  H   UNL     1       8.669   4.799  15.428  0.00  0.00    +0.000 HD
ENDBRANCH  24  28
ENDBRANCH   1  24
BRANCH   2  37
ATOM     37  C   UNL     1       4.315   2.354  20.461  0.00  0.00    +0.000 C 
ATOM     38  N   UNL     1       5.255   1.717  20.709  0.00  0.00    +0.000 NA
ENDBRANCH   2  37
TORSDOF 6
ENDMDL
MODEL 4
REMARK VINA RESULT:      -8.4      2.471      3.537
REMARK  Name = 
REMARK  8 active torsions:
REMARK  status: ('A' for Active; 'I' for Inactive)
REMARK    1  A    between atoms: C_1  and  C_2
REMARK    2  A    between atoms: C_3  and  N_4
REMARK    3  A    between atoms: N_4  and  C_5
REMARK    4  A    between atoms: C_6  and  C_7
REMARK    5  A    between atoms: C_12  and  C_13
REMARK    6  A    between atoms: C_17  and  C_18
REMARK    7  A    between atoms: C_18  and  N_19
REMARK    8  A    between atoms: N_22  and  C_23
REMARK                            x       y       z     vdW  Elec       q    Type
REMARK                         _______ _______ _______ _____ _____    ______ ____
ROOT
ATOM      1  C   UNL     1      -1.073  14.003  19.885  0.00  0.00    +0.000 A 
ATOM      2  C   UNL     1      -1.218  15.405  20.010  0.00  0.00    +0.000 A 
ATOM      3  C   UNL     1      -0.123  16.218  19.770  0.00  0.00    +0.000 A 
ATOM      4  N   UNL     1       1.112  15.761  19.481  0.00  0.00    +0.000 NA
ATOM      5  C   UNL     1       1.267  14.416  19.493  0.00  0.00    +0.000 A 
ATOM      6  C   UNL     1       0.242  13.488  19.715  0.00  0.00    +0.000 A 
ENDROOT
BRANCH   6   7
ATOM      7  C   UNL     1       0.560  12.047  19.813  0.00  0.00    +0.000 A 
ATOM      8  C   UNL     1       0.935  11.187  18.798  0.00  0.00    +0.000 A 
ATOM      9  C   UNL     1       1.263   9.872  19.248  0.00  0.00    +0.000 A 
ATOM     10  C   UNL     1       1.789   8.776  18.529  0.00  0.00    +0.000 A 
ATOM     11  C   UNL     1       1.995   7.540  19.159  0.00  0.00    +0.000 A 
ATOM     12  C   UNL     1       1.665   7.401  20.510  0.00  0.00    +0.000 A 
ATOM     13  C   UNL     1       1.167   8.479  21.249  0.00  0.00    +0.000 A 
ATOM     14  C   UNL     1       0.990   9.717  20.604  0.00  0.00    +0.000 A 
ATOM     15  S   UNL     1       0.460  11.197  21.301  0.00  0.00    +0.000 S 
BRANCH  11  16
ATOM     16  C   UNL     1       2.617   6.398  18.385  0.00  0.00    +0.000 C 
BRANCH  16  17
ATOM     17  N   UNL     1       2.279   5.074  18.926  0.00  0.00    +0.000 NA
ATOM     18  C   UNL     1       3.482   4.434  19.496  0.00  0.00    +0.000 C 
ATOM     19  C   UNL     1       3.201   3.013  20.040  0.00  0.00    +0.000 C 
ATOM     20  N   UNL     1       2.558   2.091  19.083  0.00  0.00    +0.000 NA
ATOM     21  C   UNL     1       3.494   1.618  18.067  0.00  0.00    +0.000 C 
ATOM     22  C   UNL     1       1.395   2.766  18.477  0.00  0.00    +0.000 C 
ATOM     23  C   UNL     1       1.682   4.177  17.916  0.00  0.00    +0.000 C 
ENDBRANCH  16  17
ENDBRANCH  11  16
ENDBRANCH   6   7
BRANCH   1  24
ATOM     24  N   UNL     1      -2.212  13.132  19.977  0.00  0.00    +0.000 N 
ATOM     25  H   UNL     1      -2.909  13.388  19.274  0.00  0.00    +0.000 HD
BRANCH  24  28
ATOM     26  C   UNL     1      -5.154  13.054  19.817  0.00  0.00    +0.000 C 
ATOM     27  C   UNL     1      -4.403  12.927  21.114  0.00  0.00    +0.000 A 
ATOM     28  C   UNL     1      -2.983  12.903  21.166  0.00  0.00    +0.000 A 
ATOM     29  C   UNL     1      -2.325  12.792  22.404  0.00  0.00    +0.000 A 
ATOM     30  C   UNL     1      -3.016  12.611  23.598  0.00  0.00    +0.000 A 
ATOM     31  C   UNL     1      -4.405  12.650  23.536  0.00  0.00    +0.000 A 
ATOM     32  N   UNL     1      -5.328  12.537  24.550  0.00  0.00    +0.000 N 
ATOM     33  C   UNL     1      -6.594  12.706  24.060  0.00  0.00    +0.000 A 
ATOM     34  C   UNL     1      -6.492  12.881  22.699  0.00  0.00    +0.000 A 
ATOM     35  C   UNL     1      -5.109  12.830  22.345  0.00  0.00    +0.000 A 
ATOM     36  H   UNL     1      -5.093  12.377  25.519  0.00  0.00    +0.000 HD
ENDBRANCH  24  28
ENDBRANCH   1  24
BRANCH   2  37
ATOM     37  C   UNL     1      -2.439  16.050  20.390  0.00  0.00    +0.000 C 
ATOM     38  N   UNL     1      -3.407  16.564  20.776  0.00  0.00    +0.000 NA
ENDBRANCH   2  37
TORSDOF 6
ENDMDL
MODEL 5
REMARK VINA RESULT:      -8.2      1.501      2.435
REMARK  Name = 
REMARK  8 active torsions:
REMARK  status: ('A' for Active; 'I' for Inactive)
REMARK    1  A    between atoms: C_1  and  C_2
REMARK    2  A    between atoms: C_3  and  N_4
REMARK    3  A    between atoms: N_4  and  C_5
REMARK    4  A    between atoms: C_6  and  C_7
REMARK    5  A    between atoms: C_12  and  C_13
REMARK    6  A    between atoms: C_17  and  C_18
REMARK    7  A    between atoms: C_18  and  N_19
REMARK    8  A    between atoms: N_22  and  C_23
REMARK                            x       y       z     vdW  Elec       q    Type
REMARK                         _______ _______ _______ _____ _____    ______ ____
ROOT
ATOM      1  C   UNL     1      -0.280  13.077  19.559  0.00  0.00    +0.000 A 
ATOM      2  C   UNL     1      -0.359  14.484  19.682  0.00  0.00    +0.000 A 
ATOM      3  C   UNL     1       0.663  15.263  19.164  0.00  0.00    +0.000 A 
ATOM      4  N   UNL     1       1.780  14.768  18.595  0.00  0.00    +0.000 NA
ATOM      5  C   UNL     1       1.904  13.419  18.601  0.00  0.00    +0.000 A 
ATOM      6  C   UNL     1       0.943  12.523  19.087  0.00  0.00    +0.000 A 
ENDROOT
BRANCH   6   7
ATOM      7  C   UNL     1       1.244  11.076  19.139  0.00  0.00    +0.000 A 
ATOM      8  C   UNL     1       1.713  10.267  18.121  0.00  0.00    +0.000 A 
ATOM      9  C   UNL     1       1.989   8.927  18.530  0.00  0.00    +0.000 A 
ATOM     10  C   UNL     1       2.579   7.866  17.809  0.00  0.00    +0.000 A 
ATOM     11  C   UNL     1       2.717   6.596  18.389  0.00  0.00    +0.000 A 
ATOM     12  C   UNL     1       2.254   6.389  19.691  0.00  0.00    +0.000 A 
ATOM     13  C   UNL     1       1.690   7.431  20.434  0.00  0.00    +0.000 A 
ATOM     14  C   UNL     1       1.582   8.703  19.842  0.00  0.00    +0.000 A 
ATOM     15  S   UNL     1       0.993  10.149  20.561  0.00  0.00    +0.000 S 
BRANCH  11  16
ATOM     16  C   UNL     1       3.407   5.490  17.621  0.00  0.00    +0.000 C 
BRANCH  16  17
ATOM     17  N   UNL     1       2.993   4.143  18.037  0.00  0.00    +0.000 NA
ATOM     18  C   UNL     1       1.529   4.097  18.229  0.00  0.00    +0.000 C 
ATOM     19  C   UNL     1       1.034   2.714  18.716  0.00  0.00    +0.000 C 
ATOM     20  N   UNL     1       1.707   2.198  19.925  0.00  0.00    +0.000 NA
ATOM     21  C   UNL     1       1.263   2.888  21.133  0.00  0.00    +0.000 C 
ATOM     22  C   UNL     1       3.166   2.308  19.744  0.00  0.00    +0.000 C 
ATOM     23  C   UNL     1       3.661   3.696  19.276  0.00  0.00    +0.000 C 
ENDBRANCH  16  17
ENDBRANCH  11  16
ENDBRANCH   6   7
BRANCH   1  24
ATOM     24  N   UNL     1      -1.381  12.238  19.945  0.00  0.00    +0.000 N 
ATOM     25  H   UNL     1      -1.059  11.280  20.094  0.00  0.00    +0.000 HD
BRANCH  24  28
ATOM     26  C   UNL     1      -3.962  12.801  21.252  0.00  0.00    +0.000 C 
ATOM     27  C   UNL     1      -3.855  12.290  19.841  0.00  0.00    +0.000 A 
ATOM     28  C   UNL     1      -2.602  12.085  19.204  0.00  0.00    +0.000 A 
ATOM     29  C   UNL     1      -2.552  11.596  17.886  0.00  0.00    +0.000 A 
ATOM     30  C   UNL     1      -3.700  11.386  17.130  0.00  0.00    +0.000 A 
ATOM     31  C   UNL     1      -4.922  11.577  17.768  0.00  0.00    +0.000 A 
ATOM     32  N   UNL     1      -6.197  11.410  17.281  0.00  0.00    +0.000 N 
ATOM     33  C   UNL     1      -7.115  11.636  18.269  0.00  0.00    +0.000 A 
ATOM     34  C   UNL     1      -6.425  12.005  19.401  0.00  0.00    +0.000 A 
ATOM     35  C   UNL     1      -5.029  11.991  19.096  0.00  0.00    +0.000 A 
ATOM     36  H   UNL     1      -6.414  11.135  16.333  0.00  0.00    +0.000 HD
ENDBRANCH  24  28
ENDBRANCH   1  24
BRANCH   2  37
ATOM     37  C   UNL     1      -1.437  15.168  20.332  0.00  0.00    +0.000 C 
ATOM     38  N   UNL     1      -2.278  15.794  20.834  0.00  0.00    +0.000 NA
ENDBRANCH   2  37
TORSDOF 6
ENDMDL
MODEL 6
REMARK VINA RESULT:      -8.2      2.588     10.896
REMARK  Name = 
REMARK  8 active torsions:
REMARK  status: ('A' for Active; 'I' for Inactive)
REMARK    1  A    between atoms: C_1  and  C_2
REMARK    2  A    between atoms: C_3  and  N_4
REMARK    3  A    between atoms: N_4  and  C_5
REMARK    4  A    between atoms: C_6  and  C_7
REMARK    5  A    between atoms: C_12  and  C_13
REMARK    6  A    between atoms: C_17  and  C_18
REMARK    7  A    between atoms: C_18  and  N_19
REMARK    8  A    between atoms: N_22  and  C_23
REMARK                            x       y       z     vdW  Elec       q    Type
REMARK                         _______ _______ _______ _____ _____    ______ ____
ROOT
ATOM      1  C   UNL     1       3.274   4.237  19.827  0.00  0.00    +0.000 A 
ATOM      2  C   UNL     1       3.296   2.865  20.173  0.00  0.00    +0.000 A 
ATOM      3  C   UNL     1       2.116   2.140  20.121  0.00  0.00    +0.000 A 
ATOM      4  N   UNL     1       0.914   2.669  19.818  0.00  0.00    +0.000 NA
ATOM      5  C   UNL     1       0.886   4.007  19.616  0.00  0.00    +0.000 A 
ATOM      6  C   UNL     1       2.005   4.850  19.635  0.00  0.00    +0.000 A 
ENDROOT
BRANCH   6   7
ATOM      7  C   UNL     1       1.829   6.313  19.510  0.00  0.00    +0.000 A 
ATOM      8  C   UNL     1       1.252   7.183  20.416  0.00  0.00    +0.000 A 
ATOM      9  C   UNL     1       1.324   8.555  20.026  0.00  0.00    +0.000 A 
ATOM     10  C   UNL     1       0.954   9.717  20.737  0.00  0.00    +0.000 A 
ATOM     11  C   UNL     1       1.063  10.983  20.145  0.00  0.00    +0.000 A 
ATOM     12  C   UNL     1       1.536  11.083  18.834  0.00  0.00    +0.000 A 
ATOM     13  C   UNL     1       1.934   9.949  18.118  0.00  0.00    +0.000 A 
ATOM     14  C   UNL     1       1.839   8.690  18.739  0.00  0.00    +0.000 A 
ATOM     15  S   UNL     1       2.320   7.166  18.104  0.00  0.00    +0.000 S 
BRANCH  11  16
ATOM     16  C   UNL     1       0.719  12.220  20.946  0.00  0.00    +0.000 C 
BRANCH  16  17
ATOM     17  N   UNL     1      -0.672  12.239  21.420  0.00  0.00    +0.000 NA
ATOM     18  C   UNL     1      -1.539  12.904  20.426  0.00  0.00    +0.000 C 
ATOM     19  C   UNL     1      -3.013  13.000  20.890  0.00  0.00    +0.000 C 
ATOM     20  N   UNL     1      -3.215  13.620  22.214  0.00  0.00    +0.000 NA
ATOM     21  C   UNL     1      -3.036  15.068  22.171  0.00  0.00    +0.000 C 
ATOM     22  C   UNL     1      -2.298  12.989  23.183  0.00  0.00    +0.000 C 
ATOM     23  C   UNL     1      -0.823  12.912  22.727  0.00  0.00    +0.000 C 
ENDBRANCH  16  17
ENDBRANCH  11  16
ENDBRANCH   6   7
BRANCH   1  24
ATOM     24  N   UNL     1       4.493   4.991  19.721  0.00  0.00    +0.000 N 
ATOM     25  H   UNL     1       4.347   5.945  20.059  0.00  0.00    +0.000 HD
BRANCH  24  28
ATOM     26  C   UNL     1       3.564   3.751  17.214  0.00  0.00    +0.000 C 
ATOM     27  C   UNL     1       4.857   4.514  17.319  0.00  0.00    +0.000 A 
ATOM     28  C   UNL     1       5.259   5.159  18.518  0.00  0.00    +0.000 A 
ATOM     29  C   UNL     1       6.482   5.853  18.571  0.00  0.00    +0.000 A 
ATOM     30  C   UNL     1       7.290   6.014  17.451  0.00  0.00    +0.000 A 
ATOM     31  C   UNL     1       6.893   5.366  16.285  0.00  0.00    +0.000 A 
ATOM     32  N   UNL     1       7.510   5.323  15.056  0.00  0.00    +0.000 N 
ATOM     33  C   UNL     1       6.815   4.508  14.206  0.00  0.00    +0.000 A 
ATOM     34  C   UNL     1       5.705   4.055  14.879  0.00  0.00    +0.000 A 
ATOM     35  C   UNL     1       5.727   4.606  16.198  0.00  0.00    +0.000 A 
ATOM     36  H   UNL     1       8.367   5.809  14.831  0.00  0.00    +0.000 HD
ENDBRANCH  24  28
ENDBRANCH   1  24
BRANCH   2  37
ATOM     37  C   UNL     1       4.473   2.168  20.598  0.00  0.00    +0.000 C 
ATOM     38  N   UNL     1       5.407   1.620  21.019  0.00  0.00    +0.000 NA
ENDBRANCH   2  37
TORSDOF 6
ENDMDL
MODEL 7
REMARK VINA RESULT:      -8.2      1.496      2.532
REMARK  Name = 
REMARK  8 active torsions:
REMARK  status: ('A' for Active; 'I' for Inactive)
REMARK    1  A    between atoms: C_1  and  C_2
REMARK    2  A    between atoms: C_3  and  N_4
REMARK    3  A    between atoms: N_4  and  C_5
REMARK    4  A    between atoms: C_6  and  C_7
REMARK    5  A    between atoms: C_12  and  C_13
REMARK    6  A    between atoms: C_17  and  C_18
REMARK    7  A    between atoms: C_18  and  N_19
REMARK    8  A    between atoms: N_22  and  C_23
REMARK                            x       y       z     vdW  Elec       q    Type
REMARK                         _______ _______ _______ _____ _____    ______ ____
ROOT
ATOM      1  C   UNL     1      -0.346  13.258  19.466  0.00  0.00    +0.000 A 
ATOM      2  C   UNL     1      -0.399  14.667  19.584  0.00  0.00    +0.000 A 
ATOM      3  C   UNL     1       0.704  15.416  19.208  0.00  0.00    +0.000 A 
ATOM      4  N   UNL     1       1.871  14.888  18.788  0.00  0.00    +0.000 NA
ATOM      5  C   UNL     1       1.953  13.536  18.804  0.00  0.00    +0.000 A 
ATOM      6  C   UNL     1       0.911  12.668  19.156  0.00  0.00    +0.000 A 
ENDROOT
BRANCH   6   7
ATOM      7  C   UNL     1       1.160  11.213  19.240  0.00  0.00    +0.000 A 
ATOM      8  C   UNL     1       1.551  10.357  18.228  0.00  0.00    +0.000 A 
ATOM      9  C   UNL     1       1.795   9.019  18.666  0.00  0.00    +0.000 A 
ATOM     10  C   UNL     1       2.311   7.915  17.954  0.00  0.00    +0.000 A 
ATOM     11  C   UNL     1       2.428   6.659  18.567  0.00  0.00    +0.000 A 
ATOM     12  C   UNL     1       2.018   6.510  19.895  0.00  0.00    +0.000 A 
ATOM     13  C   UNL     1       1.528   7.594  20.629  0.00  0.00    +0.000 A 
ATOM     14  C   UNL     1       1.441   8.851  20.003  0.00  0.00    +0.000 A 
ATOM     15  S   UNL     1       0.940  10.340  20.701  0.00  0.00    +0.000 S 
BRANCH  11  16
ATOM     16  C   UNL     1       3.041   5.505  17.804  0.00  0.00    +0.000 C 
BRANCH  16  17
ATOM     17  N   UNL     1       4.311   5.847  17.148  0.00  0.00    +0.000 NA
ATOM     18  C   UNL     1       4.828   4.683  16.401  0.00  0.00    +0.000 C 
ATOM     19  C   UNL     1       6.191   4.966  15.725  0.00  0.00    +0.000 C 
ATOM     20  N   UNL     1       7.242   5.481  16.625  0.00  0.00    +0.000 NA
ATOM     21  C   UNL     1       7.781   4.436  17.489  0.00  0.00    +0.000 C 
ATOM     22  C   UNL     1       6.692   6.603  17.409  0.00  0.00    +0.000 C 
ATOM     23  C   UNL     1       5.340   6.313  18.100  0.00  0.00    +0.000 C 
ENDBRANCH  16  17
ENDBRANCH  11  16
ENDBRANCH   6   7
BRANCH   1  24
ATOM     24  N   UNL     1      -1.513  12.453  19.700  0.00  0.00    +0.000 N 
ATOM     25  H   UNL     1      -2.237  12.675  19.014  0.00  0.00    +0.000 HD
BRANCH  24  28
ATOM     26  C   UNL     1      -4.439  12.802  19.737  0.00  0.00    +0.000 C 
ATOM     27  C   UNL     1      -3.624  12.601  20.985  0.00  0.00    +0.000 A 
ATOM     28  C   UNL     1      -2.223  12.371  20.945  0.00  0.00    +0.000 A 
ATOM     29  C   UNL     1      -1.502  12.198  22.141  0.00  0.00    +0.000 A 
ATOM     30  C   UNL     1      -2.127  12.152  23.383  0.00  0.00    +0.000 A 
ATOM     31  C   UNL     1      -3.497  12.393  23.411  0.00  0.00    +0.000 A 
ATOM     32  N   UNL     1      -4.352  12.443  24.487  0.00  0.00    +0.000 N 
ATOM     33  C   UNL     1      -5.612  12.782  24.075  0.00  0.00    +0.000 A 
ATOM     34  C   UNL     1      -5.582  12.904  22.705  0.00  0.00    +0.000 A 
ATOM     35  C   UNL     1      -4.249  12.641  22.263  0.00  0.00    +0.000 A 
ATOM     36  H   UNL     1      -4.075  12.276  25.444  0.00  0.00    +0.000 HD
ENDBRANCH  24  28
ENDBRANCH   1  24
BRANCH   2  37
ATOM     37  C   UNL     1      -1.532  15.383  20.090  0.00  0.00    +0.000 C 
ATOM     38  N   UNL     1      -2.494  15.935  20.438  0.00  0.00    +0.000 NA
ENDBRANCH   2  37
TORSDOF 6
ENDMDL
MODEL 8
REMARK VINA RESULT:      -8.1      3.254     10.719
REMARK  Name = 
REMARK  8 active torsions:
REMARK  status: ('A' for Active; 'I' for Inactive)
REMARK    1  A    between atoms: C_1  and  C_2
REMARK    2  A    between atoms: C_3  and  N_4
REMARK    3  A    between atoms: N_4  and  C_5
REMARK    4  A    between atoms: C_6  and  C_7
REMARK    5  A    between atoms: C_12  and  C_13
REMARK    6  A    between atoms: C_17  and  C_18
REMARK    7  A    between atoms: C_18  and  N_19
REMARK    8  A    between atoms: N_22  and  C_23
REMARK                            x       y       z     vdW  Elec       q    Type
REMARK                         _______ _______ _______ _____ _____    ______ ____
ROOT
ATOM      1  C   UNL     1       3.189   4.155  20.114  0.00  0.00    +0.000 A 
ATOM      2  C   UNL     1       3.251   2.858  20.675  0.00  0.00    +0.000 A 
ATOM      3  C   UNL     1       2.080   2.256  21.107  0.00  0.00    +0.000 A 
ATOM      4  N   UNL     1       0.870   2.851  21.089  0.00  0.00    +0.000 NA
ATOM      5  C   UNL     1       0.846   4.139  20.671  0.00  0.00    +0.000 A 
ATOM      6  C   UNL     1       1.955   4.857  20.206  0.00  0.00    +0.000 A 
ENDROOT
BRANCH   6   7
ATOM      7  C   UNL     1       1.820   6.293  19.881  0.00  0.00    +0.000 A 
ATOM      8  C   UNL     1       1.314   7.303  20.679  0.00  0.00    +0.000 A 
ATOM      9  C   UNL     1       1.412   8.603  20.096  0.00  0.00    +0.000 A 
ATOM     10  C   UNL     1       1.112   9.866  20.650  0.00  0.00    +0.000 A 
ATOM     11  C   UNL     1       1.234  11.032  19.881  0.00  0.00    +0.000 A 
ATOM     12  C   UNL     1       1.649  10.929  18.550  0.00  0.00    +0.000 A 
ATOM     13  C   UNL     1       1.977   9.692  17.987  0.00  0.00    +0.000 A 
ATOM     14  C   UNL     1       1.871   8.537  18.783  0.00  0.00    +0.000 A 
ATOM     15  S   UNL     1       2.273   6.922  18.350  0.00  0.00    +0.000 S 
BRANCH  11  16
ATOM     16  C   UNL     1       0.967  12.381  20.513  0.00  0.00    +0.000 C 
BRANCH  16  17
ATOM     17  N   UNL     1       0.982  13.491  19.550  0.00  0.00    +0.000 NA
ATOM     18  C   UNL     1       2.210  14.294  19.718  0.00  0.00    +0.000 C 
ATOM     19  C   UNL     1       2.264  15.510  18.762  0.00  0.00    +0.000 C 
ATOM     20  N   UNL     1       1.084  16.396  18.808  0.00  0.00    +0.000 NA
ATOM     21  C   UNL     1       1.070  17.223  20.011  0.00  0.00    +0.000 C 
ATOM     22  C   UNL     1      -0.136  15.574  18.701  0.00  0.00    +0.000 C 
ATOM     23  C   UNL     1      -0.197  14.371  19.671  0.00  0.00    +0.000 C 
ENDBRANCH  16  17
ENDBRANCH  11  16
ENDBRANCH   6   7
BRANCH   1  24
ATOM     24  N   UNL     1       4.350   4.758  19.517  0.00  0.00    +0.000 N 
ATOM     25  H   UNL     1       4.278   5.776  19.559  0.00  0.00    +0.000 HD
BRANCH  24  28
ATOM     26  C   UNL     1       6.960   5.828  18.663  0.00  0.00    +0.000 C 
ATOM     27  C   UNL     1       6.051   5.058  17.743  0.00  0.00    +0.000 A 
ATOM     28  C   UNL     1       4.826   4.495  18.188  0.00  0.00    +0.000 A 
ATOM     29  C   UNL     1       4.005   3.791  17.288  0.00  0.00    +0.000 A 
ATOM     30  C   UNL     1       4.390   3.540  15.975  0.00  0.00    +0.000 A 
ATOM     31  C   UNL     1       5.585   4.109  15.547  0.00  0.00    +0.000 A 
ATOM     32  N   UNL     1       6.183   4.056  14.309  0.00  0.00    +0.000 N 
ATOM     33  C   UNL     1       7.319   4.818  14.299  0.00  0.00    +0.000 A 
ATOM     34  C   UNL     1       7.486   5.331  15.564  0.00  0.00    +0.000 A 
ATOM     35  C   UNL     1       6.403   4.876  16.377  0.00  0.00    +0.000 A 
ATOM     36  H   UNL     1       5.815   3.544  13.519  0.00  0.00    +0.000 HD
ENDBRANCH  24  28
ENDBRANCH   1  24
BRANCH   2  37
ATOM     37  C   UNL     1       4.466   2.119  20.844  0.00  0.00    +0.000 C 
ATOM     38  N   UNL     1       5.406   1.456  21.006  0.00  0.00    +0.000 NA
ENDBRANCH   2  37
TORSDOF 6
ENDMDL
MODEL 9
REMARK VINA RESULT:      -8.1      2.582     10.901
REMARK  Name = 
REMARK  8 active torsions:
REMARK  status: ('A' for Active; 'I' for Inactive)
REMARK    1  A    between atoms: C_1  and  C_2
REMARK    2  A    between atoms: C_3  and  N_4
REMARK    3  A    between atoms: N_4  and  C_5
REMARK    4  A    between atoms: C_6  and  C_7
REMARK    5  A    between atoms: C_12  and  C_13
REMARK    6  A    between atoms: C_17  and  C_18
REMARK    7  A    between atoms: C_18  and  N_19
REMARK    8  A    between atoms: N_22  and  C_23
REMARK                            x       y       z     vdW  Elec       q    Type
REMARK                         _______ _______ _______ _____ _____    ______ ____
ROOT
ATOM      1  C   UNL     1       3.175   4.166  20.094  0.00  0.00    +0.000 A 
ATOM      2  C   UNL     1       3.229   2.870  20.657  0.00  0.00    +0.000 A 
ATOM      3  C   UNL     1       2.054   2.273  21.085  0.00  0.00    +0.000 A 
ATOM      4  N   UNL     1       0.846   2.873  21.061  0.00  0.00    +0.000 NA
ATOM      5  C   UNL     1       0.829   4.160  20.641  0.00  0.00    +0.000 A 
ATOM      6  C   UNL     1       1.943   4.873  20.179  0.00  0.00    +0.000 A 
ENDROOT
BRANCH   6   7
ATOM      7  C   UNL     1       1.815   6.309  19.851  0.00  0.00    +0.000 A 
ATOM      8  C   UNL     1       1.261   7.313  20.624  0.00  0.00    +0.000 A 
ATOM      9  C   UNL     1       1.380   8.615  20.050  0.00  0.00    +0.000 A 
ATOM     10  C   UNL     1       1.042   9.875  20.591  0.00  0.00    +0.000 A 
ATOM     11  C   UNL     1       1.196  11.044  19.832  0.00  0.00    +0.000 A 
ATOM     12  C   UNL     1       1.682  10.948  18.525  0.00  0.00    +0.000 A 
ATOM     13  C   UNL     1       2.047   9.714  17.977  0.00  0.00    +0.000 A 
ATOM     14  C   UNL     1       1.907   8.556  18.763  0.00  0.00    +0.000 A 
ATOM     15  S   UNL     1       2.343   6.945  18.348  0.00  0.00    +0.000 S 
BRANCH  11  16
ATOM     16  C   UNL     1       0.886  12.389  20.453  0.00  0.00    +0.000 C 
BRANCH  16  17
ATOM     17  N   UNL     1      -0.428  12.441  21.107  0.00  0.00    +0.000 NA
ATOM     18  C   UNL     1      -1.452  12.920  20.157  0.00  0.00    +0.000 C 
ATOM     19  C   UNL     1      -2.854  13.043  20.801  0.00  0.00    +0.000 C 
ATOM     20  N   UNL     1      -2.908  13.853  22.035  0.00  0.00    +0.000 NA
ATOM     21  C   UNL     1      -2.808  15.282  21.755  0.00  0.00    +0.000 C 
ATOM     22  C   UNL     1      -1.840  13.403  22.949  0.00  0.00    +0.000 C 
ATOM     23  C   UNL     1      -0.437  13.300  22.308  0.00  0.00    +0.000 C 
ENDBRANCH  16  17
ENDBRANCH  11  16
ENDBRANCH   6   7
BRANCH   1  24
ATOM     24  N   UNL     1       4.340   4.763  19.501  0.00  0.00    +0.000 N 
ATOM     25  H   UNL     1       4.275   5.782  19.546  0.00  0.00    +0.000 HD
BRANCH  24  28
ATOM     26  C   UNL     1       6.972   5.795  18.666  0.00  0.00    +0.000 C 
ATOM     27  C   UNL     1       6.054   5.047  17.736  0.00  0.00    +0.000 A 
ATOM     28  C   UNL     1       4.817   4.501  18.172  0.00  0.00    +0.000 A 
ATOM     29  C   UNL     1       3.988   3.818  17.264  0.00  0.00    +0.000 A 
ATOM     30  C   UNL     1       4.375   3.570  15.951  0.00  0.00    +0.000 A 
ATOM     31  C   UNL     1       5.582   4.121  15.532  0.00  0.00    +0.000 A 
ATOM     32  N   UNL     1       6.184   4.067  14.296  0.00  0.00    +0.000 N 
ATOM     33  C   UNL     1       7.332   4.809  14.296  0.00  0.00    +0.000 A 
ATOM     34  C   UNL     1       7.503   5.311  15.566  0.00  0.00    +0.000 A 
ATOM     35  C   UNL     1       6.408   4.868  16.371  0.00  0.00    +0.000 A 
ATOM     36  H   UNL     1       5.810   3.567  13.501  0.00  0.00    +0.000 HD
ENDBRANCH  24  28
ENDBRANCH   1  24
BRANCH   2  37
ATOM     37  C   UNL     1       4.440   2.126  20.833  0.00  0.00    +0.000 C 
ATOM     38  N   UNL     1       5.425   1.550  21.053  0.00  0.00    +0.000 NA
ENDBRANCH   2  37
TORSDOF 6
ENDMDL
