MODEL 1
REMARK VINA RESULT:      -9.2      0.000      0.000
REMARK  Name = 
REMARK  8 active torsions:
REMARK  status: ('A' for Active; 'I' for Inactive)
REMARK    1  A    between atoms: C_1  and  C_2
REMARK    2  A    between atoms: C_5  and  C_6
REMARK    3  A    between atoms: N_7  and  C_8
REMARK    4  A    between atoms: C_10  and  C_11
REMARK    5  A    between atoms: N_13  and  N_14
REMARK    6  A    between atoms: C_15  and  C_16
REMARK    7  A    between atoms: C_28  and  C_29
REMARK    8  A    between atoms: C_29  and  O_31
REMARK                            x       y       z     vdW  Elec       q    Type
REMARK                         _______ _______ _______ _____ _____    ______ ____
ROOT
ATOM      1  C   UNL     1       4.181   4.145  18.905  0.00  0.00    +0.000 A 
ATOM      2  C   UNL     1       5.398   4.869  19.058  0.00  0.00    +0.000 A 
ATOM      3  C   UNL     1       6.089   5.481  17.999  0.00  0.00    +0.000 A 
ATOM      4  C   UNL     1       5.640   5.229  16.714  0.00  0.00    +0.000 A 
ATOM      5  C   UNL     1       4.483   4.460  16.527  0.00  0.00    +0.000 A 
ATOM      6  C   UNL     1       3.706   3.962  17.599  0.00  0.00    +0.000 A 
ENDROOT
BRANCH   1  13
ATOM      7  C   UNL     1       4.808   1.476  20.632  0.00  0.00    +0.000 C 
ATOM      8  C   UNL     1       3.697   2.472  20.791  0.00  0.00    +0.000 A 
ATOM      9  C   UNL     1       2.702   2.375  21.750  0.00  0.00    +0.000 A 
ATOM     10  C   UNL     1       1.956   3.558  21.738  0.00  0.00    +0.000 A 
ATOM     11  C   UNL     1       2.463   4.369  20.744  0.00  0.00    +0.000 A 
ATOM     12  C   UNL     1       1.893   5.705  20.364  0.00  0.00    +0.000 C 
ATOM     13  N   UNL     1       3.515   3.684  20.096  0.00  0.00    +0.000 N 
ENDBRANCH   1  13
BRANCH   3  14
ATOM     14  C   UNL     1       7.290   6.343  18.314  0.00  0.00    +0.000 C 
ATOM     15  O   UNL     1       8.104   5.934  19.122  0.00  0.00    +0.000 OA
ATOM     16  N   UNL     1       7.338   7.588  17.686  0.00  0.00    +0.000 N 
ATOM     17  H   UNL     1       6.565   7.912  17.123  0.00  0.00    +0.000 HD
BRANCH  16  18
ATOM     18  N   UNL     1       8.355   8.477  17.970  0.00  0.00    +0.000 NA
ATOM     19  C   UNL     1       8.011   9.726  18.121  0.00  0.00    +0.000 C 
BRANCH  19  20
ATOM     20  C   UNL     1       8.998  10.800  18.419  0.00  0.00    +0.000 A 
ATOM     21  C   UNL     1      10.027  10.571  19.326  0.00  0.00    +0.000 A 
ATOM     22  C   UNL     1      11.033  11.526  19.485  0.00  0.00    +0.000 A 
ATOM     23  C   UNL     1      11.026  12.719  18.792  0.00  0.00    +0.000 A 
ATOM     24  N   UNL     1      12.100  13.533  18.867  0.00  0.00    +0.000 NA
ATOM     25  C   UNL     1      12.012  14.711  18.213  0.00  0.00    +0.000 A 
ATOM     26  C   UNL     1      10.847  15.116  17.605  0.00  0.00    +0.000 A 
ATOM     27  N   UNL     1       9.786  14.282  17.449  0.00  0.00    +0.000 NA
ATOM     28  C   UNL     1       9.897  13.037  18.001  0.00  0.00    +0.000 A 
ATOM     29  C   UNL     1       8.930  12.066  17.778  0.00  0.00    +0.000 A 
ENDBRANCH  19  20
ENDBRANCH  16  18
ENDBRANCH   3  14
BRANCH   6  30
ATOM     30  C   UNL     1       2.424   3.375  17.117  0.00  0.00    +0.000 C 
ATOM     31  O   UNL     1       1.461   4.087  16.871  0.00  0.00    +0.000 OA
BRANCH  30  32
ATOM     32  O   UNL     1       2.346   2.030  17.069  0.00  0.00    +0.000 OA
ATOM     33  H   UNL     1       1.801   1.595  17.753  0.00  0.00    +0.000 HD
ENDBRANCH  30  32
ENDBRANCH   6  30
TORSDOF 6
ENDMDL
MODEL 2
REMARK VINA RESULT:      -8.7      1.336      2.310
REMARK  Name = 
REMARK  8 active torsions:
REMARK  status: ('A' for Active; 'I' for Inactive)
REMARK    1  A    between atoms: C_1  and  C_2
REMARK    2  A    between atoms: C_5  and  C_6
REMARK    3  A    between atoms: N_7  and  C_8
REMARK    4  A    between atoms: C_10  and  C_11
REMARK    5  A    between atoms: N_13  and  N_14
REMARK    6  A    between atoms: C_15  and  C_16
REMARK    7  A    between atoms: C_28  and  C_29
REMARK    8  A    between atoms: C_29  and  O_31
REMARK                            x       y       z     vdW  Elec       q    Type
REMARK                         _______ _______ _______ _____ _____    ______ ____
ROOT
ATOM      1  C   UNL     1       3.729   5.517  18.298  0.00  0.00    +0.000 A 
ATOM      2  C   UNL     1       4.947   6.239  18.143  0.00  0.00    +0.000 A 
ATOM      3  C   UNL     1       5.931   5.928  17.189  0.00  0.00    +0.000 A 
ATOM      4  C   UNL     1       5.773   4.758  16.468  0.00  0.00    +0.000 A 
ATOM      5  C   UNL     1       4.617   3.988  16.649  0.00  0.00    +0.000 A 
ATOM      6  C   UNL     1       3.559   4.374  17.506  0.00  0.00    +0.000 A 
ENDROOT
BRANCH   1  13
ATOM      7  C   UNL     1       2.174   8.358  18.195  0.00  0.00    +0.000 C 
ATOM      8  C   UNL     1       2.158   7.303  19.262  0.00  0.00    +0.000 A 
ATOM      9  C   UNL     1       1.444   7.410  20.443  0.00  0.00    +0.000 A 
ATOM     10  C   UNL     1       1.498   6.181  21.108  0.00  0.00    +0.000 A 
ATOM     11  C   UNL     1       2.279   5.327  20.358  0.00  0.00    +0.000 A 
ATOM     12  C   UNL     1       2.640   3.927  20.764  0.00  0.00    +0.000 C 
ATOM     13  N   UNL     1       2.754   6.028  19.228  0.00  0.00    +0.000 N 
ENDBRANCH   1  13
BRANCH   3  14
ATOM     14  C   UNL     1       7.111   6.861  17.030  0.00  0.00    +0.000 C 
ATOM     15  O   UNL     1       7.939   6.610  16.173  0.00  0.00    +0.000 OA
ATOM     16  N   UNL     1       7.185   7.921  17.934  0.00  0.00    +0.000 N 
ATOM     17  H   UNL     1       6.528   7.996  18.696  0.00  0.00    +0.000 HD
BRANCH  16  18
ATOM     18  N   UNL     1       8.266   8.780  17.917  0.00  0.00    +0.000 NA
ATOM     19  C   UNL     1       8.000  10.051  18.037  0.00  0.00    +0.000 C 
BRANCH  19  20
ATOM     20  C   UNL     1       9.060  11.097  18.026  0.00  0.00    +0.000 A 
ATOM     21  C   UNL     1      10.398  10.737  18.140  0.00  0.00    +0.000 A 
ATOM     22  C   UNL     1      11.390  11.705  17.975  0.00  0.00    +0.000 A 
ATOM     23  C   UNL     1      11.088  13.029  17.734  0.00  0.00    +0.000 A 
ATOM     24  N   UNL     1      12.083  13.890  17.429  0.00  0.00    +0.000 NA
ATOM     25  C   UNL     1      11.733  15.182  17.259  0.00  0.00    +0.000 A 
ATOM     26  C   UNL     1      10.454  15.624  17.503  0.00  0.00    +0.000 A 
ATOM     27  N   UNL     1       9.426  14.767  17.731  0.00  0.00    +0.000 NA
ATOM     28  C   UNL     1       9.735  13.438  17.789  0.00  0.00    +0.000 A 
ATOM     29  C   UNL     1       8.739  12.473  17.878  0.00  0.00    +0.000 A 
ENDBRANCH  19  20
ENDBRANCH  16  18
ENDBRANCH   3  14
BRANCH   6  30
ATOM     30  C   UNL     1       2.371   3.490  17.337  0.00  0.00    +0.000 C 
ATOM     31  O   UNL     1       1.258   3.962  17.153  0.00  0.00    +0.000 OA
BRANCH  30  32
ATOM     32  O   UNL     1       2.564   2.166  17.503  0.00  0.00    +0.000 OA
ATOM     33  H   UNL     1       2.119   1.747  18.264  0.00  0.00    +0.000 HD
ENDBRANCH  30  32
ENDBRANCH   6  30
TORSDOF 6
ENDMDL
MODEL 3
REMARK VINA RESULT:      -8.7      1.241      1.756
REMARK  Name = 
REMARK  8 active torsions:
REMARK  status: ('A' for Active; 'I' for Inactive)
REMARK    1  A    between atoms: C_1  and  C_2
REMARK    2  A    between atoms: C_5  and  C_6
REMARK    3  A    between atoms: N_7  and  C_8
REMARK    4  A    between atoms: C_10  and  C_11
REMARK    5  A    between atoms: N_13  and  N_14
REMARK    6  A    between atoms: C_15  and  C_16
REMARK    7  A    between atoms: C_28  and  C_29
REMARK    8  A    between atoms: C_29  and  O_31
REMARK                            x       y       z     vdW  Elec       q    Type
REMARK                         _______ _______ _______ _____ _____    ______ ____
ROOT
ATOM      1  C   UNL     1       3.822   5.239  18.262  0.00  0.00    +0.000 A 
ATOM      2  C   UNL     1       5.010   5.986  18.016  0.00  0.00    +0.000 A 
ATOM      3  C   UNL     1       5.899   5.726  16.960  0.00  0.00    +0.000 A 
ATOM      4  C   UNL     1       5.686   4.581  16.214  0.00  0.00    +0.000 A 
ATOM      5  C   UNL     1       4.563   3.786  16.478  0.00  0.00    +0.000 A 
ATOM      6  C   UNL     1       3.590   4.123  17.447  0.00  0.00    +0.000 A 
ENDROOT
BRANCH   1  13
ATOM      7  C   UNL     1       2.916   3.672  20.949  0.00  0.00    +0.000 C 
ATOM      8  C   UNL     1       2.443   4.991  20.412  0.00  0.00    +0.000 A 
ATOM      9  C   UNL     1       1.471   5.769  21.020  0.00  0.00    +0.000 A 
ATOM     10  C   UNL     1       1.418   7.003  20.365  0.00  0.00    +0.000 A 
ATOM     11  C   UNL     1       2.327   6.974  19.329  0.00  0.00    +0.000 A 
ATOM     12  C   UNL     1       2.527   8.088  18.342  0.00  0.00    +0.000 C 
ATOM     13  N   UNL     1       2.937   5.700  19.301  0.00  0.00    +0.000 N 
ENDBRANCH   1  13
BRANCH   3  14
ATOM     14  C   UNL     1       7.045   6.683  16.721  0.00  0.00    +0.000 C 
ATOM     15  O   UNL     1       7.936   6.346  15.962  0.00  0.00    +0.000 OA
ATOM     16  N   UNL     1       7.018   7.872  17.450  0.00  0.00    +0.000 N 
ATOM     17  H   UNL     1       6.312   8.030  18.154  0.00  0.00    +0.000 HD
BRANCH  16  18
ATOM     18  N   UNL     1       8.060   8.773  17.358  0.00  0.00    +0.000 NA
ATOM     19  C   UNL     1       8.012   9.801  18.160  0.00  0.00    +0.000 C 
BRANCH  19  20
ATOM     20  C   UNL     1       9.057  10.862  18.169  0.00  0.00    +0.000 A 
ATOM     21  C   UNL     1      10.386  10.530  18.412  0.00  0.00    +0.000 A 
ATOM     22  C   UNL     1      11.377  11.503  18.268  0.00  0.00    +0.000 A 
ATOM     23  C   UNL     1      11.081  12.805  17.922  0.00  0.00    +0.000 A 
ATOM     24  N   UNL     1      12.087  13.661  17.645  0.00  0.00    +0.000 NA
ATOM     25  C   UNL     1      11.737  14.936  17.369  0.00  0.00    +0.000 A 
ATOM     26  C   UNL     1      10.438  15.371  17.483  0.00  0.00    +0.000 A 
ATOM     27  N   UNL     1       9.404  14.512  17.680  0.00  0.00    +0.000 NA
ATOM     28  C   UNL     1       9.723  13.194  17.844  0.00  0.00    +0.000 A 
ATOM     29  C   UNL     1       8.734  12.221  17.912  0.00  0.00    +0.000 A 
ENDBRANCH  19  20
ENDBRANCH  16  18
ENDBRANCH   3  14
BRANCH   6  30
ATOM     30  C   UNL     1       2.402   3.227  17.362  0.00  0.00    +0.000 C 
ATOM     31  O   UNL     1       1.272   3.687  17.288  0.00  0.00    +0.000 OA
BRANCH  30  32
ATOM     32  O   UNL     1       2.625   1.902  17.478  0.00  0.00    +0.000 OA
ATOM     33  H   UNL     1       3.350   1.627  18.072  0.00  0.00    +0.000 HD
ENDBRANCH  30  32
ENDBRANCH   6  30
TORSDOF 6
ENDMDL
MODEL 4
REMARK VINA RESULT:      -8.6      5.625      8.298
REMARK  Name = 
REMARK  8 active torsions:
REMARK  status: ('A' for Active; 'I' for Inactive)
REMARK    1  A    between atoms: C_1  and  C_2
REMARK    2  A    between atoms: C_5  and  C_6
REMARK    3  A    between atoms: N_7  and  C_8
REMARK    4  A    between atoms: C_10  and  C_11
REMARK    5  A    between atoms: N_13  and  N_14
REMARK    6  A    between atoms: C_15  and  C_16
REMARK    7  A    between atoms: C_28  and  C_29
REMARK    8  A    between atoms: C_29  and  O_31
REMARK                            x       y       z     vdW  Elec       q    Type
REMARK                         _______ _______ _______ _____ _____    ______ ____
ROOT
ATOM      1  C   UNL     1       4.348   4.686  18.842  0.00  0.00    +0.000 A 
ATOM      2  C   UNL     1       3.668   5.933  18.952  0.00  0.00    +0.000 A 
ATOM      3  C   UNL     1       2.571   6.159  19.801  0.00  0.00    +0.000 A 
ATOM      4  C   UNL     1       2.026   5.063  20.444  0.00  0.00    +0.000 A 
ATOM      5  C   UNL     1       2.631   3.807  20.299  0.00  0.00    +0.000 A 
ATOM      6  C   UNL     1       3.819   3.605  19.559  0.00  0.00    +0.000 A 
ENDROOT
BRANCH   1  13
ATOM      7  C   UNL     1       7.366   5.514  19.681  0.00  0.00    +0.000 C 
ATOM      8  C   UNL     1       6.832   5.098  18.342  0.00  0.00    +0.000 A 
ATOM      9  C   UNL     1       7.600   5.024  17.192  0.00  0.00    +0.000 A 
ATOM     10  C   UNL     1       6.836   4.424  16.186  0.00  0.00    +0.000 A 
ATOM     11  C   UNL     1       5.584   4.164  16.701  0.00  0.00    +0.000 A 
ATOM     12  C   UNL     1       4.444   3.583  15.915  0.00  0.00    +0.000 C 
ATOM     13  N   UNL     1       5.538   4.635  18.032  0.00  0.00    +0.000 N 
ENDBRANCH   1  13
BRANCH   3  14
ATOM     14  C   UNL     1       2.032   7.566  19.934  0.00  0.00    +0.000 C 
ATOM     15  O   UNL     1       2.000   8.273  18.944  0.00  0.00    +0.000 OA
ATOM     16  N   UNL     1       1.663   7.965  21.219  0.00  0.00    +0.000 N 
ATOM     17  H   UNL     1       1.832   7.367  22.014  0.00  0.00    +0.000 HD
BRANCH  16  18
ATOM     18  N   UNL     1       1.233   9.256  21.454  0.00  0.00    +0.000 NA
ATOM     19  C   UNL     1      -0.055   9.427  21.576  0.00  0.00    +0.000 C 
BRANCH  19  20
ATOM     20  C   UNL     1      -0.668  10.761  21.820  0.00  0.00    +0.000 A 
ATOM     21  C   UNL     1      -1.283  11.035  23.037  0.00  0.00    +0.000 A 
ATOM     22  C   UNL     1      -1.718  12.332  23.315  0.00  0.00    +0.000 A 
ATOM     23  C   UNL     1      -1.590  13.359  22.402  0.00  0.00    +0.000 A 
ATOM     24  N   UNL     1      -1.883  14.621  22.781  0.00  0.00    +0.000 NA
ATOM     25  C   UNL     1      -1.792  15.573  21.829  0.00  0.00    +0.000 A 
ATOM     26  C   UNL     1      -1.534  15.262  20.515  0.00  0.00    +0.000 A 
ATOM     27  N   UNL     1      -1.158  14.015  20.129  0.00  0.00    +0.000 NA
ATOM     28  C   UNL     1      -1.126  13.055  21.100  0.00  0.00    +0.000 A 
ATOM     29  C   UNL     1      -0.622  11.788  20.838  0.00  0.00    +0.000 A 
ENDBRANCH  19  20
ENDBRANCH  16  18
ENDBRANCH   3  14
BRANCH   6  30
ATOM     30  C   UNL     1       4.356   2.229  19.757  0.00  0.00    +0.000 C 
ATOM     31  O   UNL     1       5.058   1.960  20.721  0.00  0.00    +0.000 OA
BRANCH  30  32
ATOM     32  O   UNL     1       4.122   1.334  18.775  0.00  0.00    +0.000 OA
ATOM     33  H   UNL     1       4.853   1.161  18.152  0.00  0.00    +0.000 HD
ENDBRANCH  30  32
ENDBRANCH   6  30
TORSDOF 6
ENDMDL
MODEL 5
REMARK VINA RESULT:      -8.6      5.722      8.837
REMARK  Name = 
REMARK  8 active torsions:
REMARK  status: ('A' for Active; 'I' for Inactive)
REMARK    1  A    between atoms: C_1  and  C_2
REMARK    2  A    between atoms: C_5  and  C_6
REMARK    3  A    between atoms: N_7  and  C_8
REMARK    4  A    between atoms: C_10  and  C_11
REMARK    5  A    between atoms: N_13  and  N_14
REMARK    6  A    between atoms: C_15  and  C_16
REMARK    7  A    between atoms: C_28  and  C_29
REMARK    8  A    between atoms: C_29  and  O_31
REMARK                            x       y       z     vdW  Elec       q    Type
REMARK                         _______ _______ _______ _____ _____    ______ ____
ROOT
ATOM      1  C   UNL     1       4.238   4.764  18.809  0.00  0.00    +0.000 A 
ATOM      2  C   UNL     1       3.574   6.011  18.995  0.00  0.00    +0.000 A 
ATOM      3  C   UNL     1       2.515   6.213  19.896  0.00  0.00    +0.000 A 
ATOM      4  C   UNL     1       1.987   5.096  20.520  0.00  0.00    +0.000 A 
ATOM      5  C   UNL     1       2.574   3.843  20.302  0.00  0.00    +0.000 A 
ATOM      6  C   UNL     1       3.729   3.660  19.506  0.00  0.00    +0.000 A 
ENDROOT
BRANCH   1  13
ATOM      7  C   UNL     1       4.350   4.075  15.645  0.00  0.00    +0.000 C 
ATOM      8  C   UNL     1       5.476   4.327  16.604  0.00  0.00    +0.000 A 
ATOM      9  C   UNL     1       6.815   4.276  16.254  0.00  0.00    +0.000 A 
ATOM     10  C   UNL     1       7.574   4.746  17.331  0.00  0.00    +0.000 A 
ATOM     11  C   UNL     1       6.708   5.049  18.360  0.00  0.00    +0.000 A 
ATOM     12  C   UNL     1       7.135   5.521  19.720  0.00  0.00    +0.000 C 
ATOM     13  N   UNL     1       5.393   4.735  17.949  0.00  0.00    +0.000 N 
ENDBRANCH   1  13
BRANCH   3  14
ATOM     14  C   UNL     1       1.994   7.617  20.105  0.00  0.00    +0.000 C 
ATOM     15  O   UNL     1       1.869   8.341  19.135  0.00  0.00    +0.000 OA
ATOM     16  N   UNL     1       1.752   7.994  21.426  0.00  0.00    +0.000 N 
ATOM     17  H   UNL     1       1.995   7.382  22.191  0.00  0.00    +0.000 HD
BRANCH  16  18
ATOM     18  N   UNL     1       1.349   9.281  21.724  0.00  0.00    +0.000 NA
ATOM     19  C   UNL     1       0.063   9.484  21.805  0.00  0.00    +0.000 C 
BRANCH  19  20
ATOM     20  C   UNL     1      -0.521  10.819  22.108  0.00  0.00    +0.000 A 
ATOM     21  C   UNL     1       0.019  11.964  21.531  0.00  0.00    +0.000 A 
ATOM     22  C   UNL     1      -0.626  13.191  21.699  0.00  0.00    +0.000 A 
ATOM     23  C   UNL     1      -1.775  13.318  22.451  0.00  0.00    +0.000 A 
ATOM     24  N   UNL     1      -2.441  14.493  22.449  0.00  0.00    +0.000 NA
ATOM     25  C   UNL     1      -3.526  14.573  23.248  0.00  0.00    +0.000 A 
ATOM     26  C   UNL     1      -3.867  13.558  24.111  0.00  0.00    +0.000 A 
ATOM     27  N   UNL     1      -3.262  12.343  24.070  0.00  0.00    +0.000 NA
ATOM     28  C   UNL     1      -2.234  12.197  23.182  0.00  0.00    +0.000 A 
ATOM     29  C   UNL     1      -1.645  10.958  22.965  0.00  0.00    +0.000 A 
ENDBRANCH  19  20
ENDBRANCH  16  18
ENDBRANCH   3  14
BRANCH   6  30
ATOM     30  C   UNL     1       4.261   2.273  19.629  0.00  0.00    +0.000 C 
ATOM     31  O   UNL     1       5.000   1.962  20.552  0.00  0.00    +0.000 OA
BRANCH  30  32
ATOM     32  O   UNL     1       3.979   1.418  18.625  0.00  0.00    +0.000 OA
ATOM     33  H   UNL     1       3.623   0.544  18.876  0.00  0.00    +0.000 HD
ENDBRANCH  30  32
ENDBRANCH   6  30
TORSDOF 6
ENDMDL
MODEL 6
REMARK VINA RESULT:      -8.5      0.991      1.177
REMARK  Name = 
REMARK  8 active torsions:
REMARK  status: ('A' for Active; 'I' for Inactive)
REMARK    1  A    between atoms: C_1  and  C_2
REMARK    2  A    between atoms: C_5  and  C_6
REMARK    3  A    between atoms: N_7  and  C_8
REMARK    4  A    between atoms: C_10  and  C_11
REMARK    5  A    between atoms: N_13  and  N_14
REMARK    6  A    between atoms: C_15  and  C_16
REMARK    7  A    between atoms: C_28  and  C_29
REMARK    8  A    between atoms: C_29  and  O_31
REMARK                            x       y       z     vdW  Elec       q    Type
REMARK                         _______ _______ _______ _____ _____    ______ ____
ROOT
ATOM      1  C   UNL     1       4.204   4.163  18.921  0.00  0.00    +0.000 A 
ATOM      2  C   UNL     1       5.429   4.870  19.088  0.00  0.00    +0.000 A 
ATOM      3  C   UNL     1       6.141   5.472  18.036  0.00  0.00    +0.000 A 
ATOM      4  C   UNL     1       5.704   5.224  16.747  0.00  0.00    +0.000 A 
ATOM      5  C   UNL     1       4.540   4.471  16.547  0.00  0.00    +0.000 A 
ATOM      6  C   UNL     1       3.744   3.985  17.610  0.00  0.00    +0.000 A 
ENDROOT
BRANCH   1  13
ATOM      7  C   UNL     1       4.780   1.493  20.664  0.00  0.00    +0.000 C 
ATOM      8  C   UNL     1       3.677   2.501  20.805  0.00  0.00    +0.000 A 
ATOM      9  C   UNL     1       2.670   2.417  21.751  0.00  0.00    +0.000 A 
ATOM     10  C   UNL     1       1.936   3.608  21.725  0.00  0.00    +0.000 A 
ATOM     11  C   UNL     1       2.465   4.411  20.737  0.00  0.00    +0.000 A 
ATOM     12  C   UNL     1       1.914   5.752  20.345  0.00  0.00    +0.000 C 
ATOM     13  N   UNL     1       3.518   3.713  20.105  0.00  0.00    +0.000 N 
ENDBRANCH   1  13
BRANCH   3  14
ATOM     14  C   UNL     1       7.350   6.318  18.366  0.00  0.00    +0.000 C 
ATOM     15  O   UNL     1       8.135   5.911  19.203  0.00  0.00    +0.000 OA
ATOM     16  N   UNL     1       7.438   7.548  17.713  0.00  0.00    +0.000 N 
ATOM     17  H   UNL     1       6.687   7.875  17.123  0.00  0.00    +0.000 HD
BRANCH  16  18
ATOM     18  N   UNL     1       8.464   8.424  18.006  0.00  0.00    +0.000 NA
ATOM     19  C   UNL     1       8.133   9.676  18.166  0.00  0.00    +0.000 C 
BRANCH  19  20
ATOM     20  C   UNL     1       9.131  10.737  18.474  0.00  0.00    +0.000 A 
ATOM     21  C   UNL     1      10.226  10.929  17.638  0.00  0.00    +0.000 A 
ATOM     22  C   UNL     1      11.071  12.021  17.848  0.00  0.00    +0.000 A 
ATOM     23  C   UNL     1      10.877  12.908  18.887  0.00  0.00    +0.000 A 
ATOM     24  N   UNL     1      11.628  14.028  18.948  0.00  0.00    +0.000 NA
ATOM     25  C   UNL     1      11.431  14.829  20.017  0.00  0.00    +0.000 A 
ATOM     26  C   UNL     1      10.601  14.466  21.051  0.00  0.00    +0.000 A 
ATOM     27  N   UNL     1       9.779  13.388  20.972  0.00  0.00    +0.000 NA
ATOM     28  C   UNL     1       9.873  12.625  19.843  0.00  0.00    +0.000 A 
ATOM     29  C   UNL     1       8.983  11.586  19.603  0.00  0.00    +0.000 A 
ENDBRANCH  19  20
ENDBRANCH  16  18
ENDBRANCH   3  14
BRANCH   6  30
ATOM     30  C   UNL     1       2.459   3.415  17.112  0.00  0.00    +0.000 C 
ATOM     31  O   UNL     1       1.490   4.132  16.912  0.00  0.00    +0.000 OA
BRANCH  30  32
ATOM     32  O   UNL     1       2.388   2.073  16.999  0.00  0.00    +0.000 OA
ATOM     33  H   UNL     1       3.204   1.609  16.732  0.00  0.00    +0.000 HD
ENDBRANCH  30  32
ENDBRANCH   6  30
TORSDOF 6
ENDMDL
MODEL 7
REMARK VINA RESULT:      -8.5      5.704      8.562
REMARK  Name = 
REMARK  8 active torsions:
REMARK  status: ('A' for Active; 'I' for Inactive)
REMARK    1  A    between atoms: C_1  and  C_2
REMARK    2  A    between atoms: C_5  and  C_6
REMARK    3  A    between atoms: N_7  and  C_8
REMARK    4  A    between atoms: C_10  and  C_11
REMARK    5  A    between atoms: N_13  and  N_14
REMARK    6  A    between atoms: C_15  and  C_16
REMARK    7  A    between atoms: C_28  and  C_29
REMARK    8  A    between atoms: C_29  and  O_31
REMARK                            x       y       z     vdW  Elec       q    Type
REMARK                         _______ _______ _______ _____ _____    ______ ____
ROOT
ATOM      1  C   UNL     1       4.266   4.703  18.810  0.00  0.00    +0.000 A 
ATOM      2  C   UNL     1       3.597   5.956  18.917  0.00  0.00    +0.000 A 
ATOM      3  C   UNL     1       2.530   6.207  19.796  0.00  0.00    +0.000 A 
ATOM      4  C   UNL     1       1.999   5.127  20.479  0.00  0.00    +0.000 A 
ATOM      5  C   UNL     1       2.592   3.865  20.339  0.00  0.00    +0.000 A 
ATOM      6  C   UNL     1       3.754   3.640  19.565  0.00  0.00    +0.000 A 
ENDROOT
BRANCH   1  13
ATOM      7  C   UNL     1       7.311   5.549  19.526  0.00  0.00    +0.000 C 
ATOM      8  C   UNL     1       6.732   5.098  18.217  0.00  0.00    +0.000 A 
ATOM      9  C   UNL     1       7.461   4.992  17.045  0.00  0.00    +0.000 A 
ATOM     10  C   UNL     1       6.665   4.366  16.081  0.00  0.00    +0.000 A 
ATOM     11  C   UNL     1       5.430   4.122  16.644  0.00  0.00    +0.000 A 
ATOM     12  C   UNL     1       4.265   3.521  15.912  0.00  0.00    +0.000 C 
ATOM     13  N   UNL     1       5.429   4.629  17.963  0.00  0.00    +0.000 N 
ENDBRANCH   1  13
BRANCH   3  14
ATOM     14  C   UNL     1       2.004   7.619  19.919  0.00  0.00    +0.000 C 
ATOM     15  O   UNL     1       2.075   8.353  18.950  0.00  0.00    +0.000 OA
ATOM     16  N   UNL     1       1.523   7.991  21.175  0.00  0.00    +0.000 N 
ATOM     17  H   UNL     1       1.608   7.368  21.966  0.00  0.00    +0.000 HD
BRANCH  16  18
ATOM     18  N   UNL     1       1.094   9.282  21.406  0.00  0.00    +0.000 NA
ATOM     19  C   UNL     1      -0.111   9.576  21.004  0.00  0.00    +0.000 C 
BRANCH  19  20
ATOM     20  C   UNL     1      -0.707  10.930  21.174  0.00  0.00    +0.000 A 
ATOM     21  C   UNL     1      -1.426  11.511  20.134  0.00  0.00    +0.000 A 
ATOM     22  C   UNL     1      -2.108  12.710  20.354  0.00  0.00    +0.000 A 
ATOM     23  C   UNL     1      -2.068  13.364  21.567  0.00  0.00    +0.000 A 
ATOM     24  N   UNL     1      -2.869  14.432  21.770  0.00  0.00    +0.000 NA
ATOM     25  C   UNL     1      -2.744  15.064  22.956  0.00  0.00    +0.000 A 
ATOM     26  C   UNL     1      -1.770  14.718  23.862  0.00  0.00    +0.000 A 
ATOM     27  N   UNL     1      -1.011  13.601  23.714  0.00  0.00    +0.000 NA
ATOM     28  C   UNL     1      -1.202  12.875  22.574  0.00  0.00    +0.000 A 
ATOM     29  C   UNL     1      -0.579  11.647  22.393  0.00  0.00    +0.000 A 
ENDBRANCH  19  20
ENDBRANCH  16  18
ENDBRANCH   3  14
BRANCH   6  30
ATOM     30  C   UNL     1       4.289   2.264  19.772  0.00  0.00    +0.000 C 
ATOM     31  O   UNL     1       4.942   1.987  20.768  0.00  0.00    +0.000 OA
BRANCH  30  32
ATOM     32  O   UNL     1       4.112   1.381  18.769  0.00  0.00    +0.000 OA
ATOM     33  H   UNL     1       4.855   1.265  18.146  0.00  0.00    +0.000 HD
ENDBRANCH  30  32
ENDBRANCH   6  30
TORSDOF 6
ENDMDL
MODEL 8
REMARK VINA RESULT:      -8.5      5.728      8.901
REMARK  Name = 
REMARK  8 active torsions:
REMARK  status: ('A' for Active; 'I' for Inactive)
REMARK    1  A    between atoms: C_1  and  C_2
REMARK    2  A    between atoms: C_5  and  C_6
REMARK    3  A    between atoms: N_7  and  C_8
REMARK    4  A    between atoms: C_10  and  C_11
REMARK    5  A    between atoms: N_13  and  N_14
REMARK    6  A    between atoms: C_15  and  C_16
REMARK    7  A    between atoms: C_28  and  C_29
REMARK    8  A    between atoms: C_29  and  O_31
REMARK                            x       y       z     vdW  Elec       q    Type
REMARK                         _______ _______ _______ _____ _____    ______ ____
ROOT
ATOM      1  C   UNL     1       4.246   4.803  18.731  0.00  0.00    +0.000 A 
ATOM      2  C   UNL     1       3.598   6.057  18.926  0.00  0.00    +0.000 A 
ATOM      3  C   UNL     1       2.472   6.243  19.745  0.00  0.00    +0.000 A 
ATOM      4  C   UNL     1       1.867   5.112  20.264  0.00  0.00    +0.000 A 
ATOM      5  C   UNL     1       2.441   3.855  20.031  0.00  0.00    +0.000 A 
ATOM      6  C   UNL     1       3.654   3.680  19.325  0.00  0.00    +0.000 A 
ENDROOT
BRANCH   1  13
ATOM      7  C   UNL     1       7.227   5.584  19.730  0.00  0.00    +0.000 C 
ATOM      8  C   UNL     1       6.748   5.231  18.352  0.00  0.00    +0.000 A 
ATOM      9  C   UNL     1       7.563   5.207  17.233  0.00  0.00    +0.000 A 
ATOM     10  C   UNL     1       6.841   4.655  16.170  0.00  0.00    +0.000 A 
ATOM     11  C   UNL     1       5.568   4.376  16.621  0.00  0.00    +0.000 A 
ATOM     12  C   UNL     1       4.462   3.834  15.763  0.00  0.00    +0.000 C 
ATOM     13  N   UNL     1       5.468   4.786  17.969  0.00  0.00    +0.000 N 
ENDBRANCH   1  13
BRANCH   3  14
ATOM     14  C   UNL     1       1.969   7.649  19.983  0.00  0.00    +0.000 C 
ATOM     15  O   UNL     1       1.936   8.423  19.044  0.00  0.00    +0.000 OA
ATOM     16  N   UNL     1       1.631   7.968  21.299  0.00  0.00    +0.000 N 
ATOM     17  H   UNL     1       1.800   7.314  22.049  0.00  0.00    +0.000 HD
BRANCH  16  18
ATOM     18  N   UNL     1       1.236   9.249  21.629  0.00  0.00    +0.000 NA
ATOM     19  C   UNL     1      -0.027   9.415  21.909  0.00  0.00    +0.000 C 
BRANCH  19  20
ATOM     20  C   UNL     1      -0.603  10.739  22.271  0.00  0.00    +0.000 A 
ATOM     21  C   UNL     1       0.027  11.910  21.862  0.00  0.00    +0.000 A 
ATOM     22  C   UNL     1      -0.598  13.140  22.073  0.00  0.00    +0.000 A 
ATOM     23  C   UNL     1      -1.816  13.242  22.712  0.00  0.00    +0.000 A 
ATOM     24  N   UNL     1      -2.445  14.437  22.750  0.00  0.00    +0.000 NA
ATOM     25  C   UNL     1      -3.606  14.486  23.436  0.00  0.00    +0.000 A 
ATOM     26  C   UNL     1      -4.065  13.413  24.162  0.00  0.00    +0.000 A 
ATOM     27  N   UNL     1      -3.493  12.184  24.072  0.00  0.00    +0.000 NA
ATOM     28  C   UNL     1      -2.381  12.079  23.285  0.00  0.00    +0.000 A 
ATOM     29  C   UNL     1      -1.807  10.843  23.017  0.00  0.00    +0.000 A 
ENDBRANCH  19  20
ENDBRANCH  16  18
ENDBRANCH   3  14
BRANCH   6  30
ATOM     30  C   UNL     1       4.142   2.275  19.418  0.00  0.00    +0.000 C 
ATOM     31  O   UNL     1       3.561   1.369  18.839  0.00  0.00    +0.000 OA
BRANCH  30  32
ATOM     32  O   UNL     1       5.177   2.041  20.250  0.00  0.00    +0.000 OA
ATOM     33  H   UNL     1       5.847   1.398  19.950  0.00  0.00    +0.000 HD
ENDBRANCH  30  32
ENDBRANCH   6  30
TORSDOF 6
ENDMDL
MODEL 9
REMARK VINA RESULT:      -8.4      5.583      8.157
REMARK  Name = 
REMARK  8 active torsions:
REMARK  status: ('A' for Active; 'I' for Inactive)
REMARK    1  A    between atoms: C_1  and  C_2
REMARK    2  A    between atoms: C_5  and  C_6
REMARK    3  A    between atoms: N_7  and  C_8
REMARK    4  A    between atoms: C_10  and  C_11
REMARK    5  A    between atoms: N_13  and  N_14
REMARK    6  A    between atoms: C_15  and  C_16
REMARK    7  A    between atoms: C_28  and  C_29
REMARK    8  A    between atoms: C_29  and  O_31
REMARK                            x       y       z     vdW  Elec       q    Type
REMARK                         _______ _______ _______ _____ _____    ______ ____
ROOT
ATOM      1  C   UNL     1       4.252   4.752  18.552  0.00  0.00    +0.000 A 
ATOM      2  C   UNL     1       3.626   6.013  18.777  0.00  0.00    +0.000 A 
ATOM      3  C   UNL     1       2.518   6.203  19.619  0.00  0.00    +0.000 A 
ATOM      4  C   UNL     1       1.906   5.073  20.132  0.00  0.00    +0.000 A 
ATOM      5  C   UNL     1       2.457   3.811  19.871  0.00  0.00    +0.000 A 
ATOM      6  C   UNL     1       3.655   3.630  19.141  0.00  0.00    +0.000 A 
ENDROOT
BRANCH   1  13
ATOM      7  C   UNL     1       4.561   4.140  15.386  0.00  0.00    +0.000 C 
ATOM      8  C   UNL     1       5.626   4.352  16.422  0.00  0.00    +0.000 A 
ATOM      9  C   UNL     1       6.984   4.291  16.158  0.00  0.00    +0.000 A 
ATOM     10  C   UNL     1       7.677   4.724  17.293  0.00  0.00    +0.000 A 
ATOM     11  C   UNL     1       6.749   5.013  18.271  0.00  0.00    +0.000 A 
ATOM     12  C   UNL     1       7.093   5.447  19.668  0.00  0.00    +0.000 C 
ATOM     13  N   UNL     1       5.460   4.728  17.768  0.00  0.00    +0.000 N 
ENDBRANCH   1  13
BRANCH   3  14
ATOM     14  C   UNL     1       2.040   7.612  19.886  0.00  0.00    +0.000 C 
ATOM     15  O   UNL     1       1.966   8.389  18.952  0.00  0.00    +0.000 OA
ATOM     16  N   UNL     1       1.772   7.930  21.218  0.00  0.00    +0.000 N 
ATOM     17  H   UNL     1       1.972   7.271  21.957  0.00  0.00    +0.000 HD
BRANCH  16  18
ATOM     18  N   UNL     1       1.405   9.213  21.571  0.00  0.00    +0.000 NA
ATOM     19  C   UNL     1       0.129   9.430  21.733  0.00  0.00    +0.000 C 
BRANCH  19  20
ATOM     20  C   UNL     1      -0.419  10.763  22.103  0.00  0.00    +0.000 A 
ATOM     21  C   UNL     1      -1.417  10.866  23.067  0.00  0.00    +0.000 A 
ATOM     22  C   UNL     1      -1.815  12.126  23.516  0.00  0.00    +0.000 A 
ATOM     23  C   UNL     1      -1.273  13.290  23.010  0.00  0.00    +0.000 A 
ATOM     24  N   UNL     1      -1.581  14.470  23.590  0.00  0.00    +0.000 NA
ATOM     25  C   UNL     1      -1.065  15.577  23.015  0.00  0.00    +0.000 A 
ATOM     26  C   UNL     1      -0.365  15.521  21.833  0.00  0.00    +0.000 A 
ATOM     27  N   UNL     1       0.023  14.343  21.280  0.00  0.00    +0.000 NA
ATOM     28  C   UNL     1      -0.387  13.203  21.911  0.00  0.00    +0.000 A 
ATOM     29  C   UNL     1       0.072  11.956  21.506  0.00  0.00    +0.000 A 
ENDBRANCH  19  20
ENDBRANCH  16  18
ENDBRANCH   3  14
BRANCH   6  30
ATOM     30  C   UNL     1       4.123   2.216  19.205  0.00  0.00    +0.000 C 
ATOM     31  O   UNL     1       3.593   1.347  18.529  0.00  0.00    +0.000 OA
BRANCH  30  32
ATOM     32  O   UNL     1       5.077   1.928  20.115  0.00  0.00    +0.000 OA
ATOM     33  H   UNL     1       5.304   0.986  20.233  0.00  0.00    +0.000 HD
ENDBRANCH  30  32
ENDBRANCH   6  30
TORSDOF 6
ENDMDL
