MODEL 1
REMARK VINA RESULT:      -8.9      0.000      0.000
REMARK  Name = 
REMARK  6 active torsions:
REMARK  status: ('A' for Active; 'I' for Inactive)
REMARK    1  A    between atoms: C_2  and  C_27
REMARK    2  A    between atoms: N_3  and  C_4
REMARK    3  A    between atoms: C_10  and  C_11
REMARK    4  A    between atoms: N_14  and  C_15
REMARK    5  A    between atoms: C_15  and  C_16
REMARK    6  A    between atoms: C_16  and  N_17
REMARK                            x       y       z     vdW  Elec       q    Type
REMARK                         _______ _______ _______ _____ _____    ______ ____
ROOT
ATOM      1  C   UNL     1       2.176   7.068  19.647  0.00  0.00    +0.000 A 
ATOM      2  C   UNL     1       1.790   6.119  20.600  0.00  0.00    +0.000 A 
ATOM      3  C   UNL     1       2.370   4.840  20.653  0.00  0.00    +0.000 A 
ATOM      4  C   UNL     1       3.317   4.497  19.686  0.00  0.00    +0.000 A 
ATOM      5  N   UNL     1       4.017   3.337  19.508  0.00  0.00    +0.000 N 
ATOM      6  C   UNL     1       4.785   3.405  18.387  0.00  0.00    +0.000 A 
ATOM      7  C   UNL     1       4.590   4.637  17.775  0.00  0.00    +0.000 A 
ATOM      8  C   UNL     1       3.710   5.379  18.667  0.00  0.00    +0.000 A 
ATOM      9  C   UNL     1       3.162   6.696  18.704  0.00  0.00    +0.000 A 
ATOM     10  H   UNL     1       3.943   2.525  20.116  0.00  0.00    +0.000 HD
ENDROOT
BRANCH   7  11
ATOM     11  C   UNL     1       5.207   5.018  16.427  0.00  0.00    +0.000 C 
ATOM     12  C   UNL     1       6.683   4.676  16.243  0.00  0.00    +0.000 C 
ATOM     13  C   UNL     1       7.556   5.451  17.214  0.00  0.00    +0.000 C 
ATOM     14  N   UNL     1       7.407   6.908  17.091  0.00  0.00    +0.000 NA
ATOM     15  C   UNL     1       6.010   7.370  17.042  0.00  0.00    +0.000 C 
ATOM     16  C   UNL     1       5.104   6.532  16.125  0.00  0.00    +0.000 C 
BRANCH  14  17
ATOM     17  C   UNL     1       8.132   7.575  18.198  0.00  0.00    +0.000 C 
BRANCH  17  18
ATOM     18  C   UNL     1       8.095   9.119  18.075  0.00  0.00    +0.000 C 
BRANCH  18  19
ATOM     19  N   UNL     1       9.270   9.820  18.628  0.00  0.00    +0.000 NA
ATOM     20  C   UNL     1       9.703  10.915  17.745  0.00  0.00    +0.000 C 
ATOM     21  C   UNL     1      10.892  11.677  18.318  0.00  0.00    +0.000 C 
ATOM     22  C   UNL     1      10.573  12.218  19.702  0.00  0.00    +0.000 C 
ATOM     23  C   UNL     1      10.099  11.078  20.592  0.00  0.00    +0.000 C 
ATOM     24  C   UNL     1       8.929  10.318  19.975  0.00  0.00    +0.000 C 
ENDBRANCH  18  19
ENDBRANCH  17  18
ENDBRANCH  14  17
ENDBRANCH   7  11
BRANCH   1  27
ATOM     25  O   UNL     1       2.189   8.966  17.375  0.00  0.00    +0.000 OA
ATOM     26  C   UNL     1       1.688   9.233  18.463  0.00  0.00    +0.000 C 
ATOM     27  N   UNL     1       1.624   8.380  19.558  0.00  0.00    +0.000 N 
ATOM     28  H   UNL     1       1.109   8.693  20.370  0.00  0.00    +0.000 HD
BRANCH  26  29
ATOM     29  C   UNL     1       1.086  10.600  18.590  0.00  0.00    +0.000 A 
ATOM     30  C   UNL     1      -0.307  10.694  18.787  0.00  0.00    +0.000 A 
ATOM     31  C   UNL     1      -0.948  11.936  18.829  0.00  0.00    +0.000 A 
ATOM     32  C   UNL     1      -0.200  13.092  18.660  0.00  0.00    +0.000 A 
ATOM     33  F   UNL     1      -0.804  14.286  18.713  0.00  0.00    +0.000 F 
ATOM     34  C   UNL     1       1.175  13.023  18.439  0.00  0.00    +0.000 A 
ATOM     35  C   UNL     1       1.823  11.778  18.404  0.00  0.00    +0.000 A 
ENDBRANCH  26  29
ENDBRANCH   1  27
TORSDOF 6
ENDMDL
MODEL 2
REMARK VINA RESULT:      -8.8      0.937      1.250
REMARK  Name = 
REMARK  6 active torsions:
REMARK  status: ('A' for Active; 'I' for Inactive)
REMARK    1  A    between atoms: C_2  and  C_27
REMARK    2  A    between atoms: N_3  and  C_4
REMARK    3  A    between atoms: C_10  and  C_11
REMARK    4  A    between atoms: N_14  and  C_15
REMARK    5  A    between atoms: C_15  and  C_16
REMARK    6  A    between atoms: C_16  and  N_17
REMARK                            x       y       z     vdW  Elec       q    Type
REMARK                         _______ _______ _______ _____ _____    ______ ____
ROOT
ATOM      1  C   UNL     1       2.169   7.382  19.276  0.00  0.00    +0.000 A 
ATOM      2  C   UNL     1       1.685   6.598  20.329  0.00  0.00    +0.000 A 
ATOM      3  C   UNL     1       2.190   5.313  20.592  0.00  0.00    +0.000 A 
ATOM      4  C   UNL     1       3.160   4.790  19.735  0.00  0.00    +0.000 A 
ATOM      5  N   UNL     1       3.802   3.584  19.760  0.00  0.00    +0.000 N 
ATOM      6  C   UNL     1       4.625   3.455  18.684  0.00  0.00    +0.000 A 
ATOM      7  C   UNL     1       4.529   4.595  17.897  0.00  0.00    +0.000 A 
ATOM      8  C   UNL     1       3.651   5.498  18.627  0.00  0.00    +0.000 A 
ATOM      9  C   UNL     1       3.176   6.832  18.449  0.00  0.00    +0.000 A 
ATOM     10  H   UNL     1       3.655   2.872  20.470  0.00  0.00    +0.000 HD
ENDROOT
BRANCH   7  11
ATOM     11  C   UNL     1       5.230   4.750  16.545  0.00  0.00    +0.000 C 
ATOM     12  C   UNL     1       6.715   4.397  16.513  0.00  0.00    +0.000 C 
ATOM     13  C   UNL     1       7.525   5.334  17.392  0.00  0.00    +0.000 C 
ATOM     14  N   UNL     1       7.384   6.748  17.015  0.00  0.00    +0.000 NA
ATOM     15  C   UNL     1       5.993   7.180  16.802  0.00  0.00    +0.000 C 
ATOM     16  C   UNL     1       5.146   6.191  15.986  0.00  0.00    +0.000 C 
BRANCH  14  17
ATOM     17  C   UNL     1       8.037   7.600  18.037  0.00  0.00    +0.000 C 
BRANCH  17  18
ATOM     18  C   UNL     1       7.735   9.105  17.824  0.00  0.00    +0.000 C 
BRANCH  18  19
ATOM     19  N   UNL     1       8.860  10.016  18.107  0.00  0.00    +0.000 NA
ATOM     20  C   UNL     1       8.563  11.386  17.659  0.00  0.00    +0.000 C 
ATOM     21  C   UNL     1       9.699  12.352  17.976  0.00  0.00    +0.000 C 
ATOM     22  C   UNL     1      10.014  12.346  19.463  0.00  0.00    +0.000 C 
ATOM     23  C   UNL     1      10.290  10.919  19.914  0.00  0.00    +0.000 C 
ATOM     24  C   UNL     1       9.149   9.974  19.553  0.00  0.00    +0.000 C 
ENDBRANCH  18  19
ENDBRANCH  17  18
ENDBRANCH  14  17
ENDBRANCH   7  11
BRANCH   1  27
ATOM     25  O   UNL     1       0.756   9.320  21.012  0.00  0.00    +0.000 OA
ATOM     26  C   UNL     1       1.013   9.546  19.834  0.00  0.00    +0.000 C 
ATOM     27  N   UNL     1       1.696   8.693  18.975  0.00  0.00    +0.000 N 
ATOM     28  H   UNL     1       1.916   9.035  18.049  0.00  0.00    +0.000 HD
BRANCH  26  29
ATOM     29  C   UNL     1       0.553  10.871  19.305  0.00  0.00    +0.000 A 
ATOM     30  C   UNL     1       1.515  11.890  19.145  0.00  0.00    +0.000 A 
ATOM     31  C   UNL     1       1.144  13.175  18.737  0.00  0.00    +0.000 A 
ATOM     32  C   UNL     1      -0.195  13.452  18.500  0.00  0.00    +0.000 A 
ATOM     33  F   UNL     1      -0.557  14.676  18.096  0.00  0.00    +0.000 F 
ATOM     34  C   UNL     1      -1.166  12.467  18.675  0.00  0.00    +0.000 A 
ATOM     35  C   UNL     1      -0.797  11.174  19.078  0.00  0.00    +0.000 A 
ENDBRANCH  26  29
ENDBRANCH   1  27
TORSDOF 6
ENDMDL
MODEL 3
REMARK VINA RESULT:      -8.7      1.329      1.520
REMARK  Name = 
REMARK  6 active torsions:
REMARK  status: ('A' for Active; 'I' for Inactive)
REMARK    1  A    between atoms: C_2  and  C_27
REMARK    2  A    between atoms: N_3  and  C_4
REMARK    3  A    between atoms: C_10  and  C_11
REMARK    4  A    between atoms: N_14  and  C_15
REMARK    5  A    between atoms: C_15  and  C_16
REMARK    6  A    between atoms: C_16  and  N_17
REMARK                            x       y       z     vdW  Elec       q    Type
REMARK                         _______ _______ _______ _____ _____    ______ ____
ROOT
ATOM      1  C   UNL     1       2.026   6.881  19.779  0.00  0.00    +0.000 A 
ATOM      2  C   UNL     1       1.787   5.867  20.714  0.00  0.00    +0.000 A 
ATOM      3  C   UNL     1       2.516   4.666  20.711  0.00  0.00    +0.000 A 
ATOM      4  C   UNL     1       3.464   4.464  19.707  0.00  0.00    +0.000 A 
ATOM      5  N   UNL     1       4.291   3.401  19.473  0.00  0.00    +0.000 N 
ATOM      6  C   UNL     1       5.008   3.591  18.333  0.00  0.00    +0.000 A 
ATOM      7  C   UNL     1       4.649   4.806  17.764  0.00  0.00    +0.000 A 
ATOM      8  C   UNL     1       3.717   5.413  18.704  0.00  0.00    +0.000 A 
ATOM      9  C   UNL     1       3.017   6.654  18.796  0.00  0.00    +0.000 A 
ATOM     10  H   UNL     1       4.335   2.571  20.058  0.00  0.00    +0.000 HD
ENDROOT
BRANCH   7  11
ATOM     11  C   UNL     1       5.172   5.294  16.412  0.00  0.00    +0.000 C 
ATOM     12  C   UNL     1       6.649   5.034  16.128  0.00  0.00    +0.000 C 
ATOM     13  C   UNL     1       7.540   5.793  17.096  0.00  0.00    +0.000 C 
ATOM     14  N   UNL     1       7.318   7.246  17.070  0.00  0.00    +0.000 NA
ATOM     15  C   UNL     1       5.902   7.642  17.123  0.00  0.00    +0.000 C 
ATOM     16  C   UNL     1       4.984   6.816  16.207  0.00  0.00    +0.000 C 
BRANCH  14  17
ATOM     17  C   UNL     1       8.073   7.881  18.175  0.00  0.00    +0.000 C 
BRANCH  17  18
ATOM     18  C   UNL     1       8.212   9.413  17.984  0.00  0.00    +0.000 C 
BRANCH  18  19
ATOM     19  N   UNL     1       9.383  10.024  18.641  0.00  0.00    +0.000 NA
ATOM     20  C   UNL     1      10.018  11.030  17.775  0.00  0.00    +0.000 C 
ATOM     21  C   UNL     1      11.207  11.701  18.452  0.00  0.00    +0.000 C 
ATOM     22  C   UNL     1      10.794  12.333  19.771  0.00  0.00    +0.000 C 
ATOM     23  C   UNL     1      10.115  11.286  20.641  0.00  0.00    +0.000 C 
ATOM     24  C   UNL     1       8.949  10.612  19.922  0.00  0.00    +0.000 C 
ENDBRANCH  18  19
ENDBRANCH  17  18
ENDBRANCH  14  17
ENDBRANCH   7  11
BRANCH   1  27
ATOM     25  O   UNL     1       1.342   8.719  21.997  0.00  0.00    +0.000 OA
ATOM     26  C   UNL     1       1.007   8.924  20.834  0.00  0.00    +0.000 C 
ATOM     27  N   UNL     1       1.319   8.119  19.745  0.00  0.00    +0.000 N 
ATOM     28  H   UNL     1       1.053   8.445  18.826  0.00  0.00    +0.000 HD
BRANCH  26  29
ATOM     29  C   UNL     1       0.207  10.169  20.592  0.00  0.00    +0.000 A 
ATOM     30  C   UNL     1      -0.092  10.989  21.699  0.00  0.00    +0.000 A 
ATOM     31  C   UNL     1      -0.905  12.119  21.561  0.00  0.00    +0.000 A 
ATOM     32  C   UNL     1      -1.435  12.426  20.316  0.00  0.00    +0.000 A 
ATOM     33  F   UNL     1      -2.203  13.514  20.173  0.00  0.00    +0.000 F 
ATOM     34  C   UNL     1      -1.173  11.616  19.213  0.00  0.00    +0.000 A 
ATOM     35  C   UNL     1      -0.352  10.485  19.345  0.00  0.00    +0.000 A 
ENDBRANCH  26  29
ENDBRANCH   1  27
TORSDOF 6
ENDMDL
MODEL 4
REMARK VINA RESULT:      -8.6      4.712      9.392
REMARK  Name = 
REMARK  6 active torsions:
REMARK  status: ('A' for Active; 'I' for Inactive)
REMARK    1  A    between atoms: C_2  and  C_27
REMARK    2  A    between atoms: N_3  and  C_4
REMARK    3  A    between atoms: C_10  and  C_11
REMARK    4  A    between atoms: N_14  and  C_15
REMARK    5  A    between atoms: C_15  and  C_16
REMARK    6  A    between atoms: C_16  and  N_17
REMARK                            x       y       z     vdW  Elec       q    Type
REMARK                         _______ _______ _______ _____ _____    ______ ____
ROOT
ATOM      1  C   UNL     1       3.706   5.594  17.869  0.00  0.00    +0.000 A 
ATOM      2  C   UNL     1       3.785   4.996  19.132  0.00  0.00    +0.000 A 
ATOM      3  C   UNL     1       3.116   5.525  20.248  0.00  0.00    +0.000 A 
ATOM      4  C   UNL     1       2.402   6.715  20.095  0.00  0.00    +0.000 A 
ATOM      5  N   UNL     1       1.680   7.435  21.005  0.00  0.00    +0.000 N 
ATOM      6  C   UNL     1       1.206   8.581  20.445  0.00  0.00    +0.000 A 
ATOM      7  C   UNL     1       1.630   8.653  19.124  0.00  0.00    +0.000 A 
ATOM      8  C   UNL     1       2.326   7.399  18.872  0.00  0.00    +0.000 A 
ATOM      9  C   UNL     1       2.946   6.780  17.745  0.00  0.00    +0.000 A 
ATOM     10  H   UNL     1       1.548   7.162  21.975  0.00  0.00    +0.000 HD
ENDROOT
BRANCH   7  11
ATOM     11  C   UNL     1       1.378   9.861  18.221  0.00  0.00    +0.000 C 
ATOM     12  C   UNL     1       1.716  11.227  18.814  0.00  0.00    +0.000 C 
ATOM     13  C   UNL     1       0.834  11.544  20.008  0.00  0.00    +0.000 C 
ATOM     14  N   UNL     1      -0.601  11.528  19.690  0.00  0.00    +0.000 NA
ATOM     15  C   UNL     1      -1.035  10.350  18.922  0.00  0.00    +0.000 C 
ATOM     16  C   UNL     1      -0.096   9.975  17.764  0.00  0.00    +0.000 C 
BRANCH  14  17
ATOM     17  C   UNL     1      -1.386  11.645  20.942  0.00  0.00    +0.000 C 
BRANCH  17  18
ATOM     18  C   UNL     1      -0.585  12.342  22.071  0.00  0.00    +0.000 C 
BRANCH  18  19
ATOM     19  N   UNL     1      -1.386  12.777  23.231  0.00  0.00    +0.000 NA
ATOM     20  C   UNL     1      -1.271  14.228  23.447  0.00  0.00    +0.000 C 
ATOM     21  C   UNL     1      -2.122  14.703  24.619  0.00  0.00    +0.000 C 
ATOM     22  C   UNL     1      -3.579  14.319  24.420  0.00  0.00    +0.000 C 
ATOM     23  C   UNL     1      -3.677  12.821  24.170  0.00  0.00    +0.000 C 
ATOM     24  C   UNL     1      -2.789  12.375  23.011  0.00  0.00    +0.000 C 
ENDBRANCH  18  19
ENDBRANCH  17  18
ENDBRANCH  14  17
ENDBRANCH   7  11
BRANCH   1  27
ATOM     25  O   UNL     1       6.167   6.550  16.529  0.00  0.00    +0.000 OA
ATOM     26  C   UNL     1       5.504   5.606  16.110  0.00  0.00    +0.000 C 
ATOM     27  N   UNL     1       4.359   5.091  16.705  0.00  0.00    +0.000 N 
ATOM     28  H   UNL     1       3.953   4.256  16.304  0.00  0.00    +0.000 HD
BRANCH  26  29
ATOM     29  C   UNL     1       6.005   4.959  14.853  0.00  0.00    +0.000 A 
ATOM     30  C   UNL     1       7.229   5.410  14.319  0.00  0.00    +0.000 A 
ATOM     31  C   UNL     1       7.714   4.912  13.106  0.00  0.00    +0.000 A 
ATOM     32  C   UNL     1       6.969   3.969  12.413  0.00  0.00    +0.000 A 
ATOM     33  F   UNL     1       7.434   3.477  11.257  0.00  0.00    +0.000 F 
ATOM     34  C   UNL     1       5.744   3.526  12.910  0.00  0.00    +0.000 A 
ATOM     35  C   UNL     1       5.257   4.018  14.130  0.00  0.00    +0.000 A 
ENDBRANCH  26  29
ENDBRANCH   1  27
TORSDOF 6
ENDMDL
MODEL 5
REMARK VINA RESULT:      -8.4      4.738      9.513
REMARK  Name = 
REMARK  6 active torsions:
REMARK  status: ('A' for Active; 'I' for Inactive)
REMARK    1  A    between atoms: C_2  and  C_27
REMARK    2  A    between atoms: N_3  and  C_4
REMARK    3  A    between atoms: C_10  and  C_11
REMARK    4  A    between atoms: N_14  and  C_15
REMARK    5  A    between atoms: C_15  and  C_16
REMARK    6  A    between atoms: C_16  and  N_17
REMARK                            x       y       z     vdW  Elec       q    Type
REMARK                         _______ _______ _______ _____ _____    ______ ____
ROOT
ATOM      1  C   UNL     1       3.843   5.539  17.754  0.00  0.00    +0.000 A 
ATOM      2  C   UNL     1       3.981   5.002  19.039  0.00  0.00    +0.000 A 
ATOM      3  C   UNL     1       3.305   5.541  20.146  0.00  0.00    +0.000 A 
ATOM      4  C   UNL     1       2.521   6.682  19.958  0.00  0.00    +0.000 A 
ATOM      5  N   UNL     1       1.778   7.400  20.852  0.00  0.00    +0.000 N 
ATOM      6  C   UNL     1       1.228   8.492  20.255  0.00  0.00    +0.000 A 
ATOM      7  C   UNL     1       1.622   8.529  18.923  0.00  0.00    +0.000 A 
ATOM      8  C   UNL     1       2.383   7.306  18.709  0.00  0.00    +0.000 A 
ATOM      9  C   UNL     1       3.015   6.674  17.596  0.00  0.00    +0.000 A 
ATOM     10  H   UNL     1       1.680   7.163  21.836  0.00  0.00    +0.000 HD
ENDROOT
BRANCH   7  11
ATOM     11  C   UNL     1       1.284   9.681  17.974  0.00  0.00    +0.000 C 
ATOM     12  C   UNL     1       2.051  10.982  18.196  0.00  0.00    +0.000 C 
ATOM     13  C   UNL     1       1.729  11.590  19.549  0.00  0.00    +0.000 C 
ATOM     14  N   UNL     1       0.297  11.868  19.733  0.00  0.00    +0.000 NA
ATOM     15  C   UNL     1      -0.588  10.756  19.351  0.00  0.00    +0.000 C 
ATOM     16  C   UNL     1      -0.210  10.082  18.022  0.00  0.00    +0.000 C 
BRANCH  14  17
ATOM     17  C   UNL     1       0.048  12.266  21.139  0.00  0.00    +0.000 C 
BRANCH  17  18
ATOM     18  C   UNL     1      -1.223  11.595  21.720  0.00  0.00    +0.000 C 
BRANCH  18  19
ATOM     19  N   UNL     1      -2.270  12.527  22.179  0.00  0.00    +0.000 NA
ATOM     20  C   UNL     1      -3.298  12.727  21.145  0.00  0.00    +0.000 C 
ATOM     21  C   UNL     1      -4.410  13.657  21.615  0.00  0.00    +0.000 C 
ATOM     22  C   UNL     1      -5.049  13.136  22.892  0.00  0.00    +0.000 C 
ATOM     23  C   UNL     1      -3.968  12.908  23.939  0.00  0.00    +0.000 C 
ATOM     24  C   UNL     1      -2.856  11.999  23.426  0.00  0.00    +0.000 C 
ENDBRANCH  18  19
ENDBRANCH  17  18
ENDBRANCH  14  17
ENDBRANCH   7  11
BRANCH   1  27
ATOM     25  O   UNL     1       6.007   6.736  16.126  0.00  0.00    +0.000 OA
ATOM     26  C   UNL     1       5.497   5.652  15.862  0.00  0.00    +0.000 C 
ATOM     27  N   UNL     1       4.501   5.022  16.599  0.00  0.00    +0.000 N 
ATOM     28  H   UNL     1       4.226   4.090  16.320  0.00  0.00    +0.000 HD
BRANCH  26  29
ATOM     29  C   UNL     1       6.025   4.958  14.642  0.00  0.00    +0.000 A 
ATOM     30  C   UNL     1       7.266   5.382  14.125  0.00  0.00    +0.000 A 
ATOM     31  C   UNL     1       7.779   4.838  12.942  0.00  0.00    +0.000 A 
ATOM     32  C   UNL     1       7.044   3.877  12.263  0.00  0.00    +0.000 A 
ATOM     33  F   UNL     1       7.534   3.342  11.137  0.00  0.00    +0.000 F 
ATOM     34  C   UNL     1       5.803   3.462  12.742  0.00  0.00    +0.000 A 
ATOM     35  C   UNL     1       5.288   3.999  13.932  0.00  0.00    +0.000 A 
ENDBRANCH  26  29
ENDBRANCH   1  27
TORSDOF 6
ENDMDL
MODEL 6
REMARK VINA RESULT:      -8.4      3.266      5.920
REMARK  Name = 
REMARK  6 active torsions:
REMARK  status: ('A' for Active; 'I' for Inactive)
REMARK    1  A    between atoms: C_2  and  C_27
REMARK    2  A    between atoms: N_3  and  C_4
REMARK    3  A    between atoms: C_10  and  C_11
REMARK    4  A    between atoms: N_14  and  C_15
REMARK    5  A    between atoms: C_15  and  C_16
REMARK    6  A    between atoms: C_16  and  N_17
REMARK                            x       y       z     vdW  Elec       q    Type
REMARK                         _______ _______ _______ _____ _____    ______ ____
ROOT
ATOM      1  C   UNL     1       1.856   5.836  20.491  0.00  0.00    +0.000 A 
ATOM      2  C   UNL     1       1.164   4.645  20.242  0.00  0.00    +0.000 A 
ATOM      3  C   UNL     1       1.799   3.513  19.705  0.00  0.00    +0.000 A 
ATOM      4  C   UNL     1       3.148   3.608  19.358  0.00  0.00    +0.000 A 
ATOM      5  N   UNL     1       3.989   2.675  18.819  0.00  0.00    +0.000 N 
ATOM      6  C   UNL     1       5.212   3.217  18.569  0.00  0.00    +0.000 A 
ATOM      7  C   UNL     1       5.199   4.558  18.930  0.00  0.00    +0.000 A 
ATOM      8  C   UNL     1       3.891   4.787  19.527  0.00  0.00    +0.000 A 
ATOM      9  C   UNL     1       3.230   5.884  20.158  0.00  0.00    +0.000 A 
ATOM     10  H   UNL     1       3.721   1.718  18.607  0.00  0.00    +0.000 HD
ENDROOT
BRANCH   7  11
ATOM     11  C   UNL     1       6.371   5.511  18.682  0.00  0.00    +0.000 C 
ATOM     12  C   UNL     1       6.048   6.787  17.908  0.00  0.00    +0.000 C 
ATOM     13  C   UNL     1       5.598   6.475  16.492  0.00  0.00    +0.000 C 
ATOM     14  N   UNL     1       6.591   5.713  15.722  0.00  0.00    +0.000 NA
ATOM     15  C   UNL     1       7.154   4.557  16.439  0.00  0.00    +0.000 C 
ATOM     16  C   UNL     1       7.530   4.848  17.901  0.00  0.00    +0.000 C 
BRANCH  14  17
ATOM     17  C   UNL     1       5.995   5.281  14.436  0.00  0.00    +0.000 C 
BRANCH  17  18
ATOM     18  C   UNL     1       6.770   4.100  13.800  0.00  0.00    +0.000 C 
BRANCH  18  19
ATOM     19  N   UNL     1       6.250   3.636  12.499  0.00  0.00    +0.000 NA
ATOM     20  C   UNL     1       6.767   2.300  12.163  0.00  0.00    +0.000 C 
ATOM     21  C   UNL     1       6.210   1.787  10.839  0.00  0.00    +0.000 C 
ATOM     22  C   UNL     1       4.691   1.768  10.862  0.00  0.00    +0.000 C 
ATOM     23  C   UNL     1       4.175   3.150  11.240  0.00  0.00    +0.000 C 
ATOM     24  C   UNL     1       4.776   3.646  12.552  0.00  0.00    +0.000 C 
ENDBRANCH  18  19
ENDBRANCH  17  18
ENDBRANCH  14  17
ENDBRANCH   7  11
BRANCH   1  27
ATOM     25  O   UNL     1       1.705   8.575  19.378  0.00  0.00    +0.000 OA
ATOM     26  C   UNL     1       1.246   8.276  20.476  0.00  0.00    +0.000 C 
ATOM     27  N   UNL     1       1.258   7.007  21.043  0.00  0.00    +0.000 N 
ATOM     28  H   UNL     1       0.771   6.877  21.919  0.00  0.00    +0.000 HD
BRANCH  26  29
ATOM     29  C   UNL     1       0.606   9.392  21.245  0.00  0.00    +0.000 A 
ATOM     30  C   UNL     1      -0.082   9.068  22.433  0.00  0.00    +0.000 A 
ATOM     31  C   UNL     1      -0.774  10.045  23.156  0.00  0.00    +0.000 A 
ATOM     32  C   UNL     1      -0.793  11.351  22.686  0.00  0.00    +0.000 A 
ATOM     33  F   UNL     1      -1.442  12.295  23.379  0.00  0.00    +0.000 F 
ATOM     34  C   UNL     1      -0.141  11.689  21.501  0.00  0.00    +0.000 A 
ATOM     35  C   UNL     1       0.560  10.713  20.776  0.00  0.00    +0.000 A 
ENDBRANCH  26  29
ENDBRANCH   1  27
TORSDOF 6
ENDMDL
MODEL 7
REMARK VINA RESULT:      -8.4      1.138      1.373
REMARK  Name = 
REMARK  6 active torsions:
REMARK  status: ('A' for Active; 'I' for Inactive)
REMARK    1  A    between atoms: C_2  and  C_27
REMARK    2  A    between atoms: N_3  and  C_4
REMARK    3  A    between atoms: C_10  and  C_11
REMARK    4  A    between atoms: N_14  and  C_15
REMARK    5  A    between atoms: C_15  and  C_16
REMARK    6  A    between atoms: C_16  and  N_17
REMARK                            x       y       z     vdW  Elec       q    Type
REMARK                         _______ _______ _______ _____ _____    ______ ____
ROOT
ATOM      1  C   UNL     1       2.211   6.901  19.614  0.00  0.00    +0.000 A 
ATOM      2  C   UNL     1       1.818   6.027  20.634  0.00  0.00    +0.000 A 
ATOM      3  C   UNL     1       2.400   4.758  20.790  0.00  0.00    +0.000 A 
ATOM      4  C   UNL     1       3.355   4.343  19.860  0.00  0.00    +0.000 A 
ATOM      5  N   UNL     1       4.059   3.174  19.778  0.00  0.00    +0.000 N 
ATOM      6  C   UNL     1       4.836   3.158  18.661  0.00  0.00    +0.000 A 
ATOM      7  C   UNL     1       4.645   4.339  17.955  0.00  0.00    +0.000 A 
ATOM      8  C   UNL     1       3.756   5.145  18.780  0.00  0.00    +0.000 A 
ATOM      9  C   UNL     1       3.205   6.460  18.711  0.00  0.00    +0.000 A 
ATOM     10  H   UNL     1       3.981   2.412  20.446  0.00  0.00    +0.000 HD
ENDROOT
BRANCH   7  11
ATOM     11  C   UNL     1       5.273   4.617  16.588  0.00  0.00    +0.000 C 
ATOM     12  C   UNL     1       6.787   4.444  16.495  0.00  0.00    +0.000 C 
ATOM     13  C   UNL     1       7.513   5.443  17.378  0.00  0.00    +0.000 C 
ATOM     14  N   UNL     1       7.193   6.841  17.055  0.00  0.00    +0.000 NA
ATOM     15  C   UNL     1       5.754   7.111  16.902  0.00  0.00    +0.000 C 
ATOM     16  C   UNL     1       5.000   6.053  16.081  0.00  0.00    +0.000 C 
BRANCH  14  17
ATOM     17  C   UNL     1       7.779   7.732  18.084  0.00  0.00    +0.000 C 
BRANCH  17  18
ATOM     18  C   UNL     1       8.186   9.109  17.500  0.00  0.00    +0.000 C 
BRANCH  18  19
ATOM     19  N   UNL     1       8.364  10.184  18.495  0.00  0.00    +0.000 NA
ATOM     20  C   UNL     1       9.266   9.764  19.580  0.00  0.00    +0.000 C 
ATOM     21  C   UNL     1       9.493  10.875  20.599  0.00  0.00    +0.000 C 
ATOM     22  C   UNL     1      10.034  12.125  19.925  0.00  0.00    +0.000 C 
ATOM     23  C   UNL     1       9.105  12.528  18.789  0.00  0.00    +0.000 C 
ATOM     24  C   UNL     1       8.874  11.384  17.805  0.00  0.00    +0.000 C 
ENDBRANCH  18  19
ENDBRANCH  17  18
ENDBRANCH  14  17
ENDBRANCH   7  11
BRANCH   1  27
ATOM     25  O   UNL     1       1.248   8.856  21.618  0.00  0.00    +0.000 OA
ATOM     26  C   UNL     1       1.198   9.062  20.409  0.00  0.00    +0.000 C 
ATOM     27  N   UNL     1       1.657   8.201  19.420  0.00  0.00    +0.000 N 
ATOM     28  H   UNL     1       1.634   8.527  18.463  0.00  0.00    +0.000 HD
BRANCH  26  29
ATOM     29  C   UNL     1       0.600  10.372  19.991  0.00  0.00    +0.000 A 
ATOM     30  C   UNL     1      -0.357  10.362  18.955  0.00  0.00    +0.000 A 
ATOM     31  C   UNL     1      -0.893  11.554  18.457  0.00  0.00    +0.000 A 
ATOM     32  C   UNL     1      -0.463  12.764  18.982  0.00  0.00    +0.000 A 
ATOM     33  F   UNL     1      -0.981  13.908  18.519  0.00  0.00    +0.000 F 
ATOM     34  C   UNL     1       0.501  12.798  19.989  0.00  0.00    +0.000 A 
ATOM     35  C   UNL     1       1.036  11.605  20.497  0.00  0.00    +0.000 A 
ENDBRANCH  26  29
ENDBRANCH   1  27
TORSDOF 6
ENDMDL
MODEL 8
REMARK VINA RESULT:      -8.3      4.723      9.458
REMARK  Name = 
REMARK  6 active torsions:
REMARK  status: ('A' for Active; 'I' for Inactive)
REMARK    1  A    between atoms: C_2  and  C_27
REMARK    2  A    between atoms: N_3  and  C_4
REMARK    3  A    between atoms: C_10  and  C_11
REMARK    4  A    between atoms: N_14  and  C_15
REMARK    5  A    between atoms: C_15  and  C_16
REMARK    6  A    between atoms: C_16  and  N_17
REMARK                            x       y       z     vdW  Elec       q    Type
REMARK                         _______ _______ _______ _____ _____    ______ ____
ROOT
ATOM      1  C   UNL     1       3.822   5.706  17.668  0.00  0.00    +0.000 A 
ATOM      2  C   UNL     1       3.971   5.096  18.918  0.00  0.00    +0.000 A 
ATOM      3  C   UNL     1       3.314   5.575  20.063  0.00  0.00    +0.000 A 
ATOM      4  C   UNL     1       2.538   6.731  19.952  0.00  0.00    +0.000 A 
ATOM      5  N   UNL     1       1.812   7.402  20.895  0.00  0.00    +0.000 N 
ATOM      6  C   UNL     1       1.265   8.531  20.369  0.00  0.00    +0.000 A 
ATOM      7  C   UNL     1       1.641   8.642  19.036  0.00  0.00    +0.000 A 
ATOM      8  C   UNL     1       2.389   7.428  18.742  0.00  0.00    +0.000 A 
ATOM      9  C   UNL     1       3.002   6.856  17.587  0.00  0.00    +0.000 A 
ATOM     10  H   UNL     1       1.725   7.109  21.865  0.00  0.00    +0.000 HD
ENDROOT
BRANCH   7  11
ATOM     11  C   UNL     1       1.302   9.849  18.160  0.00  0.00    +0.000 C 
ATOM     12  C   UNL     1       1.724  11.213  18.700  0.00  0.00    +0.000 C 
ATOM     13  C   UNL     1       0.992  11.549  19.987  0.00  0.00    +0.000 C 
ATOM     14  N   UNL     1      -0.470  11.550  19.839  0.00  0.00    +0.000 NA
ATOM     15  C   UNL     1      -1.007  10.375  19.134  0.00  0.00    +0.000 C 
ATOM     16  C   UNL     1      -0.214   9.981  17.878  0.00  0.00    +0.000 C 
BRANCH  14  17
ATOM     17  C   UNL     1      -1.102  11.685  21.173  0.00  0.00    +0.000 C 
BRANCH  17  18
ATOM     18  C   UNL     1      -2.396  12.537  21.123  0.00  0.00    +0.000 C 
BRANCH  18  19
ATOM     19  N   UNL     1      -2.459  13.639  22.101  0.00  0.00    +0.000 NA
ATOM     20  C   UNL     1      -3.750  13.652  22.809  0.00  0.00    +0.000 C 
ATOM     21  C   UNL     1      -3.821  14.760  23.852  0.00  0.00    +0.000 C 
ATOM     22  C   UNL     1      -2.681  14.638  24.850  0.00  0.00    +0.000 C 
ATOM     23  C   UNL     1      -1.357  14.598  24.100  0.00  0.00    +0.000 C 
ATOM     24  C   UNL     1      -1.332  13.499  23.042  0.00  0.00    +0.000 C 
ENDBRANCH  18  19
ENDBRANCH  17  18
ENDBRANCH  14  17
ENDBRANCH   7  11
BRANCH   1  27
ATOM     25  O   UNL     1       6.401   6.541  16.478  0.00  0.00    +0.000 OA
ATOM     26  C   UNL     1       5.666   5.707  15.957  0.00  0.00    +0.000 C 
ATOM     27  N   UNL     1       4.460   5.252  16.476  0.00  0.00    +0.000 N 
ATOM     28  H   UNL     1       3.991   4.501  15.989  0.00  0.00    +0.000 HD
BRANCH  26  29
ATOM     29  C   UNL     1       6.142   5.134  14.656  0.00  0.00    +0.000 A 
ATOM     30  C   UNL     1       5.381   4.102  14.070  0.00  0.00    +0.000 A 
ATOM     31  C   UNL     1       5.811   3.463  12.902  0.00  0.00    +0.000 A 
ATOM     32  C   UNL     1       7.013   3.844  12.323  0.00  0.00    +0.000 A 
ATOM     33  F   UNL     1       7.424   3.246  11.197  0.00  0.00    +0.000 F 
ATOM     34  C   UNL     1       7.793   4.844  12.899  0.00  0.00    +0.000 A 
ATOM     35  C   UNL     1       7.363   5.493  14.067  0.00  0.00    +0.000 A 
ENDBRANCH  26  29
ENDBRANCH   1  27
TORSDOF 6
ENDMDL
MODEL 9
REMARK VINA RESULT:      -8.2      4.732      9.786
REMARK  Name = 
REMARK  6 active torsions:
REMARK  status: ('A' for Active; 'I' for Inactive)
REMARK    1  A    between atoms: C_2  and  C_27
REMARK    2  A    between atoms: N_3  and  C_4
REMARK    3  A    between atoms: C_10  and  C_11
REMARK    4  A    between atoms: N_14  and  C_15
REMARK    5  A    between atoms: C_15  and  C_16
REMARK    6  A    between atoms: C_16  and  N_17
REMARK                            x       y       z     vdW  Elec       q    Type
REMARK                         _______ _______ _______ _____ _____    ______ ____
ROOT
ATOM      1  C   UNL     1       3.801   5.769  17.636  0.00  0.00    +0.000 A 
ATOM      2  C   UNL     1       3.988   5.144  18.874  0.00  0.00    +0.000 A 
ATOM      3  C   UNL     1       3.341   5.591  20.038  0.00  0.00    +0.000 A 
ATOM      4  C   UNL     1       2.536   6.728  19.958  0.00  0.00    +0.000 A 
ATOM      5  N   UNL     1       1.811   7.367  20.925  0.00  0.00    +0.000 N 
ATOM      6  C   UNL     1       1.227   8.490  20.426  0.00  0.00    +0.000 A 
ATOM      7  C   UNL     1       1.576   8.629  19.088  0.00  0.00    +0.000 A 
ATOM      8  C   UNL     1       2.347   7.438  18.762  0.00  0.00    +0.000 A 
ATOM      9  C   UNL     1       2.952   6.899  17.587  0.00  0.00    +0.000 A 
ATOM     10  H   UNL     1       1.750   7.058  21.891  0.00  0.00    +0.000 HD
ENDROOT
BRANCH   7  11
ATOM     11  C   UNL     1       1.190   9.841  18.237  0.00  0.00    +0.000 C 
ATOM     12  C   UNL     1       1.791  11.179  18.660  0.00  0.00    +0.000 C 
ATOM     13  C   UNL     1       1.298  11.597  20.034  0.00  0.00    +0.000 C 
ATOM     14  N   UNL     1      -0.165  11.708  20.116  0.00  0.00    +0.000 NA
ATOM     15  C   UNL     1      -0.891  10.562  19.542  0.00  0.00    +0.000 C 
ATOM     16  C   UNL     1      -0.338  10.082  18.191  0.00  0.00    +0.000 C 
BRANCH  14  17
ATOM     17  C   UNL     1      -0.567  11.919  21.526  0.00  0.00    +0.000 C 
BRANCH  17  18
ATOM     18  C   UNL     1      -1.638  13.030  21.669  0.00  0.00    +0.000 C 
BRANCH  18  19
ATOM     19  N   UNL     1      -2.937  12.583  22.207  0.00  0.00    +0.000 NA
ATOM     20  C   UNL     1      -3.120  13.024  23.599  0.00  0.00    +0.000 C 
ATOM     21  C   UNL     1      -4.473  12.605  24.160  0.00  0.00    +0.000 C 
ATOM     22  C   UNL     1      -5.605  13.132  23.293  0.00  0.00    +0.000 C 
ATOM     23  C   UNL     1      -5.385  12.690  21.853  0.00  0.00    +0.000 C 
ATOM     24  C   UNL     1      -4.009  13.098  21.334  0.00  0.00    +0.000 C 
ENDBRANCH  18  19
ENDBRANCH  17  18
ENDBRANCH  14  17
ENDBRANCH   7  11
BRANCH   1  27
ATOM     25  O   UNL     1       6.637   5.982  16.811  0.00  0.00    +0.000 OA
ATOM     26  C   UNL     1       5.767   5.503  16.090  0.00  0.00    +0.000 C 
ATOM     27  N   UNL     1       4.428   5.349  16.426  0.00  0.00    +0.000 N 
ATOM     28  H   UNL     1       3.830   4.862  15.771  0.00  0.00    +0.000 HD
BRANCH  26  29
ATOM     29  C   UNL     1       6.220   5.036  14.739  0.00  0.00    +0.000 A 
ATOM     30  C   UNL     1       5.470   4.026  14.102  0.00  0.00    +0.000 A 
ATOM     31  C   UNL     1       5.882   3.484  12.880  0.00  0.00    +0.000 A 
ATOM     32  C   UNL     1       7.055   3.939  12.296  0.00  0.00    +0.000 A 
ATOM     33  F   UNL     1       7.448   3.434  11.120  0.00  0.00    +0.000 F 
ATOM     34  C   UNL     1       7.824   4.919  12.919  0.00  0.00    +0.000 A 
ATOM     35  C   UNL     1       7.412   5.472  14.142  0.00  0.00    +0.000 A 
ENDBRANCH  26  29
ENDBRANCH   1  27
TORSDOF 6
ENDMDL
