MODEL 1
REMARK VINA RESULT:      -8.4      0.000      0.000
REMARK  Name = 
REMARK  11 active torsions:
REMARK  status: ('A' for Active; 'I' for Inactive)
REMARK    1  A    between atoms: C_1  and  C_2
REMARK    2  A    between atoms: C_6  and  O_7
REMARK    3  A    between atoms: O_7  and  C_8
REMARK    4  A    between atoms: C_8  and  C_9
REMARK    5  A    between atoms: N_11  and  C_12
REMARK    6  A    between atoms: C_15  and  S_16
REMARK    7  A    between atoms: S_16  and  N_19
REMARK    8  A    between atoms: N_19  and  C_20
REMARK    9  A    between atoms: C_23  and  C_24
REMARK   10  A    between atoms: C_25  and  C_26
REMARK   11  A    between atoms: C_29  and  C_30
REMARK                            x       y       z     vdW  Elec       q    Type
REMARK                         _______ _______ _______ _____ _____    ______ ____
ROOT
ATOM      1  C   UNL     1       1.881   6.880  20.235  0.00  0.00    +0.000 A 
ATOM      2  C   UNL     1       2.294   6.881  18.900  0.00  0.00    +0.000 A 
ATOM      3  C   UNL     1       2.481   5.692  18.193  0.00  0.00    +0.000 A 
ATOM      4  C   UNL     1       2.281   4.472  18.832  0.00  0.00    +0.000 A 
ATOM      5  C   UNL     1       1.828   4.438  20.153  0.00  0.00    +0.000 A 
ATOM      6  C   UNL     1       1.645   5.644  20.858  0.00  0.00    +0.000 A 
ENDROOT
BRANCH   1   9
ATOM      7  C   UNL     1       1.013   9.200  20.534  0.00  0.00    +0.000 C 
ATOM      8  O   UNL     1       0.382   9.270  19.479  0.00  0.00    +0.000 OA
ATOM      9  N   UNL     1       1.712   8.080  20.973  0.00  0.00    +0.000 N 
ATOM     10  H   UNL     1       2.024   8.075  21.938  0.00  0.00    +0.000 HD
BRANCH   7  11
ATOM     11  C   UNL     1       1.037  10.397  21.472  0.00  0.00    +0.000 C 
BRANCH  11  12
ATOM     12  O   UNL     1       0.261  11.427  20.866  0.00  0.00    +0.000 OA
BRANCH  12  18
ATOM     13  C   UNL     1      -4.340  13.029  20.245  0.00  0.00    +0.000 C 
ATOM     14  C   UNL     1      -3.200  12.598  21.131  0.00  0.00    +0.000 A 
ATOM     15  C   UNL     1      -3.400  12.558  22.516  0.00  0.00    +0.000 A 
ATOM     16  C   UNL     1      -2.373  12.156  23.368  0.00  0.00    +0.000 A 
ATOM     17  C   UNL     1      -1.134  11.781  22.846  0.00  0.00    +0.000 A 
ATOM     18  C   UNL     1      -0.910  11.807  21.467  0.00  0.00    +0.000 A 
ATOM     19  C   UNL     1      -1.941  12.230  20.598  0.00  0.00    +0.000 A 
ATOM     20  C   UNL     1      -1.719  12.300  19.106  0.00  0.00    +0.000 C 
ENDBRANCH  12  18
ENDBRANCH  11  12
ENDBRANCH   7  11
ENDBRANCH   1   9
BRANCH   4  21
ATOM     21  S   UNL     1       2.584   2.981  17.916  0.00  0.00    +0.000 S 
ATOM     22  O   UNL     1       1.782   1.929  18.506  0.00  0.00    +0.000 OA
ATOM     23  O   UNL     1       2.481   3.269  16.499  0.00  0.00    +0.000 OA
BRANCH  21  24
ATOM     24  N   UNL     1       4.189   2.608  18.317  0.00  0.00    +0.000 N 
ATOM     25  H   UNL     1       4.518   1.916  17.639  0.00  0.00    +0.000 HD
BRANCH  24  26
ATOM     26  C   UNL     1       5.023   3.738  18.490  0.00  0.00    +0.000 A 
ATOM     27  O   UNL     1       5.355   4.250  19.711  0.00  0.00    +0.000 OA
ATOM     28  N   UNL     1       6.272   5.274  19.557  0.00  0.00    +0.000 NA
ATOM     29  C   UNL     1       6.450   5.405  18.235  0.00  0.00    +0.000 A 
ATOM     30  C   UNL     1       7.350   6.456  17.706  0.00  0.00    +0.000 C 
ATOM     31  C   UNL     1       5.670   4.457  17.502  0.00  0.00    +0.000 A 
ATOM     32  C   UNL     1       5.553   4.330  16.038  0.00  0.00    +0.000 C 
ENDBRANCH  24  26
ENDBRANCH  21  24
ENDBRANCH   4  21
TORSDOF 7
ENDMDL
MODEL 2
REMARK VINA RESULT:      -8.4      1.436      2.044
REMARK  Name = 
REMARK  11 active torsions:
REMARK  status: ('A' for Active; 'I' for Inactive)
REMARK    1  A    between atoms: C_1  and  C_2
REMARK    2  A    between atoms: C_6  and  O_7
REMARK    3  A    between atoms: O_7  and  C_8
REMARK    4  A    between atoms: C_8  and  C_9
REMARK    5  A    between atoms: N_11  and  C_12
REMARK    6  A    between atoms: C_15  and  S_16
REMARK    7  A    between atoms: S_16  and  N_19
REMARK    8  A    between atoms: N_19  and  C_20
REMARK    9  A    between atoms: C_23  and  C_24
REMARK   10  A    between atoms: C_25  and  C_26
REMARK   11  A    between atoms: C_29  and  C_30
REMARK                            x       y       z     vdW  Elec       q    Type
REMARK                         _______ _______ _______ _____ _____    ______ ____
ROOT
ATOM      1  C   UNL     1       1.998   7.416  19.397  0.00  0.00    +0.000 A 
ATOM      2  C   UNL     1       2.128   6.489  20.435  0.00  0.00    +0.000 A 
ATOM      3  C   UNL     1       2.567   5.185  20.198  0.00  0.00    +0.000 A 
ATOM      4  C   UNL     1       2.858   4.783  18.898  0.00  0.00    +0.000 A 
ATOM      5  C   UNL     1       2.779   5.698  17.845  0.00  0.00    +0.000 A 
ATOM      6  C   UNL     1       2.332   7.010  18.096  0.00  0.00    +0.000 A 
ENDROOT
BRANCH   1   9
ATOM      7  C   UNL     1       1.015   9.212  20.824  0.00  0.00    +0.000 C 
ATOM      8  O   UNL     1       0.973   8.574  21.876  0.00  0.00    +0.000 OA
ATOM      9  N   UNL     1       1.527   8.736  19.621  0.00  0.00    +0.000 N 
ATOM     10  H   UNL     1       1.687   9.413  18.883  0.00  0.00    +0.000 HD
BRANCH   7  11
ATOM     11  C   UNL     1       0.501  10.644  20.797  0.00  0.00    +0.000 C 
BRANCH  11  12
ATOM     12  O   UNL     1      -0.119  10.849  19.531  0.00  0.00    +0.000 OA
BRANCH  12  18
ATOM     13  C   UNL     1      -4.422  11.015  17.170  0.00  0.00    +0.000 C 
ATOM     14  C   UNL     1      -3.522  11.430  18.305  0.00  0.00    +0.000 A 
ATOM     15  C   UNL     1      -4.029  12.281  19.294  0.00  0.00    +0.000 A 
ATOM     16  C   UNL     1      -3.231  12.678  20.364  0.00  0.00    +0.000 A 
ATOM     17  C   UNL     1      -1.915  12.224  20.465  0.00  0.00    +0.000 A 
ATOM     18  C   UNL     1      -1.385  11.369  19.495  0.00  0.00    +0.000 A 
ATOM     19  C   UNL     1      -2.184  10.975  18.397  0.00  0.00    +0.000 A 
ATOM     20  C   UNL     1      -1.629  10.078  17.317  0.00  0.00    +0.000 C 
ENDBRANCH  12  18
ENDBRANCH  11  12
ENDBRANCH   7  11
ENDBRANCH   1   9
BRANCH   4  21
ATOM     21  S   UNL     1       3.361   3.101  18.629  0.00  0.00    +0.000 S 
ATOM     22  O   UNL     1       3.747   2.544  19.909  0.00  0.00    +0.000 OA
ATOM     23  O   UNL     1       2.364   2.435  17.815  0.00  0.00    +0.000 OA
BRANCH  21  24
ATOM     24  N   UNL     1       4.804   3.271  17.755  0.00  0.00    +0.000 N 
ATOM     25  H   UNL     1       4.552   3.359  16.767  0.00  0.00    +0.000 HD
BRANCH  24  26
ATOM     26  C   UNL     1       5.672   4.271  18.255  0.00  0.00    +0.000 A 
ATOM     27  O   UNL     1       6.102   4.318  19.549  0.00  0.00    +0.000 OA
ATOM     28  N   UNL     1       7.026   5.335  19.701  0.00  0.00    +0.000 NA
ATOM     29  C   UNL     1       7.112   5.928  18.501  0.00  0.00    +0.000 A 
ATOM     30  C   UNL     1       7.994   7.103  18.313  0.00  0.00    +0.000 C 
ATOM     31  C   UNL     1       6.263   5.297  17.540  0.00  0.00    +0.000 A 
ATOM     32  C   UNL     1       6.039   5.697  16.139  0.00  0.00    +0.000 C 
ENDBRANCH  24  26
ENDBRANCH  21  24
ENDBRANCH   4  21
TORSDOF 7
ENDMDL
MODEL 3
REMARK VINA RESULT:      -8.3      2.752      9.616
REMARK  Name = 
REMARK  11 active torsions:
REMARK  status: ('A' for Active; 'I' for Inactive)
REMARK    1  A    between atoms: C_1  and  C_2
REMARK    2  A    between atoms: C_6  and  O_7
REMARK    3  A    between atoms: O_7  and  C_8
REMARK    4  A    between atoms: C_8  and  C_9
REMARK    5  A    between atoms: N_11  and  C_12
REMARK    6  A    between atoms: C_15  and  S_16
REMARK    7  A    between atoms: S_16  and  N_19
REMARK    8  A    between atoms: N_19  and  C_20
REMARK    9  A    between atoms: C_23  and  C_24
REMARK   10  A    between atoms: C_25  and  C_26
REMARK   11  A    between atoms: C_29  and  C_30
REMARK                            x       y       z     vdW  Elec       q    Type
REMARK                         _______ _______ _______ _____ _____    ______ ____
ROOT
ATOM      1  C   UNL     1       2.225   7.004  18.562  0.00  0.00    +0.000 A 
ATOM      2  C   UNL     1       1.946   8.179  17.858  0.00  0.00    +0.000 A 
ATOM      3  C   UNL     1       1.429   9.308  18.495  0.00  0.00    +0.000 A 
ATOM      4  C   UNL     1       1.156   9.263  19.859  0.00  0.00    +0.000 A 
ATOM      5  C   UNL     1       1.462   8.118  20.599  0.00  0.00    +0.000 A 
ATOM      6  C   UNL     1       1.981   6.983  19.945  0.00  0.00    +0.000 A 
ENDROOT
BRANCH   1   9
ATOM      7  C   UNL     1       2.228   4.554  18.093  0.00  0.00    +0.000 C 
ATOM      8  O   UNL     1       1.238   4.262  18.763  0.00  0.00    +0.000 OA
ATOM      9  N   UNL     1       2.726   5.841  17.921  0.00  0.00    +0.000 N 
ATOM     10  H   UNL     1       3.421   5.979  17.195  0.00  0.00    +0.000 HD
BRANCH   7  11
ATOM     11  C   UNL     1       2.982   3.456  17.357  0.00  0.00    +0.000 C 
BRANCH  11  12
ATOM     12  O   UNL     1       4.315   3.446  17.859  0.00  0.00    +0.000 OA
BRANCH  12  18
ATOM     13  C   UNL     1       7.871   6.820  18.163  0.00  0.00    +0.000 C 
ATOM     14  C   UNL     1       7.046   5.839  17.371  0.00  0.00    +0.000 A 
ATOM     15  C   UNL     1       7.325   5.665  16.010  0.00  0.00    +0.000 A 
ATOM     16  C   UNL     1       6.590   4.760  15.247  0.00  0.00    +0.000 A 
ATOM     17  C   UNL     1       5.570   4.011  15.835  0.00  0.00    +0.000 A 
ATOM     18  C   UNL     1       5.274   4.161  17.193  0.00  0.00    +0.000 A 
ATOM     19  C   UNL     1       6.004   5.089  17.970  0.00  0.00    +0.000 A 
ATOM     20  C   UNL     1       5.686   5.298  19.431  0.00  0.00    +0.000 C 
ENDBRANCH  12  18
ENDBRANCH  11  12
ENDBRANCH   7  11
ENDBRANCH   1   9
BRANCH   4  21
ATOM     21  S   UNL     1       0.446  10.700  20.624  0.00  0.00    +0.000 S 
ATOM     22  O   UNL     1      -0.753  10.285  21.321  0.00  0.00    +0.000 OA
ATOM     23  O   UNL     1       1.487  11.421  21.329  0.00  0.00    +0.000 OA
BRANCH  21  24
ATOM     24  N   UNL     1      -0.092  11.609  19.297  0.00  0.00    +0.000 N 
ATOM     25  H   UNL     1       0.431  11.288  18.478  0.00  0.00    +0.000 HD
BRANCH  24  26
ATOM     26  C   UNL     1      -1.499  11.645  19.149  0.00  0.00    +0.000 A 
ATOM     27  O   UNL     1      -2.318  12.421  19.917  0.00  0.00    +0.000 OA
ATOM     28  N   UNL     1      -3.619  12.329  19.457  0.00  0.00    +0.000 NA
ATOM     29  C   UNL     1      -3.583  11.456  18.440  0.00  0.00    +0.000 A 
ATOM     30  C   UNL     1      -4.830  11.084  17.734  0.00  0.00    +0.000 C 
ATOM     31  C   UNL     1      -2.256  10.979  18.204  0.00  0.00    +0.000 A 
ATOM     32  C   UNL     1      -1.827   9.970  17.218  0.00  0.00    +0.000 C 
ENDBRANCH  24  26
ENDBRANCH  21  24
ENDBRANCH   4  21
TORSDOF 7
ENDMDL
MODEL 4
REMARK VINA RESULT:      -8.3      1.907      2.932
REMARK  Name = 
REMARK  11 active torsions:
REMARK  status: ('A' for Active; 'I' for Inactive)
REMARK    1  A    between atoms: C_1  and  C_2
REMARK    2  A    between atoms: C_6  and  O_7
REMARK    3  A    between atoms: O_7  and  C_8
REMARK    4  A    between atoms: C_8  and  C_9
REMARK    5  A    between atoms: N_11  and  C_12
REMARK    6  A    between atoms: C_15  and  S_16
REMARK    7  A    between atoms: S_16  and  N_19
REMARK    8  A    between atoms: N_19  and  C_20
REMARK    9  A    between atoms: C_23  and  C_24
REMARK   10  A    between atoms: C_25  and  C_26
REMARK   11  A    between atoms: C_29  and  C_30
REMARK                            x       y       z     vdW  Elec       q    Type
REMARK                         _______ _______ _______ _____ _____    ______ ____
ROOT
ATOM      1  C   UNL     1       2.105   7.330  19.130  0.00  0.00    +0.000 A 
ATOM      2  C   UNL     1       2.605   6.636  20.235  0.00  0.00    +0.000 A 
ATOM      3  C   UNL     1       3.257   5.410  20.094  0.00  0.00    +0.000 A 
ATOM      4  C   UNL     1       3.392   4.845  18.830  0.00  0.00    +0.000 A 
ATOM      5  C   UNL     1       2.941   5.533  17.701  0.00  0.00    +0.000 A 
ATOM      6  C   UNL     1       2.282   6.769  17.856  0.00  0.00    +0.000 A 
ENDROOT
BRANCH   1   9
ATOM      7  C   UNL     1       1.556   9.656  18.412  0.00  0.00    +0.000 C 
ATOM      8  O   UNL     1       2.235   9.669  17.385  0.00  0.00    +0.000 OA
ATOM      9  N   UNL     1       1.417   8.565  19.263  0.00  0.00    +0.000 N 
ATOM     10  H   UNL     1       0.684   8.610  19.962  0.00  0.00    +0.000 HD
BRANCH   7  11
ATOM     11  C   UNL     1       0.772  10.898  18.805  0.00  0.00    +0.000 C 
BRANCH  11  12
ATOM     12  O   UNL     1      -0.500  10.466  19.279  0.00  0.00    +0.000 OA
BRANCH  12  18
ATOM     13  C   UNL     1      -4.917  12.390  18.328  0.00  0.00    +0.000 C 
ATOM     14  C   UNL     1      -3.766  11.487  17.970  0.00  0.00    +0.000 A 
ATOM     15  C   UNL     1      -3.814  10.775  16.765  0.00  0.00    +0.000 A 
ATOM     16  C   UNL     1      -2.764   9.938  16.395  0.00  0.00    +0.000 A 
ATOM     17  C   UNL     1      -1.647   9.806  17.220  0.00  0.00    +0.000 A 
ATOM     18  C   UNL     1      -1.570  10.510  18.425  0.00  0.00    +0.000 A 
ATOM     19  C   UNL     1      -2.639  11.348  18.816  0.00  0.00    +0.000 A 
ATOM     20  C   UNL     1      -2.599  12.095  20.127  0.00  0.00    +0.000 C 
ENDBRANCH  12  18
ENDBRANCH  11  12
ENDBRANCH   7  11
ENDBRANCH   1   9
BRANCH   4  21
ATOM     21  S   UNL     1       4.178   3.257  18.696  0.00  0.00    +0.000 S 
ATOM     22  O   UNL     1       4.782   2.953  19.976  0.00  0.00    +0.000 OA
ATOM     23  O   UNL     1       3.253   2.324  18.085  0.00  0.00    +0.000 OA
BRANCH  21  24
ATOM     24  N   UNL     1       5.473   3.563  17.645  0.00  0.00    +0.000 N 
ATOM     25  H   UNL     1       5.096   3.570  16.693  0.00  0.00    +0.000 HD
BRANCH  24  26
ATOM     26  C   UNL     1       6.258   4.686  17.999  0.00  0.00    +0.000 A 
ATOM     27  O   UNL     1       7.017   4.748  19.131  0.00  0.00    +0.000 OA
ATOM     28  N   UNL     1       7.755   5.917  19.139  0.00  0.00    +0.000 NA
ATOM     29  C   UNL     1       7.397   6.579  18.029  0.00  0.00    +0.000 A 
ATOM     30  C   UNL     1       7.971   7.913  17.739  0.00  0.00    +0.000 C 
ATOM     31  C   UNL     1       6.436   5.845  17.266  0.00  0.00    +0.000 A 
ATOM     32  C   UNL     1       5.762   6.267  16.025  0.00  0.00    +0.000 C 
ENDBRANCH  24  26
ENDBRANCH  21  24
ENDBRANCH   4  21
TORSDOF 7
ENDMDL
MODEL 5
REMARK VINA RESULT:      -8.2      1.089      1.945
REMARK  Name = 
REMARK  11 active torsions:
REMARK  status: ('A' for Active; 'I' for Inactive)
REMARK    1  A    between atoms: C_1  and  C_2
REMARK    2  A    between atoms: C_6  and  O_7
REMARK    3  A    between atoms: O_7  and  C_8
REMARK    4  A    between atoms: C_8  and  C_9
REMARK    5  A    between atoms: N_11  and  C_12
REMARK    6  A    between atoms: C_15  and  S_16
REMARK    7  A    between atoms: S_16  and  N_19
REMARK    8  A    between atoms: N_19  and  C_20
REMARK    9  A    between atoms: C_23  and  C_24
REMARK   10  A    between atoms: C_25  and  C_26
REMARK   11  A    between atoms: C_29  and  C_30
REMARK                            x       y       z     vdW  Elec       q    Type
REMARK                         _______ _______ _______ _____ _____    ______ ____
ROOT
ATOM      1  C   UNL     1       1.996   7.095  19.873  0.00  0.00    +0.000 A 
ATOM      2  C   UNL     1       2.275   6.858  18.524  0.00  0.00    +0.000 A 
ATOM      3  C   UNL     1       2.451   5.564  18.030  0.00  0.00    +0.000 A 
ATOM      4  C   UNL     1       2.375   4.480  18.900  0.00  0.00    +0.000 A 
ATOM      5  C   UNL     1       2.056   4.680  20.245  0.00  0.00    +0.000 A 
ATOM      6  C   UNL     1       1.884   5.991  20.733  0.00  0.00    +0.000 A 
ENDROOT
BRANCH   1   9
ATOM      7  C   UNL     1       0.729   8.868  21.086  0.00  0.00    +0.000 C 
ATOM      8  O   UNL     1      -0.238   8.179  21.410  0.00  0.00    +0.000 OA
ATOM      9  N   UNL     1       1.842   8.406  20.391  0.00  0.00    +0.000 N 
ATOM     10  H   UNL     1       2.653   9.014  20.355  0.00  0.00    +0.000 HD
BRANCH   7  11
ATOM     11  C   UNL     1       0.762  10.339  21.475  0.00  0.00    +0.000 C 
BRANCH  11  12
ATOM     12  O   UNL     1       0.695  11.098  20.272  0.00  0.00    +0.000 OA
BRANCH  12  18
ATOM     13  C   UNL     1      -3.955  12.395  19.369  0.00  0.00    +0.000 C 
ATOM     14  C   UNL     1      -2.711  11.616  19.027  0.00  0.00    +0.000 A 
ATOM     15  C   UNL     1      -2.708  10.819  17.876  0.00  0.00    +0.000 A 
ATOM     16  C   UNL     1      -1.574  10.092  17.522  0.00  0.00    +0.000 A 
ATOM     17  C   UNL     1      -0.423  10.157  18.309  0.00  0.00    +0.000 A 
ATOM     18  C   UNL     1      -0.397  10.950  19.460  0.00  0.00    +0.000 A 
ATOM     19  C   UNL     1      -1.550  11.677  19.835  0.00  0.00    +0.000 A 
ATOM     20  C   UNL     1      -1.563  12.515  21.091  0.00  0.00    +0.000 C 
ENDBRANCH  12  18
ENDBRANCH  11  12
ENDBRANCH   7  11
ENDBRANCH   1   9
BRANCH   4  21
ATOM     21  S   UNL     1       2.659   2.853  18.246  0.00  0.00    +0.000 S 
ATOM     22  O   UNL     1       1.890   1.917  19.038  0.00  0.00    +0.000 OA
ATOM     23  O   UNL     1       2.503   2.890  16.806  0.00  0.00    +0.000 OA
BRANCH  21  24
ATOM     24  N   UNL     1       4.281   2.561  18.646  0.00  0.00    +0.000 N 
ATOM     25  H   UNL     1       4.616   1.816  18.029  0.00  0.00    +0.000 HD
BRANCH  24  26
ATOM     26  C   UNL     1       5.087   3.723  18.694  0.00  0.00    +0.000 A 
ATOM     27  O   UNL     1       5.453   4.339  19.856  0.00  0.00    +0.000 OA
ATOM     28  N   UNL     1       6.331   5.372  19.583  0.00  0.00    +0.000 NA
ATOM     29  C   UNL     1       6.451   5.403  18.248  0.00  0.00    +0.000 A 
ATOM     30  C   UNL     1       7.296   6.433  17.600  0.00  0.00    +0.000 C 
ATOM     31  C   UNL     1       5.671   4.379  17.626  0.00  0.00    +0.000 A 
ATOM     32  C   UNL     1       5.497   4.134  16.183  0.00  0.00    +0.000 C 
ENDBRANCH  24  26
ENDBRANCH  21  24
ENDBRANCH   4  21
TORSDOF 7
ENDMDL
MODEL 6
REMARK VINA RESULT:      -8.2      0.955      1.812
REMARK  Name = 
REMARK  11 active torsions:
REMARK  status: ('A' for Active; 'I' for Inactive)
REMARK    1  A    between atoms: C_1  and  C_2
REMARK    2  A    between atoms: C_6  and  O_7
REMARK    3  A    between atoms: O_7  and  C_8
REMARK    4  A    between atoms: C_8  and  C_9
REMARK    5  A    between atoms: N_11  and  C_12
REMARK    6  A    between atoms: C_15  and  S_16
REMARK    7  A    between atoms: S_16  and  N_19
REMARK    8  A    between atoms: N_19  and  C_20
REMARK    9  A    between atoms: C_23  and  C_24
REMARK   10  A    between atoms: C_25  and  C_26
REMARK   11  A    between atoms: C_29  and  C_30
REMARK                            x       y       z     vdW  Elec       q    Type
REMARK                         _______ _______ _______ _____ _____    ______ ____
ROOT
ATOM      1  C   UNL     1       1.999   6.934  20.322  0.00  0.00    +0.000 A 
ATOM      2  C   UNL     1       1.826   5.681  20.917  0.00  0.00    +0.000 A 
ATOM      3  C   UNL     1       1.996   4.499  20.193  0.00  0.00    +0.000 A 
ATOM      4  C   UNL     1       2.319   4.562  18.841  0.00  0.00    +0.000 A 
ATOM      5  C   UNL     1       2.540   5.797  18.228  0.00  0.00    +0.000 A 
ATOM      6  C   UNL     1       2.363   6.983  18.967  0.00  0.00    +0.000 A 
ENDROOT
BRANCH   1   9
ATOM      7  C   UNL     1       0.572   8.632  21.465  0.00  0.00    +0.000 C 
ATOM      8  O   UNL     1      -0.503   8.045  21.343  0.00  0.00    +0.000 OA
ATOM      9  N   UNL     1       1.803   8.142  21.040  0.00  0.00    +0.000 N 
ATOM     10  H   UNL     1       2.634   8.622  21.369  0.00  0.00    +0.000 HD
BRANCH   7  11
ATOM     11  C   UNL     1       0.608   9.990  22.150  0.00  0.00    +0.000 C 
BRANCH  11  12
ATOM     12  O   UNL     1      -0.735  10.454  22.244  0.00  0.00    +0.000 OA
BRANCH  12  18
ATOM     13  C   UNL     1      -3.515  14.503  22.227  0.00  0.00    +0.000 C 
ATOM     14  C   UNL     1      -2.472  13.615  21.599  0.00  0.00    +0.000 A 
ATOM     15  C   UNL     1      -1.870  14.021  20.402  0.00  0.00    +0.000 A 
ATOM     16  C   UNL     1      -0.895  13.231  19.797  0.00  0.00    +0.000 A 
ATOM     17  C   UNL     1      -0.502  12.028  20.384  0.00  0.00    +0.000 A 
ATOM     18  C   UNL     1      -1.082  11.602  21.582  0.00  0.00    +0.000 A 
ATOM     19  C   UNL     1      -2.084  12.389  22.193  0.00  0.00    +0.000 A 
ATOM     20  C   UNL     1      -2.753  11.939  23.470  0.00  0.00    +0.000 C 
ENDBRANCH  12  18
ENDBRANCH  11  12
ENDBRANCH   7  11
ENDBRANCH   1   9
BRANCH   4  21
ATOM     21  S   UNL     1       2.473   3.038  17.940  0.00  0.00    +0.000 S 
ATOM     22  O   UNL     1       1.685   2.036  18.627  0.00  0.00    +0.000 OA
ATOM     23  O   UNL     1       2.255   3.299  16.532  0.00  0.00    +0.000 OA
BRANCH  21  24
ATOM     24  N   UNL     1       4.091   2.603  18.206  0.00  0.00    +0.000 N 
ATOM     25  H   UNL     1       4.361   1.966  17.452  0.00  0.00    +0.000 HD
BRANCH  24  26
ATOM     26  C   UNL     1       4.960   3.698  18.421  0.00  0.00    +0.000 A 
ATOM     27  O   UNL     1       5.355   4.116  19.659  0.00  0.00    +0.000 OA
ATOM     28  N   UNL     1       6.291   5.126  19.538  0.00  0.00    +0.000 NA
ATOM     29  C   UNL     1       6.419   5.345  18.221  0.00  0.00    +0.000 A 
ATOM     30  C   UNL     1       7.324   6.409  17.728  0.00  0.00    +0.000 C 
ATOM     31  C   UNL     1       5.586   4.469  17.458  0.00  0.00    +0.000 A 
ATOM     32  C   UNL     1       5.407   4.447  15.995  0.00  0.00    +0.000 C 
ENDBRANCH  24  26
ENDBRANCH  21  24
ENDBRANCH   4  21
TORSDOF 7
ENDMDL
MODEL 7
REMARK VINA RESULT:      -8.1      1.942      3.650
REMARK  Name = 
REMARK  11 active torsions:
REMARK  status: ('A' for Active; 'I' for Inactive)
REMARK    1  A    between atoms: C_1  and  C_2
REMARK    2  A    between atoms: C_6  and  O_7
REMARK    3  A    between atoms: O_7  and  C_8
REMARK    4  A    between atoms: C_8  and  C_9
REMARK    5  A    between atoms: N_11  and  C_12
REMARK    6  A    between atoms: C_15  and  S_16
REMARK    7  A    between atoms: S_16  and  N_19
REMARK    8  A    between atoms: N_19  and  C_20
REMARK    9  A    between atoms: C_23  and  C_24
REMARK   10  A    between atoms: C_25  and  C_26
REMARK   11  A    between atoms: C_29  and  C_30
REMARK                            x       y       z     vdW  Elec       q    Type
REMARK                         _______ _______ _______ _____ _____    ______ ____
ROOT
ATOM      1  C   UNL     1       2.443   7.504  18.490  0.00  0.00    +0.000 A 
ATOM      2  C   UNL     1       2.729   6.731  19.618  0.00  0.00    +0.000 A 
ATOM      3  C   UNL     1       3.854   5.906  19.672  0.00  0.00    +0.000 A 
ATOM      4  C   UNL     1       4.701   5.826  18.571  0.00  0.00    +0.000 A 
ATOM      5  C   UNL     1       4.466   6.619  17.445  0.00  0.00    +0.000 A 
ATOM      6  C   UNL     1       3.326   7.445  17.400  0.00  0.00    +0.000 A 
ENDROOT
BRANCH   1   9
ATOM      7  C   UNL     1       1.296   9.706  18.238  0.00  0.00    +0.000 C 
ATOM      8  O   UNL     1       2.303  10.389  18.049  0.00  0.00    +0.000 OA
ATOM      9  N   UNL     1       1.288   8.326  18.413  0.00  0.00    +0.000 N 
ATOM     10  H   UNL     1       0.391   7.856  18.363  0.00  0.00    +0.000 HD
BRANCH   7  11
ATOM     11  C   UNL     1      -0.069  10.378  18.265  0.00  0.00    +0.000 C 
BRANCH  11  12
ATOM     12  O   UNL     1      -0.010  11.420  19.235  0.00  0.00    +0.000 OA
BRANCH  12  18
ATOM     13  C   UNL     1      -2.820  12.403  23.141  0.00  0.00    +0.000 C 
ATOM     14  C   UNL     1      -1.719  11.625  22.469  0.00  0.00    +0.000 A 
ATOM     15  C   UNL     1      -1.081  10.603  23.183  0.00  0.00    +0.000 A 
ATOM     16  C   UNL     1      -0.065   9.855  22.592  0.00  0.00    +0.000 A 
ATOM     17  C   UNL     1       0.322  10.111  21.276  0.00  0.00    +0.000 A 
ATOM     18  C   UNL     1      -0.303  11.121  20.539  0.00  0.00    +0.000 A 
ATOM     19  C   UNL     1      -1.322  11.896  21.137  0.00  0.00    +0.000 A 
ATOM     20  C   UNL     1      -1.992  13.015  20.377  0.00  0.00    +0.000 C 
ENDBRANCH  12  18
ENDBRANCH  11  12
ENDBRANCH   7  11
ENDBRANCH   1   9
BRANCH   4  21
ATOM     21  S   UNL     1       6.092   4.725  18.656  0.00  0.00    +0.000 S 
ATOM     22  O   UNL     1       6.559   4.496  17.305  0.00  0.00    +0.000 OA
ATOM     23  O   UNL     1       7.008   5.199  19.674  0.00  0.00    +0.000 OA
BRANCH  21  24
ATOM     24  N   UNL     1       5.388   3.262  19.147  0.00  0.00    +0.000 N 
ATOM     25  H   UNL     1       5.530   3.180  20.157  0.00  0.00    +0.000 HD
BRANCH  24  26
ATOM     26  C   UNL     1       4.057   3.078  18.700  0.00  0.00    +0.000 A 
ATOM     27  O   UNL     1       3.689   3.128  17.387  0.00  0.00    +0.000 OA
ATOM     28  N   UNL     1       2.353   2.795  17.261  0.00  0.00    +0.000 NA
ATOM     29  C   UNL     1       1.911   2.593  18.510  0.00  0.00    +0.000 A 
ATOM     30  C   UNL     1       0.488   2.258  18.751  0.00  0.00    +0.000 C 
ATOM     31  C   UNL     1       2.953   2.770  19.472  0.00  0.00    +0.000 A 
ATOM     32  C   UNL     1       2.842   2.693  20.941  0.00  0.00    +0.000 C 
ENDBRANCH  24  26
ENDBRANCH  21  24
ENDBRANCH   4  21
TORSDOF 7
ENDMDL
MODEL 8
REMARK VINA RESULT:      -8.1      1.110      1.450
REMARK  Name = 
REMARK  11 active torsions:
REMARK  status: ('A' for Active; 'I' for Inactive)
REMARK    1  A    between atoms: C_1  and  C_2
REMARK    2  A    between atoms: C_6  and  O_7
REMARK    3  A    between atoms: O_7  and  C_8
REMARK    4  A    between atoms: C_8  and  C_9
REMARK    5  A    between atoms: N_11  and  C_12
REMARK    6  A    between atoms: C_15  and  S_16
REMARK    7  A    between atoms: S_16  and  N_19
REMARK    8  A    between atoms: N_19  and  C_20
REMARK    9  A    between atoms: C_23  and  C_24
REMARK   10  A    between atoms: C_25  and  C_26
REMARK   11  A    between atoms: C_29  and  C_30
REMARK                            x       y       z     vdW  Elec       q    Type
REMARK                         _______ _______ _______ _____ _____    ______ ____
ROOT
ATOM      1  C   UNL     1       2.074   7.535  19.482  0.00  0.00    +0.000 A 
ATOM      2  C   UNL     1       2.051   6.499  20.420  0.00  0.00    +0.000 A 
ATOM      3  C   UNL     1       2.387   5.190  20.071  0.00  0.00    +0.000 A 
ATOM      4  C   UNL     1       2.729   4.895  18.755  0.00  0.00    +0.000 A 
ATOM      5  C   UNL     1       2.803   5.915  17.803  0.00  0.00    +0.000 A 
ATOM      6  C   UNL     1       2.458   7.233  18.166  0.00  0.00    +0.000 A 
ENDROOT
BRANCH   1   9
ATOM      7  C   UNL     1       0.999   9.733  18.996  0.00  0.00    +0.000 C 
ATOM      8  O   UNL     1       0.524   9.439  17.899  0.00  0.00    +0.000 OA
ATOM      9  N   UNL     1       1.709   8.865  19.818  0.00  0.00    +0.000 N 
ATOM     10  H   UNL     1       1.878   9.160  20.773  0.00  0.00    +0.000 HD
BRANCH   7  11
ATOM     11  C   UNL     1       0.795  11.137  19.546  0.00  0.00    +0.000 C 
BRANCH  11  12
ATOM     12  O   UNL     1      -0.605  11.400  19.530  0.00  0.00    +0.000 OA
BRANCH  12  18
ATOM     13  C   UNL     1      -4.727  13.013  21.658  0.00  0.00    +0.000 C 
ATOM     14  C   UNL     1      -3.278  12.608  21.726  0.00  0.00    +0.000 A 
ATOM     15  C   UNL     1      -2.629  12.622  22.967  0.00  0.00    +0.000 A 
ATOM     16  C   UNL     1      -1.292  12.245  23.071  0.00  0.00    +0.000 A 
ATOM     17  C   UNL     1      -0.585  11.841  21.938  0.00  0.00    +0.000 A 
ATOM     18  C   UNL     1      -1.210  11.813  20.688  0.00  0.00    +0.000 A 
ATOM     19  C   UNL     1      -2.562  12.210  20.571  0.00  0.00    +0.000 A 
ATOM     20  C   UNL     1      -3.254  12.221  19.229  0.00  0.00    +0.000 C 
ENDBRANCH  12  18
ENDBRANCH  11  12
ENDBRANCH   7  11
ENDBRANCH   1   9
BRANCH   4  21
ATOM     21  S   UNL     1       3.096   3.208  18.337  0.00  0.00    +0.000 S 
ATOM     22  O   UNL     1       3.370   2.497  19.568  0.00  0.00    +0.000 OA
ATOM     23  O   UNL     1       2.087   2.719  17.420  0.00  0.00    +0.000 OA
BRANCH  21  24
ATOM     24  N   UNL     1       4.590   3.331  17.543  0.00  0.00    +0.000 N 
ATOM     25  H   UNL     1       4.394   3.467  16.548  0.00  0.00    +0.000 HD
BRANCH  24  26
ATOM     26  C   UNL     1       5.482   4.265  18.123  0.00  0.00    +0.000 A 
ATOM     27  O   UNL     1       5.839   4.249  19.440  0.00  0.00    +0.000 OA
ATOM     28  N   UNL     1       6.808   5.207  19.675  0.00  0.00    +0.000 NA
ATOM     29  C   UNL     1       6.994   5.830  18.503  0.00  0.00    +0.000 A 
ATOM     30  C   UNL     1       7.949   6.958  18.403  0.00  0.00    +0.000 C 
ATOM     31  C   UNL     1       6.167   5.277  17.476  0.00  0.00    +0.000 A 
ATOM     32  C   UNL     1       6.045   5.731  16.079  0.00  0.00    +0.000 C 
ENDBRANCH  24  26
ENDBRANCH  21  24
ENDBRANCH   4  21
TORSDOF 7
ENDMDL
MODEL 9
REMARK VINA RESULT:      -8.1      1.351      2.114
REMARK  Name = 
REMARK  11 active torsions:
REMARK  status: ('A' for Active; 'I' for Inactive)
REMARK    1  A    between atoms: C_1  and  C_2
REMARK    2  A    between atoms: C_6  and  O_7
REMARK    3  A    between atoms: O_7  and  C_8
REMARK    4  A    between atoms: C_8  and  C_9
REMARK    5  A    between atoms: N_11  and  C_12
REMARK    6  A    between atoms: C_15  and  S_16
REMARK    7  A    between atoms: S_16  and  N_19
REMARK    8  A    between atoms: N_19  and  C_20
REMARK    9  A    between atoms: C_23  and  C_24
REMARK   10  A    between atoms: C_25  and  C_26
REMARK   11  A    between atoms: C_29  and  C_30
REMARK                            x       y       z     vdW  Elec       q    Type
REMARK                         _______ _______ _______ _____ _____    ______ ____
ROOT
ATOM      1  C   UNL     1       1.943   6.809  20.346  0.00  0.00    +0.000 A 
ATOM      2  C   UNL     1       2.191   6.913  18.974  0.00  0.00    +0.000 A 
ATOM      3  C   UNL     1       2.389   5.782  18.180  0.00  0.00    +0.000 A 
ATOM      4  C   UNL     1       2.369   4.519  18.764  0.00  0.00    +0.000 A 
ATOM      5  C   UNL     1       2.083   4.379  20.124  0.00  0.00    +0.000 A 
ATOM      6  C   UNL     1       1.887   5.527  20.916  0.00  0.00    +0.000 A 
ENDROOT
BRANCH   1   9
ATOM      7  C   UNL     1       0.548   8.399  21.667  0.00  0.00    +0.000 C 
ATOM      8  O   UNL     1      -0.530   7.821  21.526  0.00  0.00    +0.000 OA
ATOM      9  N   UNL     1       1.766   7.951  21.168  0.00  0.00    +0.000 N 
ATOM     10  H   UNL     1       2.606   8.404  21.514  0.00  0.00    +0.000 HD
BRANCH   7  11
ATOM     11  C   UNL     1       0.601   9.695  22.463  0.00  0.00    +0.000 C 
BRANCH  11  12
ATOM     12  O   UNL     1       0.844  10.751  21.540  0.00  0.00    +0.000 OA
BRANCH  12  18
ATOM     13  C   UNL     1      -3.230  13.361  20.694  0.00  0.00    +0.000 C 
ATOM     14  C   UNL     1      -2.164  12.396  20.246  0.00  0.00    +0.000 A 
ATOM     15  C   UNL     1      -2.193  11.920  18.929  0.00  0.00    +0.000 A 
ATOM     16  C   UNL     1      -1.218  11.034  18.475  0.00  0.00    +0.000 A 
ATOM     17  C   UNL     1      -0.196  10.617  19.328  0.00  0.00    +0.000 A 
ATOM     18  C   UNL     1      -0.139  11.081  20.645  0.00  0.00    +0.000 A 
ATOM     19  C   UNL     1      -1.134  11.967  21.118  0.00  0.00    +0.000 A 
ATOM     20  C   UNL     1      -1.119  12.459  22.546  0.00  0.00    +0.000 C 
ENDBRANCH  12  18
ENDBRANCH  11  12
ENDBRANCH   7  11
ENDBRANCH   1   9
BRANCH   4  21
ATOM     21  S   UNL     1       2.680   3.108  17.731  0.00  0.00    +0.000 S 
ATOM     22  O   UNL     1       2.141   1.942  18.400  0.00  0.00    +0.000 OA
ATOM     23  O   UNL     1       2.281   3.420  16.373  0.00  0.00    +0.000 OA
BRANCH  21  24
ATOM     24  N   UNL     1       4.366   2.941  17.816  0.00  0.00    +0.000 N 
ATOM     25  H   UNL     1       4.599   2.021  17.432  0.00  0.00    +0.000 HD
BRANCH  24  26
ATOM     26  C   UNL     1       5.087   4.030  17.272  0.00  0.00    +0.000 A 
ATOM     27  O   UNL     1       5.183   4.277  15.933  0.00  0.00    +0.000 OA
ATOM     28  N   UNL     1       5.849   5.471  15.722  0.00  0.00    +0.000 NA
ATOM     29  C   UNL     1       6.194   5.913  16.940  0.00  0.00    +0.000 A 
ATOM     30  C   UNL     1       6.971   7.166  17.085  0.00  0.00    +0.000 C 
ATOM     31  C   UNL     1       5.742   5.029  17.968  0.00  0.00    +0.000 A 
ATOM     32  C   UNL     1       5.979   5.142  19.419  0.00  0.00    +0.000 C 
ENDBRANCH  24  26
ENDBRANCH  21  24
ENDBRANCH   4  21
TORSDOF 7
ENDMDL
