MODEL 1
REMARK VINA RESULT:      -9.0      0.000      0.000
REMARK  Name = 
REMARK  6 active torsions:
REMARK  status: ('A' for Active; 'I' for Inactive)
REMARK    1  A    between atoms: C_2  and  C_13
REMARK    2  A    between atoms: N_3  and  C_4
REMARK    3  A    between atoms: N_16  and  C_17
REMARK    4  A    between atoms: C_17  and  C_18
REMARK    5  A    between atoms: N_21  and  C_22
REMARK    6  A    between atoms: C_28  and  N_29
REMARK                            x       y       z     vdW  Elec       q    Type
REMARK                         _______ _______ _______ _____ _____    ______ ____
ROOT
ATOM      1  C   UNL     1       7.867   5.909  18.329  0.00  0.00    +0.000 C 
ATOM      2  C   UNL     1       7.493   5.062  17.111  0.00  0.00    +0.000 C 
ATOM      3  C   UNL     1       6.024   5.249  16.744  0.00  0.00    +0.000 C 
ATOM      4  N   UNL     1       5.120   4.932  17.855  0.00  0.00    +0.000 NA
ATOM      5  C   UNL     1       5.451   5.651  19.094  0.00  0.00    +0.000 C 
ATOM      6  C   UNL     1       6.927   5.524  19.479  0.00  0.00    +0.000 C 
ENDROOT
BRANCH   1   8
ATOM      7  O   UNL     1       7.137   7.873  17.126  0.00  0.00    +0.000 OA
ATOM      8  C   UNL     1       7.823   7.415  18.035  0.00  0.00    +0.000 C 
ATOM      9  N   UNL     1       8.629   8.163  18.879  0.00  0.00    +0.000 N 
ATOM     10  H   UNL     1       9.220   7.659  19.528  0.00  0.00    +0.000 HD
BRANCH   9  11
ATOM     11  C   UNL     1       8.832   9.560  18.824  0.00  0.00    +0.000 A 
ATOM     12  C   UNL     1       8.427  10.358  17.735  0.00  0.00    +0.000 A 
ATOM     13  C   UNL     1       8.690  11.732  17.706  0.00  0.00    +0.000 A 
ATOM     14  C   UNL     1       9.371  12.276  18.769  0.00  0.00    +0.000 A 
ATOM     15  C   UNL     1       9.753  11.512  19.844  0.00  0.00    +0.000 A 
ATOM     16  C   UNL     1       9.480  10.160  19.914  0.00  0.00    +0.000 A 
ATOM     17  O   UNL     1      10.427  12.237  20.779  0.00  0.00    +0.000 OA
ATOM     18  C   UNL     1      10.497  13.521  20.123  0.00  0.00    +0.000 C 
ATOM     19  O   UNL     1       9.749  13.576  18.892  0.00  0.00    +0.000 OA
ENDBRANCH   9  11
ENDBRANCH   1   8
BRANCH   4  20
ATOM     20  C   UNL     1       3.733   5.187  17.424  0.00  0.00    +0.000 C 
BRANCH  20  21
ATOM     21  C   UNL     1       3.095   6.283  18.205  0.00  0.00    +0.000 A 
ATOM     22  C   UNL     1       2.951   7.624  17.773  0.00  0.00    +0.000 A 
ATOM     23  N   UNL     1       2.187   8.358  18.579  0.00  0.00    +0.000 NA
ATOM     24  N   UNL     1       1.914   7.535  19.629  0.00  0.00    +0.000 N 
ATOM     25  C   UNL     1       2.354   6.245  19.374  0.00  0.00    +0.000 A 
BRANCH  24  26
ATOM     26  C   UNL     1       1.305   8.070  20.797  0.00  0.00    +0.000 A 
ATOM     27  C   UNL     1       2.088   8.788  21.708  0.00  0.00    +0.000 A 
ATOM     28  C   UNL     1       1.485   9.406  22.804  0.00  0.00    +0.000 A 
ATOM     29  C   UNL     1       0.112   9.279  23.015  0.00  0.00    +0.000 A 
ATOM     30  C   UNL     1      -0.662   8.522  22.139  0.00  0.00    +0.000 A 
ATOM     31  C   UNL     1      -0.069   7.909  21.036  0.00  0.00    +0.000 A 
ENDBRANCH  24  26
BRANCH  25  32
ATOM     32  N   UNL     1       1.971   5.119  20.096  0.00  0.00    +0.000 N 
ATOM     33  C   UNL     1       2.574   4.600  21.224  0.00  0.00    +0.000 A 
ATOM     34  C   UNL     1       1.917   3.456  21.615  0.00  0.00    +0.000 A 
ATOM     35  C   UNL     1       0.870   3.245  20.692  0.00  0.00    +0.000 A 
ATOM     36  C   UNL     1       0.926   4.269  19.777  0.00  0.00    +0.000 A 
ENDBRANCH  25  32
ENDBRANCH  20  21
ENDBRANCH   4  20
TORSDOF 6
ENDMDL
MODEL 2
REMARK VINA RESULT:      -8.4      4.330      6.336
REMARK  Name = 
REMARK  6 active torsions:
REMARK  status: ('A' for Active; 'I' for Inactive)
REMARK    1  A    between atoms: C_2  and  C_13
REMARK    2  A    between atoms: N_3  and  C_4
REMARK    3  A    between atoms: N_16  and  C_17
REMARK    4  A    between atoms: C_17  and  C_18
REMARK    5  A    between atoms: N_21  and  C_22
REMARK    6  A    between atoms: C_28  and  N_29
REMARK                            x       y       z     vdW  Elec       q    Type
REMARK                         _______ _______ _______ _____ _____    ______ ____
ROOT
ATOM      1  C   UNL     1       2.002   2.545  18.530  0.00  0.00    +0.000 C 
ATOM      2  C   UNL     1       1.131   3.754  18.183  0.00  0.00    +0.000 C 
ATOM      3  C   UNL     1       1.729   5.040  18.745  0.00  0.00    +0.000 C 
ATOM      4  N   UNL     1       1.927   4.982  20.198  0.00  0.00    +0.000 NA
ATOM      5  C   UNL     1       2.697   3.807  20.631  0.00  0.00    +0.000 C 
ATOM      6  C   UNL     1       2.155   2.496  20.056  0.00  0.00    +0.000 C 
ENDROOT
BRANCH   1   8
ATOM      7  O   UNL     1       4.091   1.588  17.782  0.00  0.00    +0.000 OA
ATOM      8  C   UNL     1       3.362   2.576  17.820  0.00  0.00    +0.000 C 
ATOM      9  N   UNL     1       3.661   3.807  17.258  0.00  0.00    +0.000 N 
ATOM     10  H   UNL     1       3.021   4.570  17.439  0.00  0.00    +0.000 HD
BRANCH   9  11
ATOM     11  C   UNL     1       4.853   4.154  16.583  0.00  0.00    +0.000 A 
ATOM     12  C   UNL     1       5.952   4.763  17.221  0.00  0.00    +0.000 A 
ATOM     13  C   UNL     1       7.096   5.129  16.501  0.00  0.00    +0.000 A 
ATOM     14  C   UNL     1       7.104   4.891  15.148  0.00  0.00    +0.000 A 
ATOM     15  C   UNL     1       6.045   4.281  14.520  0.00  0.00    +0.000 A 
ATOM     16  C   UNL     1       4.918   3.881  15.210  0.00  0.00    +0.000 A 
ATOM     17  O   UNL     1       6.246   4.152  13.179  0.00  0.00    +0.000 OA
ATOM     18  C   UNL     1       7.513   4.830  13.031  0.00  0.00    +0.000 C 
ATOM     19  O   UNL     1       8.104   5.217  14.287  0.00  0.00    +0.000 OA
ENDBRANCH   9  11
ENDBRANCH   1   8
BRANCH   4  20
ATOM     20  C   UNL     1       2.550   6.242  20.641  0.00  0.00    +0.000 C 
BRANCH  20  21
ATOM     21  C   UNL     1       2.171   7.392  19.773  0.00  0.00    +0.000 A 
ATOM     22  C   UNL     1       2.354   7.458  18.371  0.00  0.00    +0.000 A 
ATOM     23  N   UNL     1       1.768   8.515  17.813  0.00  0.00    +0.000 NA
ATOM     24  N   UNL     1       1.289   9.232  18.867  0.00  0.00    +0.000 N 
ATOM     25  C   UNL     1       1.419   8.521  20.050  0.00  0.00    +0.000 A 
BRANCH  24  26
ATOM     26  C   UNL     1       0.799  10.549  18.651  0.00  0.00    +0.000 A 
ATOM     27  C   UNL     1      -0.569  10.740  18.418  0.00  0.00    +0.000 A 
ATOM     28  C   UNL     1      -1.079  12.035  18.308  0.00  0.00    +0.000 A 
ATOM     29  C   UNL     1      -0.226  13.135  18.390  0.00  0.00    +0.000 A 
ATOM     30  C   UNL     1       1.143  12.947  18.569  0.00  0.00    +0.000 A 
ATOM     31  C   UNL     1       1.659  11.658  18.690  0.00  0.00    +0.000 A 
ENDBRANCH  24  26
BRANCH  25  32
ATOM     32  N   UNL     1       0.769   8.834  21.239  0.00  0.00    +0.000 N 
ATOM     33  C   UNL     1       1.304   9.448  22.352  0.00  0.00    +0.000 A 
ATOM     34  C   UNL     1       0.345   9.544  23.334  0.00  0.00    +0.000 A 
ATOM     35  C   UNL     1      -0.831   8.958  22.821  0.00  0.00    +0.000 A 
ATOM     36  C   UNL     1      -0.547   8.531  21.546  0.00  0.00    +0.000 A 
ENDBRANCH  25  32
ENDBRANCH  20  21
ENDBRANCH   4  20
TORSDOF 6
ENDMDL
MODEL 3
REMARK VINA RESULT:      -8.4      4.347      6.309
REMARK  Name = 
REMARK  6 active torsions:
REMARK  status: ('A' for Active; 'I' for Inactive)
REMARK    1  A    between atoms: C_2  and  C_13
REMARK    2  A    between atoms: N_3  and  C_4
REMARK    3  A    between atoms: N_16  and  C_17
REMARK    4  A    between atoms: C_17  and  C_18
REMARK    5  A    between atoms: N_21  and  C_22
REMARK    6  A    between atoms: C_28  and  N_29
REMARK                            x       y       z     vdW  Elec       q    Type
REMARK                         _______ _______ _______ _____ _____    ______ ____
ROOT
ATOM      1  C   UNL     1       2.026   2.563  18.567  0.00  0.00    +0.000 C 
ATOM      2  C   UNL     1       1.145   3.766  18.222  0.00  0.00    +0.000 C 
ATOM      3  C   UNL     1       1.761   5.062  18.740  0.00  0.00    +0.000 C 
ATOM      4  N   UNL     1       2.003   5.032  20.187  0.00  0.00    +0.000 NA
ATOM      5  C   UNL     1       2.785   3.865  20.620  0.00  0.00    +0.000 C 
ATOM      6  C   UNL     1       2.224   2.544  20.088  0.00  0.00    +0.000 C 
ENDROOT
BRANCH   1   8
ATOM      7  O   UNL     1       4.046   1.563  17.697  0.00  0.00    +0.000 OA
ATOM      8  C   UNL     1       3.363   2.577  17.816  0.00  0.00    +0.000 C 
ATOM      9  N   UNL     1       3.700   3.826  17.317  0.00  0.00    +0.000 N 
ATOM     10  H   UNL     1       3.100   4.603  17.563  0.00  0.00    +0.000 HD
BRANCH   9  11
ATOM     11  C   UNL     1       4.886   4.161  16.625  0.00  0.00    +0.000 A 
ATOM     12  C   UNL     1       5.999   4.761  17.246  0.00  0.00    +0.000 A 
ATOM     13  C   UNL     1       7.135   5.116  16.509  0.00  0.00    +0.000 A 
ATOM     14  C   UNL     1       7.122   4.875  15.157  0.00  0.00    +0.000 A 
ATOM     15  C   UNL     1       6.049   4.273  14.545  0.00  0.00    +0.000 A 
ATOM     16  C   UNL     1       4.928   3.884  15.251  0.00  0.00    +0.000 A 
ATOM     17  O   UNL     1       6.230   4.140  13.202  0.00  0.00    +0.000 OA
ATOM     18  C   UNL     1       7.501   4.806  13.034  0.00  0.00    +0.000 C 
ATOM     19  O   UNL     1       8.113   5.190  14.281  0.00  0.00    +0.000 OA
ENDBRANCH   9  11
ENDBRANCH   1   8
BRANCH   4  20
ATOM     20  C   UNL     1       2.640   6.301  20.586  0.00  0.00    +0.000 C 
BRANCH  20  21
ATOM     21  C   UNL     1       2.182   7.446  19.751  0.00  0.00    +0.000 A 
ATOM     22  C   UNL     1       2.323   7.547  18.346  0.00  0.00    +0.000 A 
ATOM     23  N   UNL     1       1.672   8.584  17.824  0.00  0.00    +0.000 NA
ATOM     24  N   UNL     1       1.189   9.258  18.904  0.00  0.00    +0.000 N 
ATOM     25  C   UNL     1       1.385   8.533  20.069  0.00  0.00    +0.000 A 
BRANCH  24  26
ATOM     26  C   UNL     1       0.631  10.554  18.727  0.00  0.00    +0.000 A 
ATOM     27  C   UNL     1       1.462  11.676  18.832  0.00  0.00    +0.000 A 
ATOM     28  C   UNL     1       0.950  12.945  18.558  0.00  0.00    +0.000 A 
ATOM     29  C   UNL     1      -0.393  13.103  18.219  0.00  0.00    +0.000 A 
ATOM     30  C   UNL     1      -1.236  11.994  18.165  0.00  0.00    +0.000 A 
ATOM     31  C   UNL     1      -0.730  10.722  18.427  0.00  0.00    +0.000 A 
ENDBRANCH  24  26
BRANCH  25  32
ATOM     32  N   UNL     1       0.754   8.792  21.282  0.00  0.00    +0.000 N 
ATOM     33  C   UNL     1      -0.578   8.609  21.591  0.00  0.00    +0.000 A 
ATOM     34  C   UNL     1      -0.813   9.020  22.883  0.00  0.00    +0.000 A 
ATOM     35  C   UNL     1       0.414   9.488  23.398  0.00  0.00    +0.000 A 
ATOM     36  C   UNL     1       1.352   9.342  22.403  0.00  0.00    +0.000 A 
ENDBRANCH  25  32
ENDBRANCH  20  21
ENDBRANCH   4  20
TORSDOF 6
ENDMDL
MODEL 4
REMARK VINA RESULT:      -8.0      0.927      1.680
REMARK  Name = 
REMARK  6 active torsions:
REMARK  status: ('A' for Active; 'I' for Inactive)
REMARK    1  A    between atoms: C_2  and  C_13
REMARK    2  A    between atoms: N_3  and  C_4
REMARK    3  A    between atoms: N_16  and  C_17
REMARK    4  A    between atoms: C_17  and  C_18
REMARK    5  A    between atoms: N_21  and  C_22
REMARK    6  A    between atoms: C_28  and  N_29
REMARK                            x       y       z     vdW  Elec       q    Type
REMARK                         _______ _______ _______ _____ _____    ______ ____
ROOT
ATOM      1  C   UNL     1       8.080   6.014  18.325  0.00  0.00    +0.000 C 
ATOM      2  C   UNL     1       7.823   5.209  17.050  0.00  0.00    +0.000 C 
ATOM      3  C   UNL     1       6.366   5.327  16.611  0.00  0.00    +0.000 C 
ATOM      4  N   UNL     1       5.427   4.901  17.656  0.00  0.00    +0.000 NA
ATOM      5  C   UNL     1       5.649   5.575  18.943  0.00  0.00    +0.000 C 
ATOM      6  C   UNL     1       7.108   5.516  19.402  0.00  0.00    +0.000 C 
ENDROOT
BRANCH   1   8
ATOM      7  O   UNL     1       7.216   7.993  17.240  0.00  0.00    +0.000 OA
ATOM      8  C   UNL     1       7.959   7.528  18.100  0.00  0.00    +0.000 C 
ATOM      9  N   UNL     1       8.765   8.275  18.944  0.00  0.00    +0.000 N 
ATOM     10  H   UNL     1       9.404   7.771  19.546  0.00  0.00    +0.000 HD
BRANCH   9  11
ATOM     11  C   UNL     1       8.904   9.681  18.944  0.00  0.00    +0.000 A 
ATOM     12  C   UNL     1       9.582  10.391  19.955  0.00  0.00    +0.000 A 
ATOM     13  C   UNL     1       9.655  11.789  19.935  0.00  0.00    +0.000 A 
ATOM     14  C   UNL     1       9.029  12.447  18.904  0.00  0.00    +0.000 A 
ATOM     15  C   UNL     1       8.382  11.764  17.903  0.00  0.00    +0.000 A 
ATOM     16  C   UNL     1       8.320  10.385  17.881  0.00  0.00    +0.000 A 
ATOM     17  O   UNL     1       7.816  12.601  16.990  0.00  0.00    +0.000 OA
ATOM     18  C   UNL     1       8.112  13.884  17.583  0.00  0.00    +0.000 C 
ATOM     19  O   UNL     1       8.958  13.795  18.746  0.00  0.00    +0.000 OA
ENDBRANCH   9  11
ENDBRANCH   1   8
BRANCH   4  20
ATOM     20  C   UNL     1       4.052   5.095  17.162  0.00  0.00    +0.000 C 
BRANCH  20  21
ATOM     21  C   UNL     1       3.399   6.287  17.770  0.00  0.00    +0.000 A 
ATOM     22  C   UNL     1       3.351   7.580  17.196  0.00  0.00    +0.000 A 
ATOM     23  N   UNL     1       2.556   8.420  17.855  0.00  0.00    +0.000 NA
ATOM     24  N   UNL     1       2.159   7.720  18.953  0.00  0.00    +0.000 N 
ATOM     25  C   UNL     1       2.561   6.396  18.867  0.00  0.00    +0.000 A 
BRANCH  24  26
ATOM     26  C   UNL     1       1.478   8.393  20.003  0.00  0.00    +0.000 A 
ATOM     27  C   UNL     1       0.514   9.357  19.685  0.00  0.00    +0.000 A 
ATOM     28  C   UNL     1      -0.235   9.951  20.702  0.00  0.00    +0.000 A 
ATOM     29  C   UNL     1       0.000   9.616  22.035  0.00  0.00    +0.000 A 
ATOM     30  C   UNL     1       0.995   8.696  22.359  0.00  0.00    +0.000 A 
ATOM     31  C   UNL     1       1.741   8.091  21.348  0.00  0.00    +0.000 A 
ENDBRANCH  24  26
BRANCH  25  32
ATOM     32  N   UNL     1       2.070   5.364  19.661  0.00  0.00    +0.000 N 
ATOM     33  C   UNL     1       0.977   4.560  19.411  0.00  0.00    +0.000 A 
ATOM     34  C   UNL     1       0.799   3.684  20.457  0.00  0.00    +0.000 A 
ATOM     35  C   UNL     1       1.810   3.957  21.402  0.00  0.00    +0.000 A 
ATOM     36  C   UNL     1       2.569   4.985  20.895  0.00  0.00    +0.000 A 
ENDBRANCH  25  32
ENDBRANCH  20  21
ENDBRANCH   4  20
TORSDOF 6
ENDMDL
MODEL 5
REMARK VINA RESULT:      -7.7      4.273      6.656
REMARK  Name = 
REMARK  6 active torsions:
REMARK  status: ('A' for Active; 'I' for Inactive)
REMARK    1  A    between atoms: C_2  and  C_13
REMARK    2  A    between atoms: N_3  and  C_4
REMARK    3  A    between atoms: N_16  and  C_17
REMARK    4  A    between atoms: C_17  and  C_18
REMARK    5  A    between atoms: N_21  and  C_22
REMARK    6  A    between atoms: C_28  and  N_29
REMARK                            x       y       z     vdW  Elec       q    Type
REMARK                         _______ _______ _______ _____ _____    ______ ____
ROOT
ATOM      1  C   UNL     1       2.678   3.703  19.050  0.00  0.00    +0.000 C 
ATOM      2  C   UNL     1       1.607   4.468  18.270  0.00  0.00    +0.000 C 
ATOM      3  C   UNL     1       1.812   5.976  18.391  0.00  0.00    +0.000 C 
ATOM      4  N   UNL     1       1.820   6.433  19.785  0.00  0.00    +0.000 NA
ATOM      5  C   UNL     1       2.774   5.699  20.630  0.00  0.00    +0.000 C 
ATOM      6  C   UNL     1       2.631   4.180  20.507  0.00  0.00    +0.000 C 
ENDROOT
BRANCH   1   8
ATOM      7  O   UNL     1       5.092   3.625  19.089  0.00  0.00    +0.000 OA
ATOM      8  C   UNL     1       4.077   3.863  18.440  0.00  0.00    +0.000 C 
ATOM      9  N   UNL     1       4.057   4.304  17.126  0.00  0.00    +0.000 N 
ATOM     10  H   UNL     1       3.160   4.558  16.734  0.00  0.00    +0.000 HD
BRANCH   9  11
ATOM     11  C   UNL     1       5.182   4.588  16.320  0.00  0.00    +0.000 A 
ATOM     12  C   UNL     1       6.259   5.388  16.750  0.00  0.00    +0.000 A 
ATOM     13  C   UNL     1       7.331   5.678  15.898  0.00  0.00    +0.000 A 
ATOM     14  C   UNL     1       7.291   5.170  14.622  0.00  0.00    +0.000 A 
ATOM     15  C   UNL     1       6.255   4.372  14.199  0.00  0.00    +0.000 A 
ATOM     16  C   UNL     1       5.200   4.045  15.027  0.00  0.00    +0.000 A 
ATOM     17  O   UNL     1       6.398   3.987  12.901  0.00  0.00    +0.000 OA
ATOM     18  C   UNL     1       7.597   4.706  12.538  0.00  0.00    +0.000 C 
ATOM     19  O   UNL     1       8.216   5.381  13.649  0.00  0.00    +0.000 OA
ENDBRANCH   9  11
ENDBRANCH   1   8
BRANCH   4  20
ATOM     20  C   UNL     1       2.070   7.885  19.805  0.00  0.00    +0.000 C 
BRANCH  20  21
ATOM     21  C   UNL     1       1.003   8.630  20.529  0.00  0.00    +0.000 A 
ATOM     22  C   UNL     1       0.205   8.111  21.577  0.00  0.00    +0.000 A 
ATOM     23  N   UNL     1      -0.548   9.033  22.173  0.00  0.00    +0.000 NA
ATOM     24  N   UNL     1      -0.344  10.161  21.438  0.00  0.00    +0.000 N 
ATOM     25  C   UNL     1       0.671   9.974  20.513  0.00  0.00    +0.000 A 
BRANCH  24  26
ATOM     26  C   UNL     1      -1.174  11.296  21.655  0.00  0.00    +0.000 A 
ATOM     27  C   UNL     1      -1.310  11.805  22.952  0.00  0.00    +0.000 A 
ATOM     28  C   UNL     1      -2.036  12.977  23.163  0.00  0.00    +0.000 A 
ATOM     29  C   UNL     1      -2.659  13.621  22.095  0.00  0.00    +0.000 A 
ATOM     30  C   UNL     1      -2.571  13.087  20.810  0.00  0.00    +0.000 A 
ATOM     31  C   UNL     1      -1.838  11.922  20.589  0.00  0.00    +0.000 A 
ENDBRANCH  24  26
BRANCH  25  32
ATOM     32  N   UNL     1       1.318  10.997  19.827  0.00  0.00    +0.000 N 
ATOM     33  C   UNL     1       1.755  12.203  20.335  0.00  0.00    +0.000 A 
ATOM     34  C   UNL     1       2.313  12.955  19.326  0.00  0.00    +0.000 A 
ATOM     35  C   UNL     1       2.211  12.196  18.141  0.00  0.00    +0.000 A 
ATOM     36  C   UNL     1       1.600  11.010  18.472  0.00  0.00    +0.000 A 
ENDBRANCH  25  32
ENDBRANCH  20  21
ENDBRANCH   4  20
TORSDOF 6
ENDMDL
MODEL 6
REMARK VINA RESULT:      -7.7      6.268     11.020
REMARK  Name = 
REMARK  6 active torsions:
REMARK  status: ('A' for Active; 'I' for Inactive)
REMARK    1  A    between atoms: C_2  and  C_13
REMARK    2  A    between atoms: N_3  and  C_4
REMARK    3  A    between atoms: N_16  and  C_17
REMARK    4  A    between atoms: C_17  and  C_18
REMARK    5  A    between atoms: N_21  and  C_22
REMARK    6  A    between atoms: C_28  and  N_29
REMARK                            x       y       z     vdW  Elec       q    Type
REMARK                         _______ _______ _______ _____ _____    ______ ____
ROOT
ATOM      1  C   UNL     1      -4.838  13.939  21.410  0.00  0.00    +0.000 C 
ATOM      2  C   UNL     1      -3.829  15.033  21.053  0.00  0.00    +0.000 C 
ATOM      3  C   UNL     1      -2.407  14.600  21.399  0.00  0.00    +0.000 C 
ATOM      4  N   UNL     1      -2.256  14.238  22.813  0.00  0.00    +0.000 NA
ATOM      5  C   UNL     1      -3.237  13.240  23.264  0.00  0.00    +0.000 C 
ATOM      6  C   UNL     1      -4.676  13.615  22.901  0.00  0.00    +0.000 C 
ENDROOT
BRANCH   1   8
ATOM      7  O   UNL     1      -5.242  11.632  20.818  0.00  0.00    +0.000 OA
ATOM      8  C   UNL     1      -4.686  12.689  20.533  0.00  0.00    +0.000 C 
ATOM      9  N   UNL     1      -3.868  12.886  19.431  0.00  0.00    +0.000 N 
ATOM     10  H   UNL     1      -3.392  13.776  19.358  0.00  0.00    +0.000 HD
BRANCH   9  11
ATOM     11  C   UNL     1      -3.503  11.915  18.472  0.00  0.00    +0.000 A 
ATOM     12  C   UNL     1      -2.455  10.994  18.666  0.00  0.00    +0.000 A 
ATOM     13  C   UNL     1      -2.101  10.079  17.668  0.00  0.00    +0.000 A 
ATOM     14  C   UNL     1      -2.800  10.119  16.485  0.00  0.00    +0.000 A 
ATOM     15  C   UNL     1      -3.837  11.000  16.293  0.00  0.00    +0.000 A 
ATOM     16  C   UNL     1      -4.227  11.893  17.272  0.00  0.00    +0.000 A 
ATOM     17  O   UNL     1      -4.385  10.889  15.052  0.00  0.00    +0.000 OA
ATOM     18  C   UNL     1      -3.515   9.898  14.462  0.00  0.00    +0.000 C 
ATOM     19  O   UNL     1      -2.569   9.341  15.396  0.00  0.00    +0.000 OA
ENDBRANCH   9  11
ENDBRANCH   1   8
BRANCH   4  20
ATOM     20  C   UNL     1      -0.870  13.791  23.041  0.00  0.00    +0.000 C 
BRANCH  20  21
ATOM     21  C   UNL     1      -0.613  12.442  22.464  0.00  0.00    +0.000 A 
ATOM     22  C   UNL     1      -1.281  11.249  22.833  0.00  0.00    +0.000 A 
ATOM     23  N   UNL     1      -0.993  10.218  22.043  0.00  0.00    +0.000 NA
ATOM     24  N   UNL     1      -0.028  10.691  21.207  0.00  0.00    +0.000 N 
ATOM     25  C   UNL     1       0.137  12.059  21.365  0.00  0.00    +0.000 A 
BRANCH  24  26
ATOM     26  C   UNL     1       0.681   9.784  20.372  0.00  0.00    +0.000 A 
ATOM     27  C   UNL     1       0.940  10.138  19.043  0.00  0.00    +0.000 A 
ATOM     28  C   UNL     1       1.723   9.304  18.244  0.00  0.00    +0.000 A 
ATOM     29  C   UNL     1       2.215   8.103  18.752  0.00  0.00    +0.000 A 
ATOM     30  C   UNL     1       1.915   7.722  20.059  0.00  0.00    +0.000 A 
ATOM     31  C   UNL     1       1.142   8.554  20.867  0.00  0.00    +0.000 A 
ENDBRANCH  24  26
BRANCH  25  32
ATOM     32  N   UNL     1       0.813  12.885  20.474  0.00  0.00    +0.000 N 
ATOM     33  C   UNL     1       0.318  13.461  19.322  0.00  0.00    +0.000 A 
ATOM     34  C   UNL     1       1.313  14.178  18.698  0.00  0.00    +0.000 A 
ATOM     35  C   UNL     1       2.477  14.037  19.483  0.00  0.00    +0.000 A 
ATOM     36  C   UNL     1       2.148  13.244  20.556  0.00  0.00    +0.000 A 
ENDBRANCH  25  32
ENDBRANCH  20  21
ENDBRANCH   4  20
TORSDOF 6
ENDMDL
MODEL 7
REMARK VINA RESULT:      -7.6      6.412     11.429
REMARK  Name = 
REMARK  6 active torsions:
REMARK  status: ('A' for Active; 'I' for Inactive)
REMARK    1  A    between atoms: C_2  and  C_13
REMARK    2  A    between atoms: N_3  and  C_4
REMARK    3  A    between atoms: N_16  and  C_17
REMARK    4  A    between atoms: C_17  and  C_18
REMARK    5  A    between atoms: N_21  and  C_22
REMARK    6  A    between atoms: C_28  and  N_29
REMARK                            x       y       z     vdW  Elec       q    Type
REMARK                         _______ _______ _______ _____ _____    ______ ____
ROOT
ATOM      1  C   UNL     1      -5.240  14.157  22.475  0.00  0.00    +0.000 C 
ATOM      2  C   UNL     1      -4.437  15.329  23.044  0.00  0.00    +0.000 C 
ATOM      3  C   UNL     1      -2.937  15.078  22.919  0.00  0.00    +0.000 C 
ATOM      4  N   UNL     1      -2.518  13.833  23.575  0.00  0.00    +0.000 NA
ATOM      5  C   UNL     1      -3.289  12.660  23.139  0.00  0.00    +0.000 C 
ATOM      6  C   UNL     1      -4.802  12.884  23.209  0.00  0.00    +0.000 C 
ENDROOT
BRANCH   1   8
ATOM      7  O   UNL     1      -5.156  14.998  20.211  0.00  0.00    +0.000 OA
ATOM      8  C   UNL     1      -5.086  14.022  20.954  0.00  0.00    +0.000 C 
ATOM      9  N   UNL     1      -4.881  12.717  20.536  0.00  0.00    +0.000 N 
ATOM     10  H   UNL     1      -4.939  11.989  21.236  0.00  0.00    +0.000 HD
BRANCH   9  11
ATOM     11  C   UNL     1      -4.751  12.274  19.200  0.00  0.00    +0.000 A 
ATOM     12  C   UNL     1      -5.833  12.207  18.300  0.00  0.00    +0.000 A 
ATOM     13  C   UNL     1      -5.664  11.719  16.999  0.00  0.00    +0.000 A 
ATOM     14  C   UNL     1      -4.410  11.292  16.634  0.00  0.00    +0.000 A 
ATOM     15  C   UNL     1      -3.344  11.371  17.497  0.00  0.00    +0.000 A 
ATOM     16  C   UNL     1      -3.475  11.876  18.776  0.00  0.00    +0.000 A 
ATOM     17  O   UNL     1      -2.198  10.883  16.948  0.00  0.00    +0.000 OA
ATOM     18  C   UNL     1      -2.690  10.411  15.675  0.00  0.00    +0.000 C 
ATOM     19  O   UNL     1      -4.070  10.751  15.434  0.00  0.00    +0.000 OA
ENDBRANCH   9  11
ENDBRANCH   1   8
BRANCH   4  20
ATOM     20  C   UNL     1      -1.070  13.651  23.362  0.00  0.00    +0.000 C 
BRANCH  20  21
ATOM     21  C   UNL     1      -0.757  12.346  22.717  0.00  0.00    +0.000 A 
ATOM     22  C   UNL     1      -1.205  11.080  23.165  0.00  0.00    +0.000 A 
ATOM     23  N   UNL     1      -0.935  10.094  22.313  0.00  0.00    +0.000 NA
ATOM     24  N   UNL     1      -0.190  10.684  21.338  0.00  0.00    +0.000 N 
ATOM     25  C   UNL     1      -0.164  12.060  21.499  0.00  0.00    +0.000 A 
BRANCH  24  26
ATOM     26  C   UNL     1       0.469   9.872  20.374  0.00  0.00    +0.000 A 
ATOM     27  C   UNL     1       0.408  10.230  19.022  0.00  0.00    +0.000 A 
ATOM     28  C   UNL     1       1.136   9.503  18.079  0.00  0.00    +0.000 A 
ATOM     29  C   UNL     1       1.890   8.398  18.473  0.00  0.00    +0.000 A 
ATOM     30  C   UNL     1       1.910   8.007  19.810  0.00  0.00    +0.000 A 
ATOM     31  C   UNL     1       1.195   8.734  20.760  0.00  0.00    +0.000 A 
ENDBRANCH  24  26
BRANCH  25  32
ATOM     32  N   UNL     1       0.247  12.966  20.526  0.00  0.00    +0.000 N 
ATOM     33  C   UNL     1      -0.529  13.568  19.558  0.00  0.00    +0.000 A 
ATOM     34  C   UNL     1       0.259  14.369  18.765  0.00  0.00    +0.000 A 
ATOM     35  C   UNL     1       1.580  14.256  19.247  0.00  0.00    +0.000 A 
ATOM     36  C   UNL     1       1.547  13.394  20.317  0.00  0.00    +0.000 A 
ENDBRANCH  25  32
ENDBRANCH  20  21
ENDBRANCH   4  20
TORSDOF 6
ENDMDL
MODEL 8
REMARK VINA RESULT:      -7.6      5.670      9.461
REMARK  Name = 
REMARK  6 active torsions:
REMARK  status: ('A' for Active; 'I' for Inactive)
REMARK    1  A    between atoms: C_2  and  C_13
REMARK    2  A    between atoms: N_3  and  C_4
REMARK    3  A    between atoms: N_16  and  C_17
REMARK    4  A    between atoms: C_17  and  C_18
REMARK    5  A    between atoms: N_21  and  C_22
REMARK    6  A    between atoms: C_28  and  N_29
REMARK                            x       y       z     vdW  Elec       q    Type
REMARK                         _______ _______ _______ _____ _____    ______ ____
ROOT
ATOM      1  C   UNL     1       1.156  10.107  18.375  0.00  0.00    +0.000 C 
ATOM      2  C   UNL     1       1.628  11.293  19.218  0.00  0.00    +0.000 C 
ATOM      3  C   UNL     1       0.941  11.306  20.580  0.00  0.00    +0.000 C 
ATOM      4  N   UNL     1      -0.522  11.335  20.473  0.00  0.00    +0.000 NA
ATOM      5  C   UNL     1      -1.062  10.267  19.618  0.00  0.00    +0.000 C 
ATOM      6  C   UNL     1      -0.371  10.192  18.254  0.00  0.00    +0.000 C 
ENDROOT
BRANCH   1   8
ATOM      7  O   UNL     1       1.544   8.516  20.152  0.00  0.00    +0.000 OA
ATOM      8  C   UNL     1       1.610   8.758  18.950  0.00  0.00    +0.000 C 
ATOM      9  N   UNL     1       2.094   7.885  17.987  0.00  0.00    +0.000 N 
ATOM     10  H   UNL     1       2.185   8.237  17.043  0.00  0.00    +0.000 HD
BRANCH   9  11
ATOM     11  C   UNL     1       2.624   6.596  18.215  0.00  0.00    +0.000 A 
ATOM     12  C   UNL     1       3.904   6.372  18.760  0.00  0.00    +0.000 A 
ATOM     13  C   UNL     1       4.404   5.075  18.926  0.00  0.00    +0.000 A 
ATOM     14  C   UNL     1       3.611   4.027  18.524  0.00  0.00    +0.000 A 
ATOM     15  C   UNL     1       2.354   4.233  18.010  0.00  0.00    +0.000 A 
ATOM     16  C   UNL     1       1.823   5.500  17.864  0.00  0.00    +0.000 A 
ATOM     17  O   UNL     1       1.742   3.068  17.660  0.00  0.00    +0.000 OA
ATOM     18  C   UNL     1       2.795   2.119  17.935  0.00  0.00    +0.000 C 
ATOM     19  O   UNL     1       3.946   2.711  18.569  0.00  0.00    +0.000 OA
ENDBRANCH   9  11
ENDBRANCH   1   8
BRANCH   4  20
ATOM     20  C   UNL     1      -1.097  11.296  21.830  0.00  0.00    +0.000 C 
BRANCH  20  21
ATOM     21  C   UNL     1      -1.536  12.642  22.293  0.00  0.00    +0.000 A 
ATOM     22  C   UNL     1      -0.699  13.628  22.866  0.00  0.00    +0.000 A 
ATOM     23  N   UNL     1      -1.302  14.804  23.026  0.00  0.00    +0.000 NA
ATOM     24  N   UNL     1      -2.595  14.572  22.668  0.00  0.00    +0.000 N 
ATOM     25  C   UNL     1      -2.737  13.309  22.115  0.00  0.00    +0.000 A 
BRANCH  24  26
ATOM     26  C   UNL     1      -3.582  15.560  22.935  0.00  0.00    +0.000 A 
ATOM     27  C   UNL     1      -4.163  15.619  24.207  0.00  0.00    +0.000 A 
ATOM     28  C   UNL     1      -5.056  16.647  24.514  0.00  0.00    +0.000 A 
ATOM     29  C   UNL     1      -5.399  17.592  23.548  0.00  0.00    +0.000 A 
ATOM     30  C   UNL     1      -4.863  17.506  22.265  0.00  0.00    +0.000 A 
ATOM     31  C   UNL     1      -3.963  16.488  21.953  0.00  0.00    +0.000 A 
ENDBRANCH  24  26
BRANCH  25  32
ATOM     32  N   UNL     1      -3.842  12.881  21.386  0.00  0.00    +0.000 N 
ATOM     33  C   UNL     1      -3.933  12.712  20.020  0.00  0.00    +0.000 A 
ATOM     34  C   UNL     1      -5.206  12.311  19.687  0.00  0.00    +0.000 A 
ATOM     35  C   UNL     1      -5.943  12.238  20.888  0.00  0.00    +0.000 A 
ATOM     36  C   UNL     1      -5.092  12.591  21.907  0.00  0.00    +0.000 A 
ENDBRANCH  25  32
ENDBRANCH  20  21
ENDBRANCH   4  20
TORSDOF 6
ENDMDL
MODEL 9
REMARK VINA RESULT:      -7.6      5.681      9.469
REMARK  Name = 
REMARK  6 active torsions:
REMARK  status: ('A' for Active; 'I' for Inactive)
REMARK    1  A    between atoms: C_2  and  C_13
REMARK    2  A    between atoms: N_3  and  C_4
REMARK    3  A    between atoms: N_16  and  C_17
REMARK    4  A    between atoms: C_17  and  C_18
REMARK    5  A    between atoms: N_21  and  C_22
REMARK    6  A    between atoms: C_28  and  N_29
REMARK                            x       y       z     vdW  Elec       q    Type
REMARK                         _______ _______ _______ _____ _____    ______ ____
ROOT
ATOM      1  C   UNL     1       1.158  10.122  18.399  0.00  0.00    +0.000 C 
ATOM      2  C   UNL     1       1.621  11.308  19.248  0.00  0.00    +0.000 C 
ATOM      3  C   UNL     1       0.916  11.323  20.601  0.00  0.00    +0.000 C 
ATOM      4  N   UNL     1      -0.546  11.355  20.473  0.00  0.00    +0.000 NA
ATOM      5  C   UNL     1      -1.076  10.288  19.612  0.00  0.00    +0.000 C 
ATOM      6  C   UNL     1      -0.367  10.211  18.258  0.00  0.00    +0.000 C 
ENDROOT
BRANCH   1   8
ATOM      7  O   UNL     1       1.517   8.532  20.182  0.00  0.00    +0.000 OA
ATOM      8  C   UNL     1       1.601   8.773  18.981  0.00  0.00    +0.000 C 
ATOM      9  N   UNL     1       2.098   7.899  18.026  0.00  0.00    +0.000 N 
ATOM     10  H   UNL     1       2.204   8.251  17.083  0.00  0.00    +0.000 HD
BRANCH   9  11
ATOM     11  C   UNL     1       2.623   6.609  18.262  0.00  0.00    +0.000 A 
ATOM     12  C   UNL     1       3.868   6.383  18.882  0.00  0.00    +0.000 A 
ATOM     13  C   UNL     1       4.367   5.086  19.054  0.00  0.00    +0.000 A 
ATOM     14  C   UNL     1       3.608   4.041  18.583  0.00  0.00    +0.000 A 
ATOM     15  C   UNL     1       2.384   4.249  17.995  0.00  0.00    +0.000 A 
ATOM     16  C   UNL     1       1.854   5.515  17.840  0.00  0.00    +0.000 A 
ATOM     17  O   UNL     1       1.804   3.087  17.586  0.00  0.00    +0.000 OA
ATOM     18  C   UNL     1       2.846   2.140  17.908  0.00  0.00    +0.000 C 
ATOM     19  O   UNL     1       3.950   2.726  18.624  0.00  0.00    +0.000 OA
ENDBRANCH   9  11
ENDBRANCH   1   8
BRANCH   4  20
ATOM     20  C   UNL     1      -1.138  11.319  21.823  0.00  0.00    +0.000 C 
BRANCH  20  21
ATOM     21  C   UNL     1      -1.552  12.671  22.292  0.00  0.00    +0.000 A 
ATOM     22  C   UNL     1      -0.692  13.643  22.857  0.00  0.00    +0.000 A 
ATOM     23  N   UNL     1      -1.274  14.828  23.025  0.00  0.00    +0.000 NA
ATOM     24  N   UNL     1      -2.574  14.618  22.680  0.00  0.00    +0.000 N 
ATOM     25  C   UNL     1      -2.743  13.358  22.127  0.00  0.00    +0.000 A 
BRANCH  24  26
ATOM     26  C   UNL     1      -3.543  15.621  22.959  0.00  0.00    +0.000 A 
ATOM     27  C   UNL     1      -3.927  16.502  21.941  0.00  0.00    +0.000 A 
ATOM     28  C   UNL     1      -4.950  17.423  22.171  0.00  0.00    +0.000 A 
ATOM     29  C   UNL     1      -5.562  17.495  23.421  0.00  0.00    +0.000 A 
ATOM     30  C   UNL     1      -5.146  16.656  24.453  0.00  0.00    +0.000 A 
ATOM     31  C   UNL     1      -4.132  15.726  24.229  0.00  0.00    +0.000 A 
ENDBRANCH  24  26
BRANCH  25  32
ATOM     32  N   UNL     1      -3.863  12.949  21.411  0.00  0.00    +0.000 N 
ATOM     33  C   UNL     1      -5.107  12.625  21.910  0.00  0.00    +0.000 A 
ATOM     34  C   UNL     1      -5.931  12.233  20.880  0.00  0.00    +0.000 A 
ATOM     35  C   UNL     1      -5.172  12.302  19.694  0.00  0.00    +0.000 A 
ATOM     36  C   UNL     1      -3.916  12.738  20.043  0.00  0.00    +0.000 A 
ENDBRANCH  25  32
ENDBRANCH  20  21
ENDBRANCH   4  20
TORSDOF 6
ENDMDL
