MODEL 1
REMARK VINA RESULT:      -6.7      0.000      0.000
REMARK  Name = 
REMARK  5 active torsions:
REMARK  status: ('A' for Active; 'I' for Inactive)
REMARK    1  A    between atoms: O_1  and  C_2
REMARK    2  A    between atoms: C_2  and  C_3
REMARK    3  A    between atoms: C_2  and  C_10
REMARK    4  A    between atoms: C_3  and  N_4
REMARK    5  A    between atoms: C_10  and  N_11
REMARK                            x       y       z     vdW  Elec       q    Type
REMARK                         _______ _______ _______ _____ _____    ______ ____
ROOT
ATOM      1  N   UNL     1       4.823   4.776  18.550  0.00  0.00    +0.000 N 
ATOM      2  C   UNL     1       5.376   4.677  17.283  0.00  0.00    +0.000 A 
ATOM      3  C   UNL     1       6.186   3.688  16.703  0.00  0.00    +0.000 A 
ATOM      4  C   UNL     1       6.686   3.917  15.417  0.00  0.00    +0.000 A 
ATOM      5  C   UNL     1       6.392   5.097  14.744  0.00  0.00    +0.000 A 
ATOM      6 BR   UNL     1       7.159   5.415  13.043  0.00  0.00    +0.000 Br
ATOM      7  C   UNL     1       5.545   6.054  15.305  0.00  0.00    +0.000 A 
ATOM      8  C   UNL     1       5.005   5.830  16.588  0.00  0.00    +0.000 A 
ATOM      9  C   UNL     1       4.075   6.544  17.406  0.00  0.00    +0.000 A 
ATOM     10  C   UNL     1       3.308   7.711  17.204  0.00  0.00    +0.000 A 
ATOM     11  C   UNL     1       2.447   8.144  18.211  0.00  0.00    +0.000 A 
ATOM     12 BR   UNL     1       1.372   9.674  17.920  0.00  0.00    +0.000 Br
ATOM     13  C   UNL     1       2.359   7.461  19.422  0.00  0.00    +0.000 A 
ATOM     14  C   UNL     1       3.125   6.315  19.651  0.00  0.00    +0.000 A 
ATOM     15  C   UNL     1       3.968   5.862  18.622  0.00  0.00    +0.000 A 
ENDROOT
BRANCH   1  16
ATOM     16  C   UNL     1       5.217   3.941  19.684  0.00  0.00    +0.000 C 
BRANCH  16  17
ATOM     17  C   UNL     1       4.521   2.576  19.729  0.00  0.00    +0.000 C 
BRANCH  17  18
ATOM     18  O   UNL     1       5.289   1.661  20.527  0.00  0.00    +0.000 OA
ATOM     19  H   UNL     1       6.019   2.159  20.937  0.00  0.00    +0.000 HD
ENDBRANCH  17  18
BRANCH  17  20
ATOM     20  C   UNL     1       3.122   2.674  20.384  0.00  0.00    +0.000 C 
BRANCH  20  21
ATOM     21  N   UNL     1       2.004   1.976  19.731  0.00  0.00    +0.000 NA
ATOM     22  C   UNL     1       0.756   2.767  19.682  0.00  0.00    +0.000 C 
ATOM     23  C   UNL     1       0.830   4.017  18.777  0.00  0.00    +0.000 C 
ATOM     24  N   UNL     1       1.236   3.704  17.401  0.00  0.00    +0.000 NA
ATOM     25  C   UNL     1       2.440   2.863  17.372  0.00  0.00    +0.000 C 
ATOM     26  C   UNL     1       2.366   1.642  18.326  0.00  0.00    +0.000 C 
ATOM     27  H   UNL     1       1.405   4.567  16.887  0.00  0.00    +0.000 HD
ENDBRANCH  20  21
ENDBRANCH  17  20
ENDBRANCH  16  17
ENDBRANCH   1  16
TORSDOF 5
ENDMDL
MODEL 2
REMARK VINA RESULT:      -6.6      0.385      4.039
REMARK  Name = 
REMARK  5 active torsions:
REMARK  status: ('A' for Active; 'I' for Inactive)
REMARK    1  A    between atoms: O_1  and  C_2
REMARK    2  A    between atoms: C_2  and  C_3
REMARK    3  A    between atoms: C_2  and  C_10
REMARK    4  A    between atoms: C_3  and  N_4
REMARK    5  A    between atoms: C_10  and  N_11
REMARK                            x       y       z     vdW  Elec       q    Type
REMARK                         _______ _______ _______ _____ _____    ______ ____
ROOT
ATOM      1  N   UNL     1       4.921   4.976  18.876  0.00  0.00    +0.000 N 
ATOM      2  C   UNL     1       4.014   6.024  18.859  0.00  0.00    +0.000 A 
ATOM      3  C   UNL     1       3.203   6.560  19.872  0.00  0.00    +0.000 A 
ATOM      4  C   UNL     1       2.296   7.567  19.526  0.00  0.00    +0.000 A 
ATOM      5  C   UNL     1       2.201   8.011  18.212  0.00  0.00    +0.000 A 
ATOM      6 BR   UNL     1       0.900   9.310  17.760  0.00  0.00    +0.000 Br
ATOM      7  C   UNL     1       3.045   7.511  17.220  0.00  0.00    +0.000 A 
ATOM      8  C   UNL     1       3.988   6.516  17.553  0.00  0.00    +0.000 A 
ATOM      9  C   UNL     1       5.024   5.854  16.824  0.00  0.00    +0.000 A 
ATOM     10  C   UNL     1       5.524   5.996  15.512  0.00  0.00    +0.000 A 
ATOM     11  C   UNL     1       6.592   5.201  15.100  0.00  0.00    +0.000 A 
ATOM     12 BR   UNL     1       7.304   5.430  13.362  0.00  0.00    +0.000 Br
ATOM     13  C   UNL     1       7.150   4.252  15.952  0.00  0.00    +0.000 A 
ATOM     14  C   UNL     1       6.658   4.081  17.249  0.00  0.00    +0.000 A 
ATOM     15  C   UNL     1       5.601   4.905  17.672  0.00  0.00    +0.000 A 
ENDROOT
BRANCH   1  16
ATOM     16  C   UNL     1       5.022   3.996  19.957  0.00  0.00    +0.000 C 
BRANCH  16  17
ATOM     17  C   UNL     1       4.403   2.634  19.626  0.00  0.00    +0.000 C 
BRANCH  17  18
ATOM     18  O   UNL     1       5.226   1.582  20.154  0.00  0.00    +0.000 OA
ATOM     19  H   UNL     1       4.826   1.276  20.987  0.00  0.00    +0.000 HD
ENDBRANCH  17  18
BRANCH  17  20
ATOM     20  C   UNL     1       3.006   2.473  20.272  0.00  0.00    +0.000 C 
BRANCH  20  21
ATOM     21  N   UNL     1       1.928   1.900  19.450  0.00  0.00    +0.000 NA
ATOM     22  C   UNL     1       0.700   2.722  19.421  0.00  0.00    +0.000 C 
ATOM     23  C   UNL     1       0.863   4.081  18.705  0.00  0.00    +0.000 C 
ATOM     24  N   UNL     1       1.365   3.948  17.331  0.00  0.00    +0.000 NA
ATOM     25  C   UNL     1       2.553   3.087  17.274  0.00  0.00    +0.000 C 
ATOM     26  C   UNL     1       2.388   1.750  18.043  0.00  0.00    +0.000 C 
ATOM     27  H   UNL     1       1.586   4.868  16.954  0.00  0.00    +0.000 HD
ENDBRANCH  20  21
ENDBRANCH  17  20
ENDBRANCH  16  17
ENDBRANCH   1  16
TORSDOF 5
ENDMDL
MODEL 3
REMARK VINA RESULT:      -6.5      4.150      5.951
REMARK  Name = 
REMARK  5 active torsions:
REMARK  status: ('A' for Active; 'I' for Inactive)
REMARK    1  A    between atoms: O_1  and  C_2
REMARK    2  A    between atoms: C_2  and  C_3
REMARK    3  A    between atoms: C_2  and  C_10
REMARK    4  A    between atoms: C_3  and  N_4
REMARK    5  A    between atoms: C_10  and  N_11
REMARK                            x       y       z     vdW  Elec       q    Type
REMARK                         _______ _______ _______ _____ _____    ______ ____
ROOT
ATOM      1  N   UNL     1       3.067   7.249  18.198  0.00  0.00    +0.000 N 
ATOM      2  C   UNL     1       3.930   6.677  17.277  0.00  0.00    +0.000 A 
ATOM      3  C   UNL     1       4.706   7.251  16.257  0.00  0.00    +0.000 A 
ATOM      4  C   UNL     1       5.410   6.395  15.404  0.00  0.00    +0.000 A 
ATOM      5  C   UNL     1       5.331   5.016  15.564  0.00  0.00    +0.000 A 
ATOM      6 BR   UNL     1       6.223   3.884  14.337  0.00  0.00    +0.000 Br
ATOM      7  C   UNL     1       4.599   4.453  16.610  0.00  0.00    +0.000 A 
ATOM      8  C   UNL     1       3.905   5.299  17.500  0.00  0.00    +0.000 A 
ATOM      9  C   UNL     1       3.141   5.070  18.686  0.00  0.00    +0.000 A 
ATOM     10  C   UNL     1       2.848   3.912  19.437  0.00  0.00    +0.000 A 
ATOM     11  C   UNL     1       2.080   4.027  20.595  0.00  0.00    +0.000 A 
ATOM     12 BR   UNL     1       1.736   2.486  21.638  0.00  0.00    +0.000 Br
ATOM     13  C   UNL     1       1.575   5.260  21.001  0.00  0.00    +0.000 A 
ATOM     14  C   UNL     1       1.836   6.416  20.261  0.00  0.00    +0.000 A 
ATOM     15  C   UNL     1       2.636   6.302  19.111  0.00  0.00    +0.000 A 
ENDROOT
BRANCH   1  16
ATOM     16  C   UNL     1       2.567   8.621  18.111  0.00  0.00    +0.000 C 
BRANCH  16  17
ATOM     17  C   UNL     1       1.312   8.884  18.950  0.00  0.00    +0.000 C 
BRANCH  17  18
ATOM     18  O   UNL     1       1.659   9.619  20.133  0.00  0.00    +0.000 OA
ATOM     19  H   UNL     1       1.342   9.116  20.904  0.00  0.00    +0.000 HD
ENDBRANCH  17  18
BRANCH  17  20
ATOM     20  C   UNL     1       0.282   9.744  18.176  0.00  0.00    +0.000 C 
BRANCH  20  21
ATOM     21  N   UNL     1      -0.990  10.063  18.844  0.00  0.00    +0.000 NA
ATOM     22  C   UNL     1      -1.109  11.479  19.251  0.00  0.00    +0.000 C 
ATOM     23  C   UNL     1      -1.189  12.475  18.073  0.00  0.00    +0.000 C 
ATOM     24  N   UNL     1      -2.279  12.168  17.138  0.00  0.00    +0.000 NA
ATOM     25  C   UNL     1      -2.262  10.755  16.737  0.00  0.00    +0.000 C 
ATOM     26  C   UNL     1      -2.129   9.774  17.930  0.00  0.00    +0.000 C 
ATOM     27  H   UNL     1      -2.204  12.762  16.313  0.00  0.00    +0.000 HD
ENDBRANCH  20  21
ENDBRANCH  17  20
ENDBRANCH  16  17
ENDBRANCH   1  16
TORSDOF 5
ENDMDL
MODEL 4
REMARK VINA RESULT:      -6.5      3.445      6.737
REMARK  Name = 
REMARK  5 active torsions:
REMARK  status: ('A' for Active; 'I' for Inactive)
REMARK    1  A    between atoms: O_1  and  C_2
REMARK    2  A    between atoms: C_2  and  C_3
REMARK    3  A    between atoms: C_2  and  C_10
REMARK    4  A    between atoms: C_3  and  N_4
REMARK    5  A    between atoms: C_10  and  N_11
REMARK                            x       y       z     vdW  Elec       q    Type
REMARK                         _______ _______ _______ _____ _____    ______ ____
ROOT
ATOM      1  N   UNL     1       2.561   7.341  18.170  0.00  0.00    +0.000 N 
ATOM      2  C   UNL     1       1.839   8.231  18.950  0.00  0.00    +0.000 A 
ATOM      3  C   UNL     1       1.411   9.544  18.697  0.00  0.00    +0.000 A 
ATOM      4  C   UNL     1       0.780  10.242  19.731  0.00  0.00    +0.000 A 
ATOM      5  C   UNL     1       0.593   9.647  20.974  0.00  0.00    +0.000 A 
ATOM      6 BR   UNL     1      -0.183  10.650  22.380  0.00  0.00    +0.000 Br
ATOM      7  C   UNL     1       0.975   8.324  21.204  0.00  0.00    +0.000 A 
ATOM      8  C   UNL     1       1.586   7.592  20.165  0.00  0.00    +0.000 A 
ATOM      9  C   UNL     1       2.023   6.237  20.037  0.00  0.00    +0.000 A 
ATOM     10  C   UNL     1       1.948   5.114  20.888  0.00  0.00    +0.000 A 
ATOM     11  C   UNL     1       2.451   3.890  20.447  0.00  0.00    +0.000 A 
ATOM     12 BR   UNL     1       2.299   2.368  21.562  0.00  0.00    +0.000 Br
ATOM     13  C   UNL     1       3.052   3.770  19.197  0.00  0.00    +0.000 A 
ATOM     14  C   UNL     1       3.154   4.875  18.346  0.00  0.00    +0.000 A 
ATOM     15  C   UNL     1       2.618   6.099  18.780  0.00  0.00    +0.000 A 
ENDROOT
BRANCH   1  16
ATOM     16  C   UNL     1       3.288   7.716  16.958  0.00  0.00    +0.000 C 
BRANCH  16  17
ATOM     17  C   UNL     1       4.551   6.886  16.703  0.00  0.00    +0.000 C 
BRANCH  17  18
ATOM     18  O   UNL     1       4.980   7.052  15.343  0.00  0.00    +0.000 OA
ATOM     19  H   UNL     1       4.198   7.276  14.806  0.00  0.00    +0.000 HD
ENDBRANCH  17  18
BRANCH  17  20
ATOM     20  C   UNL     1       5.724   7.349  17.600  0.00  0.00    +0.000 C 
BRANCH  20  21
ATOM     21  N   UNL     1       7.095   7.062  17.147  0.00  0.00    +0.000 NA
ATOM     22  C   UNL     1       8.096   7.076  18.234  0.00  0.00    +0.000 C 
ATOM     23  C   UNL     1       7.932   5.938  19.265  0.00  0.00    +0.000 C 
ATOM     24  N   UNL     1       7.934   4.604  18.650  0.00  0.00    +0.000 NA
ATOM     25  C   UNL     1       7.003   4.533  17.515  0.00  0.00    +0.000 C 
ATOM     26  C   UNL     1       7.149   5.713  16.519  0.00  0.00    +0.000 C 
ATOM     27  H   UNL     1       7.684   3.903  19.346  0.00  0.00    +0.000 HD
ENDBRANCH  20  21
ENDBRANCH  17  20
ENDBRANCH  16  17
ENDBRANCH   1  16
TORSDOF 5
ENDMDL
MODEL 5
REMARK VINA RESULT:      -6.3      3.457      5.785
REMARK  Name = 
REMARK  5 active torsions:
REMARK  status: ('A' for Active; 'I' for Inactive)
REMARK    1  A    between atoms: O_1  and  C_2
REMARK    2  A    between atoms: C_2  and  C_3
REMARK    3  A    between atoms: C_2  and  C_10
REMARK    4  A    between atoms: C_3  and  N_4
REMARK    5  A    between atoms: C_10  and  N_11
REMARK                            x       y       z     vdW  Elec       q    Type
REMARK                         _______ _______ _______ _____ _____    ______ ____
ROOT
ATOM      1  N   UNL     1       2.832   7.252  18.145  0.00  0.00    +0.000 N 
ATOM      2  C   UNL     1       2.863   6.090  18.900  0.00  0.00    +0.000 A 
ATOM      3  C   UNL     1       3.527   4.870  18.692  0.00  0.00    +0.000 A 
ATOM      4  C   UNL     1       3.282   3.825  19.588  0.00  0.00    +0.000 A 
ATOM      5  C   UNL     1       2.398   3.996  20.647  0.00  0.00    +0.000 A 
ATOM      6 BR   UNL     1       2.019   2.533  21.788  0.00  0.00    +0.000 Br
ATOM      7  C   UNL     1       1.779   5.225  20.879  0.00  0.00    +0.000 A 
ATOM      8  C   UNL     1       2.036   6.302  20.005  0.00  0.00    +0.000 A 
ATOM      9  C   UNL     1       1.642   7.675  19.988  0.00  0.00    +0.000 A 
ATOM     10  C   UNL     1       0.894   8.476  20.878  0.00  0.00    +0.000 A 
ATOM     11  C   UNL     1       0.706   9.826  20.585  0.00  0.00    +0.000 A 
ATOM     12 BR   UNL     1      -0.244  10.917  21.806  0.00  0.00    +0.000 Br
ATOM     13  C   UNL     1       1.217  10.385  19.417  0.00  0.00    +0.000 A 
ATOM     14  C   UNL     1       1.944   9.605  18.513  0.00  0.00    +0.000 A 
ATOM     15  C   UNL     1       2.158   8.253  18.825  0.00  0.00    +0.000 A 
ENDROOT
BRANCH   1  16
ATOM     16  C   UNL     1       3.306   7.346  16.765  0.00  0.00    +0.000 C 
BRANCH  16  17
ATOM     17  C   UNL     1       4.678   6.706  16.529  0.00  0.00    +0.000 C 
BRANCH  17  18
ATOM     18  O   UNL     1       5.085   6.909  15.167  0.00  0.00    +0.000 OA
ATOM     19  H   UNL     1       5.231   6.035  14.763  0.00  0.00    +0.000 HD
ENDBRANCH  17  18
BRANCH  17  20
ATOM     20  C   UNL     1       5.766   7.353  17.421  0.00  0.00    +0.000 C 
BRANCH  20  21
ATOM     21  N   UNL     1       7.175   7.078  17.098  0.00  0.00    +0.000 NA
ATOM     22  C   UNL     1       8.069   7.094  18.275  0.00  0.00    +0.000 C 
ATOM     23  C   UNL     1       7.817   5.948  19.280  0.00  0.00    +0.000 C 
ATOM     24  N   UNL     1       7.888   4.619  18.662  0.00  0.00    +0.000 NA
ATOM     25  C   UNL     1       7.070   4.547  17.443  0.00  0.00    +0.000 C 
ATOM     26  C   UNL     1       7.300   5.734  16.472  0.00  0.00    +0.000 C 
ATOM     27  H   UNL     1       7.579   3.911  19.327  0.00  0.00    +0.000 HD
ENDBRANCH  20  21
ENDBRANCH  17  20
ENDBRANCH  16  17
ENDBRANCH   1  16
TORSDOF 5
ENDMDL
MODEL 6
REMARK VINA RESULT:      -6.3      4.064      5.871
REMARK  Name = 
REMARK  5 active torsions:
REMARK  status: ('A' for Active; 'I' for Inactive)
REMARK    1  A    between atoms: O_1  and  C_2
REMARK    2  A    between atoms: C_2  and  C_3
REMARK    3  A    between atoms: C_2  and  C_10
REMARK    4  A    between atoms: C_3  and  N_4
REMARK    5  A    between atoms: C_10  and  N_11
REMARK                            x       y       z     vdW  Elec       q    Type
REMARK                         _______ _______ _______ _____ _____    ______ ____
ROOT
ATOM      1  N   UNL     1       2.583   6.900  18.119  0.00  0.00    +0.000 N 
ATOM      2  C   UNL     1       3.641   6.567  17.289  0.00  0.00    +0.000 A 
ATOM      3  C   UNL     1       4.292   7.298  16.282  0.00  0.00    +0.000 A 
ATOM      4  C   UNL     1       5.276   6.651  15.529  0.00  0.00    +0.000 A 
ATOM      5  C   UNL     1       5.589   5.318  15.771  0.00  0.00    +0.000 A 
ATOM      6 BR   UNL     1       6.861   4.446  14.674  0.00  0.00    +0.000 Br
ATOM      7  C   UNL     1       4.976   4.611  16.806  0.00  0.00    +0.000 A 
ATOM      8  C   UNL     1       4.001   5.254  17.598  0.00  0.00    +0.000 A 
ATOM      9  C   UNL     1       3.250   4.863  18.749  0.00  0.00    +0.000 A 
ATOM     10  C   UNL     1       3.250   3.704  19.554  0.00  0.00    +0.000 A 
ATOM     11  C   UNL     1       2.397   3.639  20.655  0.00  0.00    +0.000 A 
ATOM     12 BR   UNL     1       2.438   2.112  21.773  0.00  0.00    +0.000 Br
ATOM     13  C   UNL     1       1.527   4.684  20.951  0.00  0.00    +0.000 A 
ATOM     14  C   UNL     1       1.496   5.833  20.154  0.00  0.00    +0.000 A 
ATOM     15  C   UNL     1       2.378   5.909  19.064  0.00  0.00    +0.000 A 
ENDROOT
BRANCH   1  16
ATOM     16  C   UNL     1       1.714   8.058  17.914  0.00  0.00    +0.000 C 
BRANCH  16  17
ATOM     17  C   UNL     1       2.294   9.376  18.438  0.00  0.00    +0.000 C 
BRANCH  17  18
ATOM     18  O   UNL     1       1.931  10.454  17.561  0.00  0.00    +0.000 OA
ATOM     19  H   UNL     1       1.500  10.071  16.776  0.00  0.00    +0.000 HD
ENDBRANCH  17  18
BRANCH  17  20
ATOM     20  C   UNL     1       1.728   9.729  19.836  0.00  0.00    +0.000 C 
BRANCH  20  21
ATOM     21  N   UNL     1       0.274   9.627  20.038  0.00  0.00    +0.000 NA
ATOM     22  C   UNL     1      -0.106   8.875  21.252  0.00  0.00    +0.000 C 
ATOM     23  C   UNL     1       0.281   9.570  22.577  0.00  0.00    +0.000 C 
ATOM     24  N   UNL     1      -0.257  10.932  22.687  0.00  0.00    +0.000 NA
ATOM     25  C   UNL     1       0.029  11.723  21.482  0.00  0.00    +0.000 C 
ATOM     26  C   UNL     1      -0.317  10.987  20.162  0.00  0.00    +0.000 C 
ATOM     27  H   UNL     1       0.138  11.394  23.505  0.00  0.00    +0.000 HD
ENDBRANCH  20  21
ENDBRANCH  17  20
ENDBRANCH  16  17
ENDBRANCH   1  16
TORSDOF 5
ENDMDL
MODEL 7
REMARK VINA RESULT:      -6.3      3.956      6.850
REMARK  Name = 
REMARK  5 active torsions:
REMARK  status: ('A' for Active; 'I' for Inactive)
REMARK    1  A    between atoms: O_1  and  C_2
REMARK    2  A    between atoms: C_2  and  C_3
REMARK    3  A    between atoms: C_2  and  C_10
REMARK    4  A    between atoms: C_3  and  N_4
REMARK    5  A    between atoms: C_10  and  N_11
REMARK                            x       y       z     vdW  Elec       q    Type
REMARK                         _______ _______ _______ _____ _____    ______ ____
ROOT
ATOM      1  N   UNL     1       3.185   7.213  18.267  0.00  0.00    +0.000 N 
ATOM      2  C   UNL     1       2.667   6.230  19.096  0.00  0.00    +0.000 A 
ATOM      3  C   UNL     1       1.751   6.305  20.158  0.00  0.00    +0.000 A 
ATOM      4  C   UNL     1       1.493   5.141  20.889  0.00  0.00    +0.000 A 
ATOM      5  C   UNL     1       2.138   3.950  20.572  0.00  0.00    +0.000 A 
ATOM      6 BR   UNL     1       1.835   2.415  21.638  0.00  0.00    +0.000 Br
ATOM      7  C   UNL     1       3.008   3.869  19.484  0.00  0.00    +0.000 A 
ATOM      8  C   UNL     1       3.259   5.024  18.714  0.00  0.00    +0.000 A 
ATOM      9  C   UNL     1       4.015   5.275  17.527  0.00  0.00    +0.000 A 
ATOM     10  C   UNL     1       4.744   4.441  16.653  0.00  0.00    +0.000 A 
ATOM     11  C   UNL     1       5.360   4.999  15.534  0.00  0.00    +0.000 A 
ATOM     12 BR   UNL     1       6.288   3.875  14.326  0.00  0.00    +0.000 Br
ATOM     13  C   UNL     1       5.292   6.368  15.286  0.00  0.00    +0.000 A 
ATOM     14  C   UNL     1       4.592   7.215  16.150  0.00  0.00    +0.000 A 
ATOM     15  C   UNL     1       3.946   6.645  17.260  0.00  0.00    +0.000 A 
ENDROOT
BRANCH   1  16
ATOM     16  C   UNL     1       3.069   8.648  18.525  0.00  0.00    +0.000 C 
BRANCH  16  17
ATOM     17  C   UNL     1       1.949   9.337  17.738  0.00  0.00    +0.000 C 
BRANCH  17  18
ATOM     18  O   UNL     1       0.881   8.408  17.491  0.00  0.00    +0.000 OA
ATOM     19  H   UNL     1       0.039   8.890  17.575  0.00  0.00    +0.000 HD
ENDBRANCH  17  18
BRANCH  17  20
ATOM     20  C   UNL     1       1.340  10.517  18.532  0.00  0.00    +0.000 C 
BRANCH  20  21
ATOM     21  N   UNL     1       0.021  10.322  19.155  0.00  0.00    +0.000 NA
ATOM     22  C   UNL     1       0.071   9.579  20.432  0.00  0.00    +0.000 C 
ATOM     23  C   UNL     1       0.778  10.334  21.579  0.00  0.00    +0.000 C 
ATOM     24  N   UNL     1       0.199  11.659  21.835  0.00  0.00    +0.000 NA
ATOM     25  C   UNL     1       0.060  12.434  20.595  0.00  0.00    +0.000 C 
ATOM     26  C   UNL     1      -0.605  11.642  19.440  0.00  0.00    +0.000 C 
ATOM     27  H   UNL     1       0.782  12.168  22.498  0.00  0.00    +0.000 HD
ENDBRANCH  20  21
ENDBRANCH  17  20
ENDBRANCH  16  17
ENDBRANCH   1  16
TORSDOF 5
ENDMDL
MODEL 8
REMARK VINA RESULT:      -6.1      5.017      8.150
REMARK  Name = 
REMARK  5 active torsions:
REMARK  status: ('A' for Active; 'I' for Inactive)
REMARK    1  A    between atoms: O_1  and  C_2
REMARK    2  A    between atoms: C_2  and  C_3
REMARK    3  A    between atoms: C_2  and  C_10
REMARK    4  A    between atoms: C_3  and  N_4
REMARK    5  A    between atoms: C_10  and  N_11
REMARK                            x       y       z     vdW  Elec       q    Type
REMARK                         _______ _______ _______ _____ _____    ______ ____
ROOT
ATOM      1  N   UNL     1       0.762  10.726  20.086  0.00  0.00    +0.000 N 
ATOM      2  C   UNL     1       0.039  11.245  21.149  0.00  0.00    +0.000 A 
ATOM      3  C   UNL     1      -0.670  10.610  22.182  0.00  0.00    +0.000 A 
ATOM      4  C   UNL     1      -1.401  11.408  23.067  0.00  0.00    +0.000 A 
ATOM      5  C   UNL     1      -1.426  12.790  22.916  0.00  0.00    +0.000 A 
ATOM      6 BR   UNL     1      -2.498  13.835  24.075  0.00  0.00    +0.000 Br
ATOM      7  C   UNL     1      -0.679  13.420  21.919  0.00  0.00    +0.000 A 
ATOM      8  C   UNL     1       0.090  12.635  21.034  0.00  0.00    +0.000 A 
ATOM      9  C   UNL     1       1.000  12.945  19.977  0.00  0.00    +0.000 A 
ATOM     10  C   UNL     1       1.512  14.158  19.468  0.00  0.00    +0.000 A 
ATOM     11  C   UNL     1       2.434  14.123  18.423  0.00  0.00    +0.000 A 
ATOM     12 BR   UNL     1       3.168  15.744  17.778  0.00  0.00    +0.000 Br
ATOM     13  C   UNL     1       2.832  12.915  17.857  0.00  0.00    +0.000 A 
ATOM     14  C   UNL     1       2.322  11.703  18.333  0.00  0.00    +0.000 A 
ATOM     15  C   UNL     1       1.417  11.739  19.406  0.00  0.00    +0.000 A 
ENDROOT
BRANCH   1  16
ATOM     16  C   UNL     1       0.704   9.329  19.660  0.00  0.00    +0.000 C 
BRANCH  16  17
ATOM     17  C   UNL     1       1.868   8.471  20.166  0.00  0.00    +0.000 C 
BRANCH  17  18
ATOM     18  O   UNL     1       1.528   7.883  21.432  0.00  0.00    +0.000 OA
ATOM     19  H   UNL     1       1.485   8.596  22.093  0.00  0.00    +0.000 HD
ENDBRANCH  17  18
BRANCH  17  20
ATOM     20  C   UNL     1       2.173   7.301  19.198  0.00  0.00    +0.000 C 
BRANCH  20  21
ATOM     21  N   UNL     1       2.691   6.049  19.772  0.00  0.00    +0.000 NA
ATOM     22  C   UNL     1       1.843   4.871  19.492  0.00  0.00    +0.000 C 
ATOM     23  C   UNL     1       1.795   4.462  18.003  0.00  0.00    +0.000 C 
ATOM     24  N   UNL     1       3.127   4.221  17.433  0.00  0.00    +0.000 NA
ATOM     25  C   UNL     1       4.047   5.327  17.728  0.00  0.00    +0.000 C 
ATOM     26  C   UNL     1       4.042   5.757  19.217  0.00  0.00    +0.000 C 
ATOM     27  H   UNL     1       3.052   4.092  16.425  0.00  0.00    +0.000 HD
ENDBRANCH  20  21
ENDBRANCH  17  20
ENDBRANCH  16  17
ENDBRANCH   1  16
TORSDOF 5
ENDMDL
MODEL 9
REMARK VINA RESULT:      -6.1      4.123      5.922
REMARK  Name = 
REMARK  5 active torsions:
REMARK  status: ('A' for Active; 'I' for Inactive)
REMARK    1  A    between atoms: O_1  and  C_2
REMARK    2  A    between atoms: C_2  and  C_3
REMARK    3  A    between atoms: C_2  and  C_10
REMARK    4  A    between atoms: C_3  and  N_4
REMARK    5  A    between atoms: C_10  and  N_11
REMARK                            x       y       z     vdW  Elec       q    Type
REMARK                         _______ _______ _______ _____ _____    ______ ____
ROOT
ATOM      1  N   UNL     1       2.598   7.058  18.041  0.00  0.00    +0.000 N 
ATOM      2  C   UNL     1       3.663   6.677  17.240  0.00  0.00    +0.000 A 
ATOM      3  C   UNL     1       4.347   7.362  16.223  0.00  0.00    +0.000 A 
ATOM      4  C   UNL     1       5.330   6.671  15.508  0.00  0.00    +0.000 A 
ATOM      5  C   UNL     1       5.609   5.340  15.797  0.00  0.00    +0.000 A 
ATOM      6 BR   UNL     1       6.881   4.407  14.750  0.00  0.00    +0.000 Br
ATOM      7  C   UNL     1       4.963   4.679  16.842  0.00  0.00    +0.000 A 
ATOM      8  C   UNL     1       3.989   5.366  17.597  0.00  0.00    +0.000 A 
ATOM      9  C   UNL     1       3.209   5.028  18.745  0.00  0.00    +0.000 A 
ATOM     10  C   UNL     1       3.171   3.895  19.586  0.00  0.00    +0.000 A 
ATOM     11  C   UNL     1       2.298   3.883  20.673  0.00  0.00    +0.000 A 
ATOM     12 BR   UNL     1       2.286   2.391  21.838  0.00  0.00    +0.000 Br
ATOM     13  C   UNL     1       1.445   4.955  20.921  0.00  0.00    +0.000 A 
ATOM     14  C   UNL     1       1.453   6.079  20.089  0.00  0.00    +0.000 A 
ATOM     15  C   UNL     1       2.356   6.102  19.012  0.00  0.00    +0.000 A 
ENDROOT
BRANCH   1  16
ATOM     16  C   UNL     1       1.758   8.228  17.785  0.00  0.00    +0.000 C 
BRANCH  16  17
ATOM     17  C   UNL     1       2.086   9.438  18.666  0.00  0.00    +0.000 C 
BRANCH  17  18
ATOM     18  O   UNL     1       2.136  10.628  17.863  0.00  0.00    +0.000 OA
ATOM     19  H   UNL     1       2.427  11.363  18.432  0.00  0.00    +0.000 HD
ENDBRANCH  17  18
BRANCH  17  20
ATOM     20  C   UNL     1       0.996   9.670  19.740  0.00  0.00    +0.000 C 
BRANCH  20  21
ATOM     21  N   UNL     1       1.386  10.355  20.983  0.00  0.00    +0.000 NA
ATOM     22  C   UNL     1       0.624  11.594  21.244  0.00  0.00    +0.000 C 
ATOM     23  C   UNL     1      -0.874  11.368  21.545  0.00  0.00    +0.000 C 
ATOM     24  N   UNL     1      -1.100  10.441  22.661  0.00  0.00    +0.000 NA
ATOM     25  C   UNL     1      -0.321   9.206  22.501  0.00  0.00    +0.000 C 
ATOM     26  C   UNL     1       1.169   9.454  22.148  0.00  0.00    +0.000 C 
ATOM     27  H   UNL     1      -2.092  10.217  22.729  0.00  0.00    +0.000 HD
ENDBRANCH  20  21
ENDBRANCH  17  20
ENDBRANCH  16  17
ENDBRANCH   1  16
TORSDOF 5
ENDMDL
