MODEL 1
REMARK VINA RESULT:      -5.6      0.000      0.000
REMARK  Name = 
REMARK  5 active torsions:
REMARK  status: ('A' for Active; 'I' for Inactive)
REMARK    1  A    between atoms: N_6  and  C_7
REMARK    2  A    between atoms: C_7  and  O_8
REMARK    3  A    between atoms: O_8  and  C_9
REMARK    4  A    between atoms: C_9  and  C_10
REMARK    5  A    between atoms: C_10  and  O_11
REMARK                            x       y       z     vdW  Elec       q    Type
REMARK                         _______ _______ _______ _____ _____    ______ ____
ROOT
ATOM      1  O   UNL     1       1.228   2.864  22.128  0.00  0.00    +0.000 OA
ATOM      2  C   UNL     1       2.107   3.166  21.331  0.00  0.00    +0.000 A 
ATOM      3  C   UNL     1       2.032   4.403  20.551  0.00  0.00    +0.000 A 
ATOM      4  C   UNL     1       3.022   4.715  19.703  0.00  0.00    +0.000 A 
ATOM      5  I   UNL     1       2.776   6.485  18.609  0.00  0.00    +0.000 I 
ATOM      6  N   UNL     1       4.137   3.891  19.572  0.00  0.00    +0.000 N 
ATOM      7  C   UNL     1       4.239   2.694  20.274  0.00  0.00    +0.000 A 
ATOM      8  O   UNL     1       5.194   1.925  20.202  0.00  0.00    +0.000 OA
ATOM      9  N   UNL     1       3.197   2.389  21.102  0.00  0.00    +0.000 N 
ATOM     10  H   UNL     1       3.270   1.532  21.627  0.00  0.00    +0.000 HD
ENDROOT
BRANCH   6  11
ATOM     11  C   UNL     1       5.266   4.225  18.713  0.00  0.00    +0.000 C 
BRANCH  11  12
ATOM     12  O   UNL     1       6.283   4.923  19.435  0.00  0.00    +0.000 OA
BRANCH  12  13
ATOM     13  C   UNL     1       7.362   5.363  18.606  0.00  0.00    +0.000 C 
BRANCH  13  14
ATOM     14  C   UNL     1       6.829   6.464  17.694  0.00  0.00    +0.000 C 
BRANCH  14  15
ATOM     15  O   UNL     1       7.533   6.448  16.453  0.00  0.00    +0.000 OA
ATOM     16  H   UNL     1       8.237   7.120  16.545  0.00  0.00    +0.000 HD
ENDBRANCH  14  15
ENDBRANCH  13  14
ENDBRANCH  12  13
ENDBRANCH  11  12
ENDBRANCH   6  11
TORSDOF 5
ENDMDL
MODEL 2
REMARK VINA RESULT:      -5.5      2.742      5.508
REMARK  Name = 
REMARK  5 active torsions:
REMARK  status: ('A' for Active; 'I' for Inactive)
REMARK    1  A    between atoms: N_6  and  C_7
REMARK    2  A    between atoms: C_7  and  O_8
REMARK    3  A    between atoms: O_8  and  C_9
REMARK    4  A    between atoms: C_9  and  C_10
REMARK    5  A    between atoms: C_10  and  O_11
REMARK                            x       y       z     vdW  Elec       q    Type
REMARK                         _______ _______ _______ _____ _____    ______ ____
ROOT
ATOM      1  O   UNL     1       6.993   5.134  13.776  0.00  0.00    +0.000 OA
ATOM      2  C   UNL     1       6.793   5.184  14.983  0.00  0.00    +0.000 A 
ATOM      3  C   UNL     1       5.588   5.811  15.528  0.00  0.00    +0.000 A 
ATOM      4  C   UNL     1       5.389   5.829  16.853  0.00  0.00    +0.000 A 
ATOM      5  I   UNL     1       3.653   6.799  17.512  0.00  0.00    +0.000 I 
ATOM      6  N   UNL     1       6.301   5.235  17.721  0.00  0.00    +0.000 N 
ATOM      7  C   UNL     1       7.472   4.649  17.251  0.00  0.00    +0.000 A 
ATOM      8  O   UNL     1       8.315   4.110  17.963  0.00  0.00    +0.000 OA
ATOM      9  N   UNL     1       7.662   4.680  15.899  0.00  0.00    +0.000 N 
ATOM     10  H   UNL     1       8.499   4.242  15.547  0.00  0.00    +0.000 HD
ENDROOT
BRANCH   6  11
ATOM     11  C   UNL     1       6.092   5.172  19.162  0.00  0.00    +0.000 C 
BRANCH  11  12
ATOM     12  O   UNL     1       5.710   3.860  19.577  0.00  0.00    +0.000 OA
BRANCH  12  13
ATOM     13  C   UNL     1       4.321   3.583  19.370  0.00  0.00    +0.000 C 
BRANCH  13  14
ATOM     14  C   UNL     1       4.101   2.095  19.623  0.00  0.00    +0.000 C 
BRANCH  14  15
ATOM     15  O   UNL     1       3.979   1.406  18.379  0.00  0.00    +0.000 OA
ATOM     16  H   UNL     1       3.088   1.006  18.391  0.00  0.00    +0.000 HD
ENDBRANCH  14  15
ENDBRANCH  13  14
ENDBRANCH  12  13
ENDBRANCH  11  12
ENDBRANCH   6  11
TORSDOF 5
ENDMDL
MODEL 3
REMARK VINA RESULT:      -5.4      1.706      5.111
REMARK  Name = 
REMARK  5 active torsions:
REMARK  status: ('A' for Active; 'I' for Inactive)
REMARK    1  A    between atoms: N_6  and  C_7
REMARK    2  A    between atoms: C_7  and  O_8
REMARK    3  A    between atoms: O_8  and  C_9
REMARK    4  A    between atoms: C_9  and  C_10
REMARK    5  A    between atoms: C_10  and  O_11
REMARK                            x       y       z     vdW  Elec       q    Type
REMARK                         _______ _______ _______ _____ _____    ______ ____
ROOT
ATOM      1  O   UNL     1       7.213   5.012  16.173  0.00  0.00    +0.000 OA
ATOM      2  C   UNL     1       6.327   5.033  17.019  0.00  0.00    +0.000 A 
ATOM      3  C   UNL     1       5.291   6.066  17.008  0.00  0.00    +0.000 A 
ATOM      4  C   UNL     1       4.322   6.047  17.935  0.00  0.00    +0.000 A 
ATOM      5  I   UNL     1       2.927   7.607  17.843  0.00  0.00    +0.000 I 
ATOM      6  N   UNL     1       4.273   5.041  18.896  0.00  0.00    +0.000 N 
ATOM      7  C   UNL     1       5.251   4.053  18.961  0.00  0.00    +0.000 A 
ATOM      8  O   UNL     1       5.263   3.140  19.782  0.00  0.00    +0.000 OA
ATOM      9  N   UNL     1       6.242   4.122  18.024  0.00  0.00    +0.000 N 
ATOM     10  H   UNL     1       6.945   3.400  18.052  0.00  0.00    +0.000 HD
ENDROOT
BRANCH   6  11
ATOM     11  C   UNL     1       3.203   4.943  19.879  0.00  0.00    +0.000 C 
BRANCH  11  12
ATOM     12  O   UNL     1       2.052   4.293  19.337  0.00  0.00    +0.000 OA
BRANCH  12  13
ATOM     13  C   UNL     1       1.847   2.977  19.860  0.00  0.00    +0.000 C 
BRANCH  13  14
ATOM     14  C   UNL     1       1.597   3.107  21.359  0.00  0.00    +0.000 C 
BRANCH  14  15
ATOM     15  O   UNL     1       2.640   2.452  22.082  0.00  0.00    +0.000 OA
ATOM     16  H   UNL     1       2.193   1.772  22.621  0.00  0.00    +0.000 HD
ENDBRANCH  14  15
ENDBRANCH  13  14
ENDBRANCH  12  13
ENDBRANCH  11  12
ENDBRANCH   6  11
TORSDOF 5
ENDMDL
MODEL 4
REMARK VINA RESULT:      -5.4      1.742      1.784
REMARK  Name = 
REMARK  5 active torsions:
REMARK  status: ('A' for Active; 'I' for Inactive)
REMARK    1  A    between atoms: N_6  and  C_7
REMARK    2  A    between atoms: C_7  and  O_8
REMARK    3  A    between atoms: O_8  and  C_9
REMARK    4  A    between atoms: C_9  and  C_10
REMARK    5  A    between atoms: C_10  and  O_11
REMARK                            x       y       z     vdW  Elec       q    Type
REMARK                         _______ _______ _______ _____ _____    ______ ____
ROOT
ATOM      1  O   UNL     1       0.337   2.164  18.546  0.00  0.00    +0.000 OA
ATOM      2  C   UNL     1       1.401   2.744  18.724  0.00  0.00    +0.000 A 
ATOM      3  C   UNL     1       1.542   4.173  18.444  0.00  0.00    +0.000 A 
ATOM      4  C   UNL     1       2.714   4.784  18.671  0.00  0.00    +0.000 A 
ATOM      5  I   UNL     1       2.805   6.819  18.184  0.00  0.00    +0.000 I 
ATOM      6  N   UNL     1       3.796   4.080  19.195  0.00  0.00    +0.000 N 
ATOM      7  C   UNL     1       3.716   2.715  19.453  0.00  0.00    +0.000 A 
ATOM      8  O   UNL     1       4.631   2.040  19.915  0.00  0.00    +0.000 OA
ATOM      9  N   UNL     1       2.519   2.118  19.178  0.00  0.00    +0.000 N 
ATOM     10  H   UNL     1       2.446   1.133  19.378  0.00  0.00    +0.000 HD
ENDROOT
BRANCH   6  11
ATOM     11  C   UNL     1       5.065   4.716  19.520  0.00  0.00    +0.000 C 
BRANCH  11  12
ATOM     12  O   UNL     1       6.127   4.207  18.711  0.00  0.00    +0.000 OA
BRANCH  12  13
ATOM     13  C   UNL     1       6.021   4.584  17.335  0.00  0.00    +0.000 C 
BRANCH  13  14
ATOM     14  C   UNL     1       7.435   4.732  16.783  0.00  0.00    +0.000 C 
BRANCH  14  15
ATOM     15  O   UNL     1       7.497   5.855  15.904  0.00  0.00    +0.000 OA
ATOM     16  H   UNL     1       8.440   6.107  15.873  0.00  0.00    +0.000 HD
ENDBRANCH  14  15
ENDBRANCH  13  14
ENDBRANCH  12  13
ENDBRANCH  11  12
ENDBRANCH   6  11
TORSDOF 5
ENDMDL
MODEL 5
REMARK VINA RESULT:      -5.4      3.587      5.136
REMARK  Name = 
REMARK  5 active torsions:
REMARK  status: ('A' for Active; 'I' for Inactive)
REMARK    1  A    between atoms: N_6  and  C_7
REMARK    2  A    between atoms: C_7  and  O_8
REMARK    3  A    between atoms: O_8  and  C_9
REMARK    4  A    between atoms: C_9  and  C_10
REMARK    5  A    between atoms: C_10  and  O_11
REMARK                            x       y       z     vdW  Elec       q    Type
REMARK                         _______ _______ _______ _____ _____    ______ ____
ROOT
ATOM      1  O   UNL     1       7.586   5.470  20.463  0.00  0.00    +0.000 OA
ATOM      2  C   UNL     1       7.062   5.449  19.355  0.00  0.00    +0.000 A 
ATOM      3  C   UNL     1       5.705   4.936  19.167  0.00  0.00    +0.000 A 
ATOM      4  C   UNL     1       5.153   4.947  17.946  0.00  0.00    +0.000 A 
ATOM      5  I   UNL     1       3.225   4.139  17.797  0.00  0.00    +0.000 I 
ATOM      6  N   UNL     1       5.844   5.466  16.854  0.00  0.00    +0.000 N 
ATOM      7  C   UNL     1       7.145   5.942  16.981  0.00  0.00    +0.000 A 
ATOM      8  O   UNL     1       7.807   6.411  16.059  0.00  0.00    +0.000 OA
ATOM      9  N   UNL     1       7.691   5.883  18.231  0.00  0.00    +0.000 N 
ATOM     10  H   UNL     1       8.627   6.241  18.336  0.00  0.00    +0.000 HD
ENDROOT
BRANCH   6  11
ATOM     11  C   UNL     1       5.258   5.560  15.524  0.00  0.00    +0.000 C 
BRANCH  11  12
ATOM     12  O   UNL     1       5.218   4.285  14.879  0.00  0.00    +0.000 OA
BRANCH  12  13
ATOM     13  C   UNL     1       6.303   4.079  13.968  0.00  0.00    +0.000 C 
BRANCH  13  14
ATOM     14  C   UNL     1       5.718   3.547  12.663  0.00  0.00    +0.000 C 
BRANCH  14  15
ATOM     15  O   UNL     1       6.578   2.545  12.121  0.00  0.00    +0.000 OA
ATOM     16  H   UNL     1       7.409   3.009  11.900  0.00  0.00    +0.000 HD
ENDBRANCH  14  15
ENDBRANCH  13  14
ENDBRANCH  12  13
ENDBRANCH  11  12
ENDBRANCH   6  11
TORSDOF 5
ENDMDL
MODEL 6
REMARK VINA RESULT:      -5.3      1.824      4.886
REMARK  Name = 
REMARK  5 active torsions:
REMARK  status: ('A' for Active; 'I' for Inactive)
REMARK    1  A    between atoms: N_6  and  C_7
REMARK    2  A    between atoms: C_7  and  O_8
REMARK    3  A    between atoms: O_8  and  C_9
REMARK    4  A    between atoms: C_9  and  C_10
REMARK    5  A    between atoms: C_10  and  O_11
REMARK                            x       y       z     vdW  Elec       q    Type
REMARK                         _______ _______ _______ _____ _____    ______ ____
ROOT
ATOM      1  O   UNL     1       7.285   4.777  18.093  0.00  0.00    +0.000 OA
ATOM      2  C   UNL     1       6.069   4.670  18.196  0.00  0.00    +0.000 A 
ATOM      3  C   UNL     1       5.193   5.837  18.084  0.00  0.00    +0.000 A 
ATOM      4  C   UNL     1       3.864   5.682  18.180  0.00  0.00    +0.000 A 
ATOM      5  I   UNL     1       2.720   7.433  18.054  0.00  0.00    +0.000 I 
ATOM      6  N   UNL     1       3.302   4.421  18.358  0.00  0.00    +0.000 N 
ATOM      7  C   UNL     1       4.098   3.287  18.494  0.00  0.00    +0.000 A 
ATOM      8  O   UNL     1       3.664   2.149  18.653  0.00  0.00    +0.000 OA
ATOM      9  N   UNL     1       5.447   3.484  18.428  0.00  0.00    +0.000 N 
ATOM     10  H   UNL     1       6.031   2.666  18.508  0.00  0.00    +0.000 HD
ENDROOT
BRANCH   6  11
ATOM     11  C   UNL     1       1.863   4.198  18.400  0.00  0.00    +0.000 C 
BRANCH  11  12
ATOM     12  O   UNL     1       1.324   4.504  19.687  0.00  0.00    +0.000 OA
BRANCH  12  13
ATOM     13  C   UNL     1       1.170   3.354  20.523  0.00  0.00    +0.000 C 
BRANCH  13  14
ATOM     14  C   UNL     1       2.093   3.525  21.725  0.00  0.00    +0.000 C 
BRANCH  14  15
ATOM     15  O   UNL     1       2.684   2.271  22.065  0.00  0.00    +0.000 OA
ATOM     16  H   UNL     1       3.465   2.186  21.483  0.00  0.00    +0.000 HD
ENDBRANCH  14  15
ENDBRANCH  13  14
ENDBRANCH  12  13
ENDBRANCH  11  12
ENDBRANCH   6  11
TORSDOF 5
ENDMDL
MODEL 7
REMARK VINA RESULT:      -5.3      2.379      5.269
REMARK  Name = 
REMARK  5 active torsions:
REMARK  status: ('A' for Active; 'I' for Inactive)
REMARK    1  A    between atoms: N_6  and  C_7
REMARK    2  A    between atoms: C_7  and  O_8
REMARK    3  A    between atoms: O_8  and  C_9
REMARK    4  A    between atoms: C_9  and  C_10
REMARK    5  A    between atoms: C_10  and  O_11
REMARK                            x       y       z     vdW  Elec       q    Type
REMARK                         _______ _______ _______ _____ _____    ______ ____
ROOT
ATOM      1  O   UNL     1       7.309   5.267  16.684  0.00  0.00    +0.000 OA
ATOM      2  C   UNL     1       6.145   5.110  17.031  0.00  0.00    +0.000 A 
ATOM      3  C   UNL     1       5.252   6.252  17.233  0.00  0.00    +0.000 A 
ATOM      4  C   UNL     1       3.977   6.044  17.591  0.00  0.00    +0.000 A 
ATOM      5  I   UNL     1       2.814   7.760  17.898  0.00  0.00    +0.000 I 
ATOM      6  N   UNL     1       3.480   4.753  17.748  0.00  0.00    +0.000 N 
ATOM      7  C   UNL     1       4.298   3.638  17.591  0.00  0.00    +0.000 A 
ATOM      8  O   UNL     1       3.922   2.476  17.715  0.00  0.00    +0.000 OA
ATOM      9  N   UNL     1       5.600   3.886  17.261  0.00  0.00    +0.000 N 
ATOM     10  H   UNL     1       6.196   3.084  17.128  0.00  0.00    +0.000 HD
ENDROOT
BRANCH   6  11
ATOM     11  C   UNL     1       2.086   4.479  18.070  0.00  0.00    +0.000 C 
BRANCH  11  12
ATOM     12  O   UNL     1       1.890   4.350  19.479  0.00  0.00    +0.000 OA
BRANCH  12  13
ATOM     13  C   UNL     1       0.875   3.403  19.825  0.00  0.00    +0.000 C 
BRANCH  13  14
ATOM     14  C   UNL     1       0.742   2.421  18.665  0.00  0.00    +0.000 C 
BRANCH  14  15
ATOM     15  O   UNL     1       1.571   1.282  18.897  0.00  0.00    +0.000 OA
ATOM     16  H   UNL     1       2.289   1.599  19.480  0.00  0.00    +0.000 HD
ENDBRANCH  14  15
ENDBRANCH  13  14
ENDBRANCH  12  13
ENDBRANCH  11  12
ENDBRANCH   6  11
TORSDOF 5
ENDMDL
MODEL 8
REMARK VINA RESULT:      -5.3      1.790      1.842
REMARK  Name = 
REMARK  5 active torsions:
REMARK  status: ('A' for Active; 'I' for Inactive)
REMARK    1  A    between atoms: N_6  and  C_7
REMARK    2  A    between atoms: C_7  and  O_8
REMARK    3  A    between atoms: O_8  and  C_9
REMARK    4  A    between atoms: C_9  and  C_10
REMARK    5  A    between atoms: C_10  and  O_11
REMARK                            x       y       z     vdW  Elec       q    Type
REMARK                         _______ _______ _______ _____ _____    ______ ____
ROOT
ATOM      1  O   UNL     1       1.956   3.123  22.281  0.00  0.00    +0.000 OA
ATOM      2  C   UNL     1       2.311   3.290  21.120  0.00  0.00    +0.000 A 
ATOM      3  C   UNL     1       2.385   4.629  20.535  0.00  0.00    +0.000 A 
ATOM      4  C   UNL     1       2.800   4.779  19.269  0.00  0.00    +0.000 A 
ATOM      5  I   UNL     1       2.815   6.740  18.529  0.00  0.00    +0.000 I 
ATOM      6  N   UNL     1       3.188   3.679  18.508  0.00  0.00    +0.000 N 
ATOM      7  C   UNL     1       3.111   2.385  19.015  0.00  0.00    +0.000 A 
ATOM      8  O   UNL     1       3.437   1.375  18.397  0.00  0.00    +0.000 OA
ATOM      9  N   UNL     1       2.650   2.265  20.296  0.00  0.00    +0.000 N 
ATOM     10  H   UNL     1       2.607   1.333  20.677  0.00  0.00    +0.000 HD
ENDROOT
BRANCH   6  11
ATOM     11  C   UNL     1       3.708   3.802  17.153  0.00  0.00    +0.000 C 
BRANCH  11  12
ATOM     12  O   UNL     1       5.134   3.900  17.148  0.00  0.00    +0.000 OA
BRANCH  12  13
ATOM     13  C   UNL     1       5.656   4.470  15.944  0.00  0.00    +0.000 C 
BRANCH  13  14
ATOM     14  C   UNL     1       5.920   5.949  16.207  0.00  0.00    +0.000 C 
BRANCH  14  15
ATOM     15  O   UNL     1       5.213   6.744  15.254  0.00  0.00    +0.000 OA
ATOM     16  H   UNL     1       4.309   6.375  15.229  0.00  0.00    +0.000 HD
ENDBRANCH  14  15
ENDBRANCH  13  14
ENDBRANCH  12  13
ENDBRANCH  11  12
ENDBRANCH   6  11
TORSDOF 5
ENDMDL
MODEL 9
REMARK VINA RESULT:      -5.2      1.674      1.687
REMARK  Name = 
REMARK  5 active torsions:
REMARK  status: ('A' for Active; 'I' for Inactive)
REMARK    1  A    between atoms: N_6  and  C_7
REMARK    2  A    between atoms: C_7  and  O_8
REMARK    3  A    between atoms: O_8  and  C_9
REMARK    4  A    between atoms: C_9  and  C_10
REMARK    5  A    between atoms: C_10  and  O_11
REMARK                            x       y       z     vdW  Elec       q    Type
REMARK                         _______ _______ _______ _____ _____    ______ ____
ROOT
ATOM      1  O   UNL     1       0.491   2.283  18.516  0.00  0.00    +0.000 OA
ATOM      2  C   UNL     1       1.531   2.912  18.672  0.00  0.00    +0.000 A 
ATOM      3  C   UNL     1       1.601   4.345  18.388  0.00  0.00    +0.000 A 
ATOM      4  C   UNL     1       2.748   5.008  18.591  0.00  0.00    +0.000 A 
ATOM      5  I   UNL     1       2.737   7.045  18.101  0.00  0.00    +0.000 I 
ATOM      6  N   UNL     1       3.871   4.356  19.095  0.00  0.00    +0.000 N 
ATOM      7  C   UNL     1       3.858   2.989  19.356  0.00  0.00    +0.000 A 
ATOM      8  O   UNL     1       4.812   2.356  19.800  0.00  0.00    +0.000 OA
ATOM      9  N   UNL     1       2.684   2.338  19.104  0.00  0.00    +0.000 N 
ATOM     10  H   UNL     1       2.659   1.350  19.306  0.00  0.00    +0.000 HD
ENDROOT
BRANCH   6  11
ATOM     11  C   UNL     1       5.117   5.049  19.394  0.00  0.00    +0.000 C 
BRANCH  11  12
ATOM     12  O   UNL     1       5.942   5.164  18.234  0.00  0.00    +0.000 OA
BRANCH  12  13
ATOM     13  C   UNL     1       7.232   5.720  18.510  0.00  0.00    +0.000 C 
BRANCH  13  14
ATOM     14  C   UNL     1       7.453   6.883  17.550  0.00  0.00    +0.000 C 
BRANCH  14  15
ATOM     15  O   UNL     1       6.343   6.994  16.659  0.00  0.00    +0.000 OA
ATOM     16  H   UNL     1       6.668   7.523  15.905  0.00  0.00    +0.000 HD
ENDBRANCH  14  15
ENDBRANCH  13  14
ENDBRANCH  12  13
ENDBRANCH  11  12
ENDBRANCH   6  11
TORSDOF 5
ENDMDL
