MODEL 1
REMARK VINA RESULT:      -8.9      0.000      0.000
REMARK  Name = 
REMARK  10 active torsions:
REMARK  status: ('A' for Active; 'I' for Inactive)
REMARK    1  A    between atoms: C_1  and  N_2
REMARK    2  A    between atoms: C_5  and  C_6
REMARK    3  A    between atoms: C_6  and  N_7
REMARK    4  A    between atoms: N_7  and  C_8
REMARK    5  A    between atoms: N_7  and  C_9
REMARK    6  A    between atoms: C_9  and  C_10
REMARK    7  A    between atoms: C_13  and  C_14
REMARK    8  A    between atoms: N_16  and  C_17
REMARK    9  A    between atoms: C_19  and  C_20
REMARK   10  A    between atoms: C_28  and  O_29
REMARK                            x       y       z     vdW  Elec       q    Type
REMARK                         _______ _______ _______ _____ _____    ______ ____
ROOT
ATOM      1  C   UNL     1       7.774   7.869  18.087  0.00  0.00    +0.000 C 
ATOM      2  O   UNL     1       8.259   7.001  18.807  0.00  0.00    +0.000 OA
ATOM      3  N   UNL     1       6.757   7.689  17.163  0.00  0.00    +0.000 N 
ATOM      4  H   UNL     1       6.601   8.395  16.452  0.00  0.00    +0.000 HD
ENDROOT
BRANCH   1   8
ATOM      5  C   UNL     1       9.332  11.825  18.665  0.00  0.00    +0.000 A 
ATOM      6  C   UNL     1       9.780  10.750  19.444  0.00  0.00    +0.000 A 
ATOM      7  C   UNL     1       9.293   9.464  19.206  0.00  0.00    +0.000 A 
ATOM      8  C   UNL     1       8.358   9.231  18.187  0.00  0.00    +0.000 A 
ATOM      9  C   UNL     1       7.927  10.292  17.387  0.00  0.00    +0.000 A 
ATOM     10  C   UNL     1       8.417  11.580  17.626  0.00  0.00    +0.000 A 
BRANCH   5  11
ATOM     11  C   UNL     1       9.730  13.244  19.012  0.00  0.00    +0.000 C 
BRANCH  11  12
ATOM     12  N   UNL     1       9.565  14.248  17.935  0.00  0.00    +0.000 NA
ATOM     13  C   UNL     1      10.911  14.701  17.553  0.00  0.00    +0.000 C 
BRANCH  12  14
ATOM     14  C   UNL     1       8.715  15.368  18.383  0.00  0.00    +0.000 C 
BRANCH  14  19
ATOM     15  C   UNL     1       3.032  15.311  19.415  0.00  0.00    +0.000 C 
ATOM     16  N   UNL     1       4.417  15.589  19.033  0.00  0.00    +0.000 NA
ATOM     17  C   UNL     1       5.268  15.700  20.225  0.00  0.00    +0.000 C 
ATOM     18  C   UNL     1       6.712  16.041  19.847  0.00  0.00    +0.000 C 
ATOM     19  C   UNL     1       7.300  14.992  18.892  0.00  0.00    +0.000 C 
ATOM     20  C   UNL     1       6.356  14.801  17.694  0.00  0.00    +0.000 C 
ATOM     21  C   UNL     1       4.910  14.547  18.124  0.00  0.00    +0.000 C 
ENDBRANCH  14  19
ENDBRANCH  12  14
ENDBRANCH  11  12
ENDBRANCH   5  11
ENDBRANCH   1   8
BRANCH   3  22
ATOM     22  C   UNL     1       6.064   6.474  16.945  0.00  0.00    +0.000 A 
ATOM     23  C   UNL     1       4.891   6.151  17.627  0.00  0.00    +0.000 A 
ATOM     24  C   UNL     1       4.273   4.891  17.519  0.00  0.00    +0.000 A 
ATOM     25  C   UNL     1       4.818   3.987  16.597  0.00  0.00    +0.000 A 
ATOM     26  C   UNL     1       5.957   4.317  15.845  0.00  0.00    +0.000 A 
ATOM     27  C   UNL     1       6.577   5.553  16.031  0.00  0.00    +0.000 A 
BRANCH  24  28
ATOM     28  C   UNL     1       3.130   4.565  18.407  0.00  0.00    +0.000 A 
ATOM     29  C   UNL     1       2.958   5.154  19.665  0.00  0.00    +0.000 A 
ATOM     30  C   UNL     1       1.874   4.801  20.487  0.00  0.00    +0.000 A 
ATOM     31  C   UNL     1       0.949   3.850  20.061  0.00  0.00    +0.000 A 
ATOM     32  C   UNL     1       1.094   3.257  18.815  0.00  0.00    +0.000 A 
ATOM     33  C   UNL     1       2.164   3.620  17.998  0.00  0.00    +0.000 A 
ENDBRANCH  24  28
BRANCH  27  34
ATOM     34  O   UNL     1       7.715   5.878  15.339  0.00  0.00    +0.000 OA
ATOM     35  H   UNL     1       8.478   5.719  15.920  0.00  0.00    +0.000 HD
ENDBRANCH  27  34
ENDBRANCH   3  22
TORSDOF 8
ENDMDL
MODEL 2
REMARK VINA RESULT:      -8.8      0.552      1.323
REMARK  Name = 
REMARK  10 active torsions:
REMARK  status: ('A' for Active; 'I' for Inactive)
REMARK    1  A    between atoms: C_1  and  N_2
REMARK    2  A    between atoms: C_5  and  C_6
REMARK    3  A    between atoms: C_6  and  N_7
REMARK    4  A    between atoms: N_7  and  C_8
REMARK    5  A    between atoms: N_7  and  C_9
REMARK    6  A    between atoms: C_9  and  C_10
REMARK    7  A    between atoms: C_13  and  C_14
REMARK    8  A    between atoms: N_16  and  C_17
REMARK    9  A    between atoms: C_19  and  C_20
REMARK   10  A    between atoms: C_28  and  O_29
REMARK                            x       y       z     vdW  Elec       q    Type
REMARK                         _______ _______ _______ _____ _____    ______ ____
ROOT
ATOM      1  C   UNL     1       7.765   7.870  18.067  0.00  0.00    +0.000 C 
ATOM      2  O   UNL     1       8.264   7.003  18.779  0.00  0.00    +0.000 OA
ATOM      3  N   UNL     1       6.738   7.687  17.156  0.00  0.00    +0.000 N 
ATOM      4  H   UNL     1       6.569   8.393  16.448  0.00  0.00    +0.000 HD
ENDROOT
BRANCH   1   8
ATOM      5  C   UNL     1       9.317  11.830  18.632  0.00  0.00    +0.000 A 
ATOM      6  C   UNL     1       9.790  10.752  19.391  0.00  0.00    +0.000 A 
ATOM      7  C   UNL     1       9.304   9.465  19.157  0.00  0.00    +0.000 A 
ATOM      8  C   UNL     1       8.344   9.235  18.161  0.00  0.00    +0.000 A 
ATOM      9  C   UNL     1       7.887  10.298  17.380  0.00  0.00    +0.000 A 
ATOM     10  C   UNL     1       8.376  11.588  17.616  0.00  0.00    +0.000 A 
BRANCH   5  11
ATOM     11  C   UNL     1       9.716  13.249  18.978  0.00  0.00    +0.000 C 
BRANCH  11  12
ATOM     12  N   UNL     1       8.813  14.318  18.489  0.00  0.00    +0.000 NA
ATOM     13  C   UNL     1       9.653  15.329  17.832  0.00  0.00    +0.000 C 
BRANCH  12  14
ATOM     14  C   UNL     1       8.026  14.892  19.598  0.00  0.00    +0.000 C 
BRANCH  14  19
ATOM     15  C   UNL     1       2.333  14.897  18.620  0.00  0.00    +0.000 C 
ATOM     16  N   UNL     1       3.744  14.603  18.879  0.00  0.00    +0.000 NA
ATOM     17  C   UNL     1       4.574  15.018  17.741  0.00  0.00    +0.000 C 
ATOM     18  C   UNL     1       6.047  14.672  17.972  0.00  0.00    +0.000 C 
ATOM     19  C   UNL     1       6.577  15.322  19.258  0.00  0.00    +0.000 C 
ATOM     20  C   UNL     1       5.648  14.972  20.432  0.00  0.00    +0.000 C 
ATOM     21  C   UNL     1       4.178  15.257  20.119  0.00  0.00    +0.000 C 
ENDBRANCH  14  19
ENDBRANCH  12  14
ENDBRANCH  11  12
ENDBRANCH   5  11
ENDBRANCH   1   8
BRANCH   3  22
ATOM     22  C   UNL     1       6.046   6.469  16.945  0.00  0.00    +0.000 A 
ATOM     23  C   UNL     1       4.879   6.143  17.635  0.00  0.00    +0.000 A 
ATOM     24  C   UNL     1       4.264   4.882  17.534  0.00  0.00    +0.000 A 
ATOM     25  C   UNL     1       4.807   3.977  16.610  0.00  0.00    +0.000 A 
ATOM     26  C   UNL     1       5.941   4.309  15.851  0.00  0.00    +0.000 A 
ATOM     27  C   UNL     1       6.557   5.548  16.030  0.00  0.00    +0.000 A 
BRANCH  24  28
ATOM     28  C   UNL     1       3.129   4.554  18.429  0.00  0.00    +0.000 A 
ATOM     29  C   UNL     1       2.195   3.553  18.132  0.00  0.00    +0.000 A 
ATOM     30  C   UNL     1       1.120   3.288  18.996  0.00  0.00    +0.000 A 
ATOM     31  C   UNL     1       0.961   4.023  20.168  0.00  0.00    +0.000 A 
ATOM     32  C   UNL     1       1.877   5.016  20.490  0.00  0.00    +0.000 A 
ATOM     33  C   UNL     1       2.950   5.267  19.635  0.00  0.00    +0.000 A 
ENDBRANCH  24  28
BRANCH  27  34
ATOM     34  O   UNL     1       7.690   5.874  15.330  0.00  0.00    +0.000 OA
ATOM     35  H   UNL     1       8.420   5.970  15.965  0.00  0.00    +0.000 HD
ENDBRANCH  27  34
ENDBRANCH   3  22
TORSDOF 8
ENDMDL
MODEL 3
REMARK VINA RESULT:      -8.5      2.730      3.329
REMARK  Name = 
REMARK  10 active torsions:
REMARK  status: ('A' for Active; 'I' for Inactive)
REMARK    1  A    between atoms: C_1  and  N_2
REMARK    2  A    between atoms: C_5  and  C_6
REMARK    3  A    between atoms: C_6  and  N_7
REMARK    4  A    between atoms: N_7  and  C_8
REMARK    5  A    between atoms: N_7  and  C_9
REMARK    6  A    between atoms: C_9  and  C_10
REMARK    7  A    between atoms: C_13  and  C_14
REMARK    8  A    between atoms: N_16  and  C_17
REMARK    9  A    between atoms: C_19  and  C_20
REMARK   10  A    between atoms: C_28  and  O_29
REMARK                            x       y       z     vdW  Elec       q    Type
REMARK                         _______ _______ _______ _____ _____    ______ ____
ROOT
ATOM      1  C   UNL     1       7.750   7.709  18.019  0.00  0.00    +0.000 C 
ATOM      2  O   UNL     1       8.215   6.878  18.794  0.00  0.00    +0.000 OA
ATOM      3  N   UNL     1       6.803   7.469  17.037  0.00  0.00    +0.000 N 
ATOM      4  H   UNL     1       6.670   8.150  16.297  0.00  0.00    +0.000 HD
ENDROOT
BRANCH   1   8
ATOM      5  C   UNL     1       9.152  11.723  18.594  0.00  0.00    +0.000 A 
ATOM      6  C   UNL     1       9.644  10.667  19.371  0.00  0.00    +0.000 A 
ATOM      7  C   UNL     1       9.208   9.363  19.134  0.00  0.00    +0.000 A 
ATOM      8  C   UNL     1       8.280   9.093  18.118  0.00  0.00    +0.000 A 
ATOM      9  C   UNL     1       7.805  10.136  17.319  0.00  0.00    +0.000 A 
ATOM     10  C   UNL     1       8.244  11.443  17.557  0.00  0.00    +0.000 A 
BRANCH   5  11
ATOM     11  C   UNL     1       9.495  13.157  18.939  0.00  0.00    +0.000 C 
BRANCH  11  12
ATOM     12  N   UNL     1       8.638  13.803  19.962  0.00  0.00    +0.000 NA
ATOM     13  C   UNL     1       8.437  15.198  19.542  0.00  0.00    +0.000 C 
BRANCH  12  14
ATOM     14  C   UNL     1       9.255  13.715  21.299  0.00  0.00    +0.000 C 
BRANCH  14  19
ATOM     15  C   UNL     1       7.153  12.068  26.421  0.00  0.00    +0.000 C 
ATOM     16  N   UNL     1       7.944  12.396  25.234  0.00  0.00    +0.000 NA
ATOM     17  C   UNL     1       7.523  11.573  24.092  0.00  0.00    +0.000 C 
ATOM     18  C   UNL     1       8.374  11.866  22.853  0.00  0.00    +0.000 C 
ATOM     19  C   UNL     1       8.306  13.351  22.469  0.00  0.00    +0.000 C 
ATOM     20  C   UNL     1       8.646  14.215  23.695  0.00  0.00    +0.000 C 
ATOM     21  C   UNL     1       7.829  13.826  24.928  0.00  0.00    +0.000 C 
ENDBRANCH  14  19
ENDBRANCH  12  14
ENDBRANCH  11  12
ENDBRANCH   5  11
ENDBRANCH   1   8
BRANCH   3  22
ATOM     22  C   UNL     1       6.166   6.225  16.809  0.00  0.00    +0.000 A 
ATOM     23  C   UNL     1       5.052   5.811  17.538  0.00  0.00    +0.000 A 
ATOM     24  C   UNL     1       4.499   4.523  17.415  0.00  0.00    +0.000 A 
ATOM     25  C   UNL     1       5.043   3.685  16.432  0.00  0.00    +0.000 A 
ATOM     26  C   UNL     1       6.119   4.106  15.635  0.00  0.00    +0.000 A 
ATOM     27  C   UNL     1       6.679   5.368  15.835  0.00  0.00    +0.000 A 
BRANCH  24  28
ATOM     28  C   UNL     1       3.426   4.102  18.348  0.00  0.00    +0.000 A 
ATOM     29  C   UNL     1       2.065   4.217  18.037  0.00  0.00    +0.000 A 
ATOM     30  C   UNL     1       1.078   3.827  18.958  0.00  0.00    +0.000 A 
ATOM     31  C   UNL     1       1.439   3.319  20.203  0.00  0.00    +0.000 A 
ATOM     32  C   UNL     1       2.781   3.188  20.533  0.00  0.00    +0.000 A 
ATOM     33  C   UNL     1       3.758   3.565  19.611  0.00  0.00    +0.000 A 
ENDBRANCH  24  28
BRANCH  27  34
ATOM     34  O   UNL     1       7.759   5.780  15.098  0.00  0.00    +0.000 OA
ATOM     35  H   UNL     1       7.709   6.746  15.001  0.00  0.00    +0.000 HD
ENDBRANCH  27  34
ENDBRANCH   3  22
TORSDOF 8
ENDMDL
MODEL 4
REMARK VINA RESULT:      -8.5      0.368      1.241
REMARK  Name = 
REMARK  10 active torsions:
REMARK  status: ('A' for Active; 'I' for Inactive)
REMARK    1  A    between atoms: C_1  and  N_2
REMARK    2  A    between atoms: C_5  and  C_6
REMARK    3  A    between atoms: C_6  and  N_7
REMARK    4  A    between atoms: N_7  and  C_8
REMARK    5  A    between atoms: N_7  and  C_9
REMARK    6  A    between atoms: C_9  and  C_10
REMARK    7  A    between atoms: C_13  and  C_14
REMARK    8  A    between atoms: N_16  and  C_17
REMARK    9  A    between atoms: C_19  and  C_20
REMARK   10  A    between atoms: C_28  and  O_29
REMARK                            x       y       z     vdW  Elec       q    Type
REMARK                         _______ _______ _______ _____ _____    ______ ____
ROOT
ATOM      1  C   UNL     1       7.763   7.714  18.123  0.00  0.00    +0.000 C 
ATOM      2  O   UNL     1       8.272   6.789  18.751  0.00  0.00    +0.000 OA
ATOM      3  N   UNL     1       6.737   7.604  17.198  0.00  0.00    +0.000 N 
ATOM      4  H   UNL     1       6.560   8.372  16.560  0.00  0.00    +0.000 HD
ENDROOT
BRANCH   1   8
ATOM      5  C   UNL     1       9.542  11.601  18.491  0.00  0.00    +0.000 A 
ATOM      6  C   UNL     1       8.612  11.323  17.481  0.00  0.00    +0.000 A 
ATOM      7  C   UNL     1       8.011  10.066  17.410  0.00  0.00    +0.000 A 
ATOM      8  C   UNL     1       8.325   9.070  18.346  0.00  0.00    +0.000 A 
ATOM      9  C   UNL     1       9.230   9.346  19.373  0.00  0.00    +0.000 A 
ATOM     10  C   UNL     1       9.831  10.608  19.444  0.00  0.00    +0.000 A 
BRANCH   5  11
ATOM     11  C   UNL     1      10.316  12.902  18.488  0.00  0.00    +0.000 C 
BRANCH  11  12
ATOM     12  N   UNL     1       9.651  14.055  17.837  0.00  0.00    +0.000 NA
ATOM     13  C   UNL     1      10.689  14.809  17.121  0.00  0.00    +0.000 C 
BRANCH  12  14
ATOM     14  C   UNL     1       8.950  14.891  18.831  0.00  0.00    +0.000 C 
BRANCH  14  19
ATOM     15  C   UNL     1       3.196  15.390  18.903  0.00  0.00    +0.000 C 
ATOM     16  N   UNL     1       4.649  15.550  18.817  0.00  0.00    +0.000 NA
ATOM     17  C   UNL     1       5.272  15.312  20.125  0.00  0.00    +0.000 C 
ATOM     18  C   UNL     1       6.787  15.525  20.066  0.00  0.00    +0.000 C 
ATOM     19  C   UNL     1       7.436  14.614  19.015  0.00  0.00    +0.000 C 
ATOM     20  C   UNL     1       6.715  14.788  17.668  0.00  0.00    +0.000 C 
ATOM     21  C   UNL     1       5.198  14.650  17.796  0.00  0.00    +0.000 C 
ENDBRANCH  14  19
ENDBRANCH  12  14
ENDBRANCH  11  12
ENDBRANCH   5  11
ENDBRANCH   1   8
BRANCH   3  22
ATOM     22  C   UNL     1       6.061   6.404  16.874  0.00  0.00    +0.000 A 
ATOM     23  C   UNL     1       4.879   6.017  17.505  0.00  0.00    +0.000 A 
ATOM     24  C   UNL     1       4.276   4.764  17.289  0.00  0.00    +0.000 A 
ATOM     25  C   UNL     1       4.849   3.939  16.310  0.00  0.00    +0.000 A 
ATOM     26  C   UNL     1       5.998   4.337  15.609  0.00  0.00    +0.000 A 
ATOM     27  C   UNL     1       6.601   5.561  15.901  0.00  0.00    +0.000 A 
BRANCH  24  28
ATOM     28  C   UNL     1       3.121   4.360  18.126  0.00  0.00    +0.000 A 
ATOM     29  C   UNL     1       2.229   3.349  17.747  0.00  0.00    +0.000 A 
ATOM     30  C   UNL     1       1.133   3.010  18.557  0.00  0.00    +0.000 A 
ATOM     31  C   UNL     1       0.912   3.681  19.758  0.00  0.00    +0.000 A 
ATOM     32  C   UNL     1       1.786   4.682  20.160  0.00  0.00    +0.000 A 
ATOM     33  C   UNL     1       2.880   5.006  19.358  0.00  0.00    +0.000 A 
ENDBRANCH  24  28
BRANCH  27  34
ATOM     34  O   UNL     1       7.749   5.948  15.259  0.00  0.00    +0.000 OA
ATOM     35  H   UNL     1       7.665   6.889  15.031  0.00  0.00    +0.000 HD
ENDBRANCH  27  34
ENDBRANCH   3  22
TORSDOF 8
ENDMDL
MODEL 5
REMARK VINA RESULT:      -8.4      2.004      2.399
REMARK  Name = 
REMARK  10 active torsions:
REMARK  status: ('A' for Active; 'I' for Inactive)
REMARK    1  A    between atoms: C_1  and  N_2
REMARK    2  A    between atoms: C_5  and  C_6
REMARK    3  A    between atoms: C_6  and  N_7
REMARK    4  A    between atoms: N_7  and  C_8
REMARK    5  A    between atoms: N_7  and  C_9
REMARK    6  A    between atoms: C_9  and  C_10
REMARK    7  A    between atoms: C_13  and  C_14
REMARK    8  A    between atoms: N_16  and  C_17
REMARK    9  A    between atoms: C_19  and  C_20
REMARK   10  A    between atoms: C_28  and  O_29
REMARK                            x       y       z     vdW  Elec       q    Type
REMARK                         _______ _______ _______ _____ _____    ______ ____
ROOT
ATOM      1  C   UNL     1       7.777   7.825  18.063  0.00  0.00    +0.000 C 
ATOM      2  O   UNL     1       8.282   6.936  18.744  0.00  0.00    +0.000 OA
ATOM      3  N   UNL     1       6.740   7.670  17.158  0.00  0.00    +0.000 N 
ATOM      4  H   UNL     1       6.565   8.399  16.474  0.00  0.00    +0.000 HD
ENDROOT
BRANCH   1   8
ATOM      5  C   UNL     1       9.324  11.772  18.728  0.00  0.00    +0.000 A 
ATOM      6  C   UNL     1       9.758  10.685  19.498  0.00  0.00    +0.000 A 
ATOM      7  C   UNL     1       9.276   9.403  19.232  0.00  0.00    +0.000 A 
ATOM      8  C   UNL     1       8.359   9.185  18.194  0.00  0.00    +0.000 A 
ATOM      9  C   UNL     1       7.941  10.258  17.403  0.00  0.00    +0.000 A 
ATOM     10  C   UNL     1       8.426  11.543  17.670  0.00  0.00    +0.000 A 
BRANCH   5  11
ATOM     11  C   UNL     1       9.715  13.185  19.102  0.00  0.00    +0.000 C 
BRANCH  11  12
ATOM     12  N   UNL     1       8.885  14.267  18.521  0.00  0.00    +0.000 NA
ATOM     13  C   UNL     1       9.784  15.134  17.745  0.00  0.00    +0.000 C 
BRANCH  12  14
ATOM     14  C   UNL     1       8.176  15.014  19.577  0.00  0.00    +0.000 C 
BRANCH  14  19
ATOM     15  C   UNL     1       7.959  14.421  25.319  0.00  0.00    +0.000 C 
ATOM     16  N   UNL     1       7.862  14.819  23.913  0.00  0.00    +0.000 NA
ATOM     17  C   UNL     1       9.196  15.095  23.364  0.00  0.00    +0.000 C 
ATOM     18  C   UNL     1       9.111  15.563  21.908  0.00  0.00    +0.000 C 
ATOM     19  C   UNL     1       8.398  14.524  21.031  0.00  0.00    +0.000 C 
ATOM     20  C   UNL     1       7.045  14.158  21.662  0.00  0.00    +0.000 C 
ATOM     21  C   UNL     1       7.174  13.780  23.139  0.00  0.00    +0.000 C 
ENDBRANCH  14  19
ENDBRANCH  12  14
ENDBRANCH  11  12
ENDBRANCH   5  11
ENDBRANCH   1   8
BRANCH   3  22
ATOM     22  C   UNL     1       6.045   6.461  16.917  0.00  0.00    +0.000 A 
ATOM     23  C   UNL     1       4.863   6.133  17.578  0.00  0.00    +0.000 A 
ATOM     24  C   UNL     1       4.242   4.877  17.448  0.00  0.00    +0.000 A 
ATOM     25  C   UNL     1       4.797   3.981  16.523  0.00  0.00    +0.000 A 
ATOM     26  C   UNL     1       5.947   4.317  15.791  0.00  0.00    +0.000 A 
ATOM     27  C   UNL     1       6.569   5.548  15.999  0.00  0.00    +0.000 A 
BRANCH  24  28
ATOM     28  C   UNL     1       3.087   4.545  18.316  0.00  0.00    +0.000 A 
ATOM     29  C   UNL     1       2.823   5.218  19.515  0.00  0.00    +0.000 A 
ATOM     30  C   UNL     1       1.730   4.858  20.322  0.00  0.00    +0.000 A 
ATOM     31  C   UNL     1       0.888   3.816  19.941  0.00  0.00    +0.000 A 
ATOM     32  C   UNL     1       1.124   3.137  18.754  0.00  0.00    +0.000 A 
ATOM     33  C   UNL     1       2.202   3.506  17.950  0.00  0.00    +0.000 A 
ENDBRANCH  24  28
BRANCH  27  34
ATOM     34  O   UNL     1       7.717   5.877  15.327  0.00  0.00    +0.000 OA
ATOM     35  H   UNL     1       7.606   5.625  14.395  0.00  0.00    +0.000 HD
ENDBRANCH  27  34
ENDBRANCH   3  22
TORSDOF 8
ENDMDL
MODEL 6
REMARK VINA RESULT:      -8.4      2.121      2.793
REMARK  Name = 
REMARK  10 active torsions:
REMARK  status: ('A' for Active; 'I' for Inactive)
REMARK    1  A    between atoms: C_1  and  N_2
REMARK    2  A    between atoms: C_5  and  C_6
REMARK    3  A    between atoms: C_6  and  N_7
REMARK    4  A    between atoms: N_7  and  C_8
REMARK    5  A    between atoms: N_7  and  C_9
REMARK    6  A    between atoms: C_9  and  C_10
REMARK    7  A    between atoms: C_13  and  C_14
REMARK    8  A    between atoms: N_16  and  C_17
REMARK    9  A    between atoms: C_19  and  C_20
REMARK   10  A    between atoms: C_28  and  O_29
REMARK                            x       y       z     vdW  Elec       q    Type
REMARK                         _______ _______ _______ _____ _____    ______ ____
ROOT
ATOM      1  C   UNL     1       7.734   7.851  18.114  0.00  0.00    +0.000 C 
ATOM      2  O   UNL     1       8.270   6.966  18.776  0.00  0.00    +0.000 OA
ATOM      3  N   UNL     1       6.690   7.681  17.219  0.00  0.00    +0.000 N 
ATOM      4  H   UNL     1       6.488   8.414  16.547  0.00  0.00    +0.000 HD
ENDROOT
BRANCH   1   8
ATOM      5  C   UNL     1       9.417  11.796  18.221  0.00  0.00    +0.000 A 
ATOM      6  C   UNL     1       8.319  11.500  17.404  0.00  0.00    +0.000 A 
ATOM      7  C   UNL     1       7.759  10.222  17.421  0.00  0.00    +0.000 A 
ATOM      8  C   UNL     1       8.283   9.224  18.255  0.00  0.00    +0.000 A 
ATOM      9  C   UNL     1       9.360   9.517  19.094  0.00  0.00    +0.000 A 
ATOM     10  C   UNL     1       9.920  10.799  19.077  0.00  0.00    +0.000 A 
BRANCH   5  11
ATOM     11  C   UNL     1      10.131  13.126  18.099  0.00  0.00    +0.000 C 
BRANCH  11  12
ATOM     12  N   UNL     1       9.462  14.286  18.734  0.00  0.00    +0.000 NA
ATOM     13  C   UNL     1       9.609  15.426  17.819  0.00  0.00    +0.000 C 
BRANCH  12  14
ATOM     14  C   UNL     1      10.041  14.567  20.062  0.00  0.00    +0.000 C 
BRANCH  14  19
ATOM     15  C   UNL     1       7.534  13.600  25.175  0.00  0.00    +0.000 C 
ATOM     16  N   UNL     1       8.364  13.643  23.970  0.00  0.00    +0.000 NA
ATOM     17  C   UNL     1       7.601  13.181  22.802  0.00  0.00    +0.000 C 
ATOM     18  C   UNL     1       8.469  13.171  21.541  0.00  0.00    +0.000 C 
ATOM     19  C   UNL     1       9.052  14.562  21.256  0.00  0.00    +0.000 C 
ATOM     20  C   UNL     1       9.762  15.091  22.513  0.00  0.00    +0.000 C 
ATOM     21  C   UNL     1       8.883  15.000  23.761  0.00  0.00    +0.000 C 
ENDBRANCH  14  19
ENDBRANCH  12  14
ENDBRANCH  11  12
ENDBRANCH   5  11
ENDBRANCH   1   8
BRANCH   3  22
ATOM     22  C   UNL     1       6.023   6.458  16.971  0.00  0.00    +0.000 A 
ATOM     23  C   UNL     1       4.842   6.104  17.622  0.00  0.00    +0.000 A 
ATOM     24  C   UNL     1       4.250   4.835  17.486  0.00  0.00    +0.000 A 
ATOM     25  C   UNL     1       4.831   3.953  16.564  0.00  0.00    +0.000 A 
ATOM     26  C   UNL     1       5.980   4.313  15.842  0.00  0.00    +0.000 A 
ATOM     27  C   UNL     1       6.573   5.558  16.056  0.00  0.00    +0.000 A 
BRANCH  24  28
ATOM     28  C   UNL     1       3.095   4.477  18.344  0.00  0.00    +0.000 A 
ATOM     29  C   UNL     1       2.850   5.091  19.578  0.00  0.00    +0.000 A 
ATOM     30  C   UNL     1       1.757   4.708  20.373  0.00  0.00    +0.000 A 
ATOM     31  C   UNL     1       0.895   3.701  19.945  0.00  0.00    +0.000 A 
ATOM     32  C   UNL     1       1.111   3.081  18.722  0.00  0.00    +0.000 A 
ATOM     33  C   UNL     1       2.190   3.474  17.931  0.00  0.00    +0.000 A 
ENDBRANCH  24  28
BRANCH  27  34
ATOM     34  O   UNL     1       7.720   5.912  15.394  0.00  0.00    +0.000 OA
ATOM     35  H   UNL     1       7.672   6.860  15.190  0.00  0.00    +0.000 HD
ENDBRANCH  27  34
ENDBRANCH   3  22
TORSDOF 8
ENDMDL
MODEL 7
REMARK VINA RESULT:      -8.4      5.111      7.756
REMARK  Name = 
REMARK  10 active torsions:
REMARK  status: ('A' for Active; 'I' for Inactive)
REMARK    1  A    between atoms: C_1  and  N_2
REMARK    2  A    between atoms: C_5  and  C_6
REMARK    3  A    between atoms: C_6  and  N_7
REMARK    4  A    between atoms: N_7  and  C_8
REMARK    5  A    between atoms: N_7  and  C_9
REMARK    6  A    between atoms: C_9  and  C_10
REMARK    7  A    between atoms: C_13  and  C_14
REMARK    8  A    between atoms: N_16  and  C_17
REMARK    9  A    between atoms: C_19  and  C_20
REMARK   10  A    between atoms: C_28  and  O_29
REMARK                            x       y       z     vdW  Elec       q    Type
REMARK                         _______ _______ _______ _____ _____    ______ ____
ROOT
ATOM      1  C   UNL     1       3.303   6.423  18.314  0.00  0.00    +0.000 C 
ATOM      2  O   UNL     1       2.895   5.270  18.201  0.00  0.00    +0.000 OA
ATOM      3  N   UNL     1       4.586   6.865  18.035  0.00  0.00    +0.000 N 
ATOM      4  H   UNL     1       4.890   7.765  18.392  0.00  0.00    +0.000 HD
ENDROOT
BRANCH   1   8
ATOM      5  C   UNL     1       0.751   9.550  19.770  0.00  0.00    +0.000 A 
ATOM      6  C   UNL     1       1.146   9.504  18.426  0.00  0.00    +0.000 A 
ATOM      7  C   UNL     1       1.938   8.452  17.966  0.00  0.00    +0.000 A 
ATOM      8  C   UNL     1       2.343   7.429  18.835  0.00  0.00    +0.000 A 
ATOM      9  C   UNL     1       1.931   7.450  20.170  0.00  0.00    +0.000 A 
ATOM     10  C   UNL     1       1.136   8.506  20.630  0.00  0.00    +0.000 A 
BRANCH   5  11
ATOM     11  C   UNL     1       0.027  10.761  20.318  0.00  0.00    +0.000 C 
BRANCH  11  12
ATOM     12  N   UNL     1       0.436  12.072  19.762  0.00  0.00    +0.000 NA
ATOM     13  C   UNL     1       0.740  12.952  20.900  0.00  0.00    +0.000 C 
BRANCH  12  14
ATOM     14  C   UNL     1      -0.623  12.633  18.900  0.00  0.00    +0.000 C 
BRANCH  14  19
ATOM     15  C   UNL     1      -6.180  11.257  18.134  0.00  0.00    +0.000 C 
ATOM     16  N   UNL     1      -4.843  11.851  18.182  0.00  0.00    +0.000 NA
ATOM     17  C   UNL     1      -4.455  12.132  19.571  0.00  0.00    +0.000 C 
ATOM     18  C   UNL     1      -3.079  12.802  19.638  0.00  0.00    +0.000 C 
ATOM     19  C   UNL     1      -2.005  11.934  18.969  0.00  0.00    +0.000 C 
ATOM     20  C   UNL     1      -2.459  11.553  17.551  0.00  0.00    +0.000 C 
ATOM     21  C   UNL     1      -3.872  10.968  17.528  0.00  0.00    +0.000 C 
ENDBRANCH  14  19
ENDBRANCH  12  14
ENDBRANCH  11  12
ENDBRANCH   5  11
ENDBRANCH   1   8
BRANCH   3  22
ATOM     22  C   UNL     1       5.626   6.062  17.509  0.00  0.00    +0.000 A 
ATOM     23  C   UNL     1       5.756   5.807  16.144  0.00  0.00    +0.000 A 
ATOM     24  C   UNL     1       6.700   4.901  15.627  0.00  0.00    +0.000 A 
ATOM     25  C   UNL     1       7.606   4.333  16.534  0.00  0.00    +0.000 A 
ATOM     26  C   UNL     1       7.542   4.631  17.905  0.00  0.00    +0.000 A 
ATOM     27  C   UNL     1       6.548   5.485  18.384  0.00  0.00    +0.000 A 
BRANCH  24  28
ATOM     28  C   UNL     1       6.659   4.553  14.186  0.00  0.00    +0.000 A 
ATOM     29  C   UNL     1       7.569   5.071  13.257  0.00  0.00    +0.000 A 
ATOM     30  C   UNL     1       7.483   4.734  11.896  0.00  0.00    +0.000 A 
ATOM     31  C   UNL     1       6.482   3.877  11.445  0.00  0.00    +0.000 A 
ATOM     32  C   UNL     1       5.572   3.344  12.347  0.00  0.00    +0.000 A 
ATOM     33  C   UNL     1       5.669   3.671  13.699  0.00  0.00    +0.000 A 
ENDBRANCH  24  28
BRANCH  27  34
ATOM     34  O   UNL     1       6.441   5.754  19.724  0.00  0.00    +0.000 OA
ATOM     35  H   UNL     1       5.512   5.632  19.983  0.00  0.00    +0.000 HD
ENDBRANCH  27  34
ENDBRANCH   3  22
TORSDOF 8
ENDMDL
MODEL 8
REMARK VINA RESULT:      -8.1      6.002      8.701
REMARK  Name = 
REMARK  10 active torsions:
REMARK  status: ('A' for Active; 'I' for Inactive)
REMARK    1  A    between atoms: C_1  and  N_2
REMARK    2  A    between atoms: C_5  and  C_6
REMARK    3  A    between atoms: C_6  and  N_7
REMARK    4  A    between atoms: N_7  and  C_8
REMARK    5  A    between atoms: N_7  and  C_9
REMARK    6  A    between atoms: C_9  and  C_10
REMARK    7  A    between atoms: C_13  and  C_14
REMARK    8  A    between atoms: N_16  and  C_17
REMARK    9  A    between atoms: C_19  and  C_20
REMARK   10  A    between atoms: C_28  and  O_29
REMARK                            x       y       z     vdW  Elec       q    Type
REMARK                         _______ _______ _______ _____ _____    ______ ____
ROOT
ATOM      1  C   UNL     1       1.822   7.640  19.896  0.00  0.00    +0.000 C 
ATOM      2  O   UNL     1       2.351   7.942  18.830  0.00  0.00    +0.000 OA
ATOM      3  N   UNL     1       1.770   6.373  20.451  0.00  0.00    +0.000 N 
ATOM      4  H   UNL     1       1.107   6.182  21.195  0.00  0.00    +0.000 HD
ENDROOT
BRANCH   1   8
ATOM      5  C   UNL     1      -0.346  10.568  22.163  0.00  0.00    +0.000 A 
ATOM      6  C   UNL     1       0.394   9.563  22.799  0.00  0.00    +0.000 A 
ATOM      7  C   UNL     1       1.129   8.651  22.042  0.00  0.00    +0.000 A 
ATOM      8  C   UNL     1       1.140   8.730  20.642  0.00  0.00    +0.000 A 
ATOM      9  C   UNL     1       0.428   9.745  19.999  0.00  0.00    +0.000 A 
ATOM     10  C   UNL     1      -0.307  10.660  20.760  0.00  0.00    +0.000 A 
BRANCH   5  11
ATOM     11  C   UNL     1      -1.271  11.464  22.960  0.00  0.00    +0.000 C 
BRANCH  11  12
ATOM     12  N   UNL     1      -1.652  12.744  22.317  0.00  0.00    +0.000 NA
ATOM     13  C   UNL     1      -0.677  13.755  22.749  0.00  0.00    +0.000 C 
BRANCH  12  14
ATOM     14  C   UNL     1      -3.033  13.123  22.674  0.00  0.00    +0.000 C 
BRANCH  14  19
ATOM     15  C   UNL     1      -7.277  12.449  18.815  0.00  0.00    +0.000 C 
ATOM     16  N   UNL     1      -6.231  12.907  19.731  0.00  0.00    +0.000 NA
ATOM     17  C   UNL     1      -6.597  12.606  21.122  0.00  0.00    +0.000 C 
ATOM     18  C   UNL     1      -5.538  13.123  22.099  0.00  0.00    +0.000 C 
ATOM     19  C   UNL     1      -4.158  12.526  21.790  0.00  0.00    +0.000 C 
ATOM     20  C   UNL     1      -3.820  12.751  20.307  0.00  0.00    +0.000 C 
ATOM     21  C   UNL     1      -4.945  12.295  19.377  0.00  0.00    +0.000 C 
ENDBRANCH  14  19
ENDBRANCH  12  14
ENDBRANCH  11  12
ENDBRANCH   5  11
ENDBRANCH   1   8
BRANCH   3  22
ATOM     22  C   UNL     1       2.381   5.220  19.902  0.00  0.00    +0.000 A 
ATOM     23  C   UNL     1       3.520   5.287  19.101  0.00  0.00    +0.000 A 
ATOM     24  C   UNL     1       4.051   4.164  18.439  0.00  0.00    +0.000 A 
ATOM     25  C   UNL     1       3.456   2.923  18.706  0.00  0.00    +0.000 A 
ATOM     26  C   UNL     1       2.352   2.819  19.567  0.00  0.00    +0.000 A 
ATOM     27  C   UNL     1       1.816   3.968  20.152  0.00  0.00    +0.000 A 
BRANCH  24  28
ATOM     28  C   UNL     1       5.157   4.349  17.469  0.00  0.00    +0.000 A 
ATOM     29  C   UNL     1       6.473   4.617  17.864  0.00  0.00    +0.000 A 
ATOM     30  C   UNL     1       7.489   4.808  16.913  0.00  0.00    +0.000 A 
ATOM     31  C   UNL     1       7.201   4.738  15.552  0.00  0.00    +0.000 A 
ATOM     32  C   UNL     1       5.905   4.466  15.134  0.00  0.00    +0.000 A 
ATOM     33  C   UNL     1       4.903   4.265  16.082  0.00  0.00    +0.000 A 
ENDBRANCH  24  28
BRANCH  27  34
ATOM     34  O   UNL     1       0.712   3.893  20.960  0.00  0.00    +0.000 OA
ATOM     35  H   UNL     1       0.074   4.565  20.664  0.00  0.00    +0.000 HD
ENDBRANCH  27  34
ENDBRANCH   3  22
TORSDOF 8
ENDMDL
MODEL 9
REMARK VINA RESULT:      -8.0      4.082      6.779
REMARK  Name = 
REMARK  10 active torsions:
REMARK  status: ('A' for Active; 'I' for Inactive)
REMARK    1  A    between atoms: C_1  and  N_2
REMARK    2  A    between atoms: C_5  and  C_6
REMARK    3  A    between atoms: C_6  and  N_7
REMARK    4  A    between atoms: N_7  and  C_8
REMARK    5  A    between atoms: N_7  and  C_9
REMARK    6  A    between atoms: C_9  and  C_10
REMARK    7  A    between atoms: C_13  and  C_14
REMARK    8  A    between atoms: N_16  and  C_17
REMARK    9  A    between atoms: C_19  and  C_20
REMARK   10  A    between atoms: C_28  and  O_29
REMARK                            x       y       z     vdW  Elec       q    Type
REMARK                         _______ _______ _______ _____ _____    ______ ____
ROOT
ATOM      1  C   UNL     1       3.255   6.724  18.152  0.00  0.00    +0.000 C 
ATOM      2  O   UNL     1       2.749   5.614  18.012  0.00  0.00    +0.000 OA
ATOM      3  N   UNL     1       4.583   7.050  17.932  0.00  0.00    +0.000 N 
ATOM      4  H   UNL     1       4.951   7.917  18.309  0.00  0.00    +0.000 HD
ENDROOT
BRANCH   1   8
ATOM      5  C   UNL     1       0.478   9.642  19.632  0.00  0.00    +0.000 A 
ATOM      6  C   UNL     1       1.065   8.702  20.489  0.00  0.00    +0.000 A 
ATOM      7  C   UNL     1       2.001   7.793  19.993  0.00  0.00    +0.000 A 
ATOM      8  C   UNL     1       2.367   7.812  18.640  0.00  0.00    +0.000 A 
ATOM      9  C   UNL     1       1.809   8.763  17.783  0.00  0.00    +0.000 A 
ATOM     10  C   UNL     1       0.871   9.674  18.282  0.00  0.00    +0.000 A 
BRANCH   5  11
ATOM     11  C   UNL     1      -0.650  10.527  20.118  0.00  0.00    +0.000 C 
BRANCH  11  12
ATOM     12  N   UNL     1      -0.266  11.628  21.033  0.00  0.00    +0.000 NA
ATOM     13  C   UNL     1      -1.133  11.532  22.216  0.00  0.00    +0.000 C 
BRANCH  12  14
ATOM     14  C   UNL     1      -0.391  12.937  20.365  0.00  0.00    +0.000 C 
BRANCH  14  19
ATOM     15  C   UNL     1       3.579  16.304  17.859  0.00  0.00    +0.000 C 
ATOM     16  N   UNL     1       2.400  15.541  18.274  0.00  0.00    +0.000 NA
ATOM     17  C   UNL     1       2.668  14.099  18.202  0.00  0.00    +0.000 C 
ATOM     18  C   UNL     1       1.429  13.283  18.583  0.00  0.00    +0.000 C 
ATOM     19  C   UNL     1       0.937  13.645  19.991  0.00  0.00    +0.000 C 
ATOM     20  C   UNL     1       0.755  15.168  20.098  0.00  0.00    +0.000 C 
ATOM     21  C   UNL     1       1.990  15.937  19.625  0.00  0.00    +0.000 C 
ENDBRANCH  14  19
ENDBRANCH  12  14
ENDBRANCH  11  12
ENDBRANCH   5  11
ENDBRANCH   1   8
BRANCH   3  22
ATOM     22  C   UNL     1       5.568   6.158  17.444  0.00  0.00    +0.000 A 
ATOM     23  C   UNL     1       5.711   5.872  16.087  0.00  0.00    +0.000 A 
ATOM     24  C   UNL     1       6.592   4.885  15.607  0.00  0.00    +0.000 A 
ATOM     25  C   UNL     1       7.426   4.261  16.545  0.00  0.00    +0.000 A 
ATOM     26  C   UNL     1       7.351   4.584  17.910  0.00  0.00    +0.000 A 
ATOM     27  C   UNL     1       6.418   5.522  18.351  0.00  0.00    +0.000 A 
BRANCH  24  28
ATOM     28  C   UNL     1       6.559   4.520  14.170  0.00  0.00    +0.000 A 
ATOM     29  C   UNL     1       7.528   4.954  13.257  0.00  0.00    +0.000 A 
ATOM     30  C   UNL     1       7.450   4.605  11.899  0.00  0.00    +0.000 A 
ATOM     31  C   UNL     1       6.398   3.819  11.434  0.00  0.00    +0.000 A 
ATOM     32  C   UNL     1       5.429   3.369  12.320  0.00  0.00    +0.000 A 
ATOM     33  C   UNL     1       5.518   3.708  13.670  0.00  0.00    +0.000 A 
ENDBRANCH  24  28
BRANCH  27  34
ATOM     34  O   UNL     1       6.298   5.819  19.684  0.00  0.00    +0.000 OA
ATOM     35  H   UNL     1       6.924   6.532  19.893  0.00  0.00    +0.000 HD
ENDBRANCH  27  34
ENDBRANCH   3  22
TORSDOF 8
ENDMDL
