MODEL 1
REMARK VINA RESULT:      -7.2      0.000      0.000
REMARK  Name = 
REMARK  6 active torsions:
REMARK  status: ('A' for Active; 'I' for Inactive)
REMARK    1  A    between atoms: C_1  and  C_2
REMARK    2  A    between atoms: N_10  and  C_11
REMARK    3  A    between atoms: C_11  and  C_12
REMARK    4  A    between atoms: C_11  and  C_13
REMARK    5  A    between atoms: N_15  and  C_16
REMARK    6  A    between atoms: C_16  and  C_17
REMARK                            x       y       z     vdW  Elec       q    Type
REMARK                         _______ _______ _______ _____ _____    ______ ____
ROOT
ATOM      1  C   UNL     1       2.674   3.537  19.865  0.00  0.00    +0.000 C 
ATOM      2  C   UNL     1       3.148   2.727  21.071  0.00  0.00    +0.000 C 
ENDROOT
BRANCH   1  12
ATOM      3  C   UNL     1       2.815   3.064  16.783  0.00  0.00    +0.000 C 
ATOM      4  C   UNL     1       3.881   3.685  17.616  0.00  0.00    +0.000 A 
ATOM      5  C   UNL     1       5.145   4.130  17.276  0.00  0.00    +0.000 A 
ATOM      6 BR   UNL     1       5.914   4.081  15.564  0.00  0.00    +0.000 Br
ATOM      7  C   UNL     1       5.725   4.598  18.469  0.00  0.00    +0.000 A 
ATOM      8  N   UNL     1       7.043   5.152  18.732  0.00  0.00    +0.000 N 
ATOM      9  O   UNL     1       7.799   5.310  17.764  0.00  0.00    +0.000 OA
ATOM     10  O   UNL     1       7.334   5.430  19.906  0.00  0.00    +0.000 OA
ATOM     11  N   UNL     1       4.876   4.481  19.508  0.00  0.00    +0.000 NA
ATOM     12  N   UNL     1       3.768   3.915  18.974  0.00  0.00    +0.000 N 
ENDBRANCH   1  12
BRANCH   1  13
ATOM     13  C   UNL     1       1.833   4.736  20.286  0.00  0.00    +0.000 C 
ATOM     14  O   UNL     1       0.649   4.588  20.593  0.00  0.00    +0.000 OA
ATOM     15  N   UNL     1       2.455   5.965  20.368  0.00  0.00    +0.000 N 
ATOM     16  H   UNL     1       3.334   6.110  19.873  0.00  0.00    +0.000 HD
BRANCH  15  17
ATOM     17  C   UNL     1       1.689   7.106  20.818  0.00  0.00    +0.000 C 
BRANCH  17  18
ATOM     18  C   UNL     1       1.661   8.200  19.802  0.00  0.00    +0.000 A 
ATOM     19  C   UNL     1       2.212   8.201  18.534  0.00  0.00    +0.000 A 
ATOM     20  C   UNL     1       1.865   9.365  17.787  0.00  0.00    +0.000 A 
ATOM     21  C   UNL     1       1.075  10.226  18.515  0.00  0.00    +0.000 A 
ATOM     22  S   UNL     1       0.772   9.638  20.093  0.00  0.00    +0.000 S 
ENDBRANCH  17  18
ENDBRANCH  15  17
ENDBRANCH   1  13
TORSDOF 4
ENDMDL
MODEL 2
REMARK VINA RESULT:      -7.2      3.249      4.962
REMARK  Name = 
REMARK  6 active torsions:
REMARK  status: ('A' for Active; 'I' for Inactive)
REMARK    1  A    between atoms: C_1  and  C_2
REMARK    2  A    between atoms: N_10  and  C_11
REMARK    3  A    between atoms: C_11  and  C_12
REMARK    4  A    between atoms: C_11  and  C_13
REMARK    5  A    between atoms: N_15  and  C_16
REMARK    6  A    between atoms: C_16  and  C_17
REMARK                            x       y       z     vdW  Elec       q    Type
REMARK                         _______ _______ _______ _____ _____    ______ ____
ROOT
ATOM      1  C   UNL     1       6.545   5.420  17.603  0.00  0.00    +0.000 C 
ATOM      2  C   UNL     1       7.687   6.373  17.952  0.00  0.00    +0.000 C 
ENDROOT
BRANCH   1  12
ATOM      3  C   UNL     1       4.459   3.584  16.182  0.00  0.00    +0.000 C 
ATOM      4  C   UNL     1       5.595   4.281  15.520  0.00  0.00    +0.000 A 
ATOM      5  C   UNL     1       6.026   4.254  14.207  0.00  0.00    +0.000 A 
ATOM      6 BR   UNL     1       5.248   3.278  12.805  0.00  0.00    +0.000 Br
ATOM      7  C   UNL     1       7.162   5.082  14.155  0.00  0.00    +0.000 A 
ATOM      8  N   UNL     1       8.049   5.412  13.050  0.00  0.00    +0.000 N 
ATOM      9  O   UNL     1       7.765   4.954  11.935  0.00  0.00    +0.000 OA
ATOM     10  O   UNL     1       9.035   6.126  13.289  0.00  0.00    +0.000 OA
ATOM     11  N   UNL     1       7.430   5.626  15.358  0.00  0.00    +0.000 NA
ATOM     12  N   UNL     1       6.477   5.120  16.175  0.00  0.00    +0.000 N 
ENDBRANCH   1  12
BRANCH   1  13
ATOM     13  C   UNL     1       5.211   5.912  18.153  0.00  0.00    +0.000 C 
ATOM     14  O   UNL     1       4.576   6.784  17.558  0.00  0.00    +0.000 OA
ATOM     15  N   UNL     1       4.720   5.307  19.292  0.00  0.00    +0.000 N 
ATOM     16  H   UNL     1       5.359   4.792  19.896  0.00  0.00    +0.000 HD
BRANCH  15  17
ATOM     17  C   UNL     1       3.429   5.720  19.799  0.00  0.00    +0.000 C 
BRANCH  17  18
ATOM     18  C   UNL     1       2.512   4.560  20.011  0.00  0.00    +0.000 A 
ATOM     19  C   UNL     1       2.181   3.940  21.201  0.00  0.00    +0.000 A 
ATOM     20  C   UNL     1       1.162   2.956  21.041  0.00  0.00    +0.000 A 
ATOM     21  C   UNL     1       0.759   2.842  19.729  0.00  0.00    +0.000 A 
ATOM     22  S   UNL     1       1.621   3.904  18.700  0.00  0.00    +0.000 S 
ENDBRANCH  17  18
ENDBRANCH  15  17
ENDBRANCH   1  13
TORSDOF 4
ENDMDL
MODEL 3
REMARK VINA RESULT:      -7.1      3.968      6.432
REMARK  Name = 
REMARK  6 active torsions:
REMARK  status: ('A' for Active; 'I' for Inactive)
REMARK    1  A    between atoms: C_1  and  C_2
REMARK    2  A    between atoms: N_10  and  C_11
REMARK    3  A    between atoms: C_11  and  C_12
REMARK    4  A    between atoms: C_11  and  C_13
REMARK    5  A    between atoms: N_15  and  C_16
REMARK    6  A    between atoms: C_16  and  C_17
REMARK                            x       y       z     vdW  Elec       q    Type
REMARK                         _______ _______ _______ _____ _____    ______ ____
ROOT
ATOM      1  C   UNL     1       6.758   6.127  18.412  0.00  0.00    +0.000 C 
ATOM      2  C   UNL     1       7.870   5.704  19.371  0.00  0.00    +0.000 C 
ENDROOT
BRANCH   1  12
ATOM      3  C   UNL     1       3.867   6.894  17.519  0.00  0.00    +0.000 C 
ATOM      4  C   UNL     1       4.260   5.626  18.194  0.00  0.00    +0.000 A 
ATOM      5  C   UNL     1       3.493   4.559  18.622  0.00  0.00    +0.000 A 
ATOM      6 BR   UNL     1       1.631   4.394  18.455  0.00  0.00    +0.000 Br
ATOM      7  C   UNL     1       4.389   3.652  19.216  0.00  0.00    +0.000 A 
ATOM      8  N   UNL     1       4.157   2.371  19.863  0.00  0.00    +0.000 N 
ATOM      9  O   UNL     1       2.997   1.937  19.869  0.00  0.00    +0.000 OA
ATOM     10  O   UNL     1       5.129   1.791  20.373  0.00  0.00    +0.000 OA
ATOM     11  N   UNL     1       5.659   4.100  19.152  0.00  0.00    +0.000 NA
ATOM     12  N   UNL     1       5.559   5.304  18.539  0.00  0.00    +0.000 N 
ENDBRANCH   1  12
BRANCH   1  13
ATOM     13  C   UNL     1       7.253   6.206  16.973  0.00  0.00    +0.000 C 
ATOM     14  O   UNL     1       7.864   7.201  16.579  0.00  0.00    +0.000 OA
ATOM     15  N   UNL     1       7.048   5.111  16.158  0.00  0.00    +0.000 N 
ATOM     16  H   UNL     1       6.334   4.430  16.413  0.00  0.00    +0.000 HD
BRANCH  15  17
ATOM     17  C   UNL     1       7.559   5.143  14.805  0.00  0.00    +0.000 C 
BRANCH  17  18
ATOM     18  C   UNL     1       6.692   4.377  13.860  0.00  0.00    +0.000 A 
ATOM     19  C   UNL     1       5.359   4.041  14.006  0.00  0.00    +0.000 A 
ATOM     20  C   UNL     1       4.817   3.431  12.837  0.00  0.00    +0.000 A 
ATOM     21  C   UNL     1       5.759   3.303  11.841  0.00  0.00    +0.000 A 
ATOM     22  S   UNL     1       7.288   3.899  12.324  0.00  0.00    +0.000 S 
ENDBRANCH  17  18
ENDBRANCH  15  17
ENDBRANCH   1  13
TORSDOF 4
ENDMDL
MODEL 4
REMARK VINA RESULT:      -6.9      1.118      1.235
REMARK  Name = 
REMARK  6 active torsions:
REMARK  status: ('A' for Active; 'I' for Inactive)
REMARK    1  A    between atoms: C_1  and  C_2
REMARK    2  A    between atoms: N_10  and  C_11
REMARK    3  A    between atoms: C_11  and  C_12
REMARK    4  A    between atoms: C_11  and  C_13
REMARK    5  A    between atoms: N_15  and  C_16
REMARK    6  A    between atoms: C_16  and  C_17
REMARK                            x       y       z     vdW  Elec       q    Type
REMARK                         _______ _______ _______ _____ _____    ______ ____
ROOT
ATOM      1  C   UNL     1       3.425   3.130  19.904  0.00  0.00    +0.000 C 
ATOM      2  C   UNL     1       4.210   2.291  20.911  0.00  0.00    +0.000 C 
ENDROOT
BRANCH   1  12
ATOM      3  C   UNL     1       2.654   3.274  16.883  0.00  0.00    +0.000 C 
ATOM      4  C   UNL     1       3.966   3.669  17.464  0.00  0.00    +0.000 A 
ATOM      5  C   UNL     1       5.123   4.117  16.854  0.00  0.00    +0.000 A 
ATOM      6 BR   UNL     1       5.376   4.376  15.012  0.00  0.00    +0.000 Br
ATOM      7  C   UNL     1       6.056   4.312  17.888  0.00  0.00    +0.000 A 
ATOM      8  N   UNL     1       7.444   4.744  17.848  0.00  0.00    +0.000 N 
ATOM      9  O   UNL     1       7.912   5.058  16.745  0.00  0.00    +0.000 OA
ATOM     10  O   UNL     1       8.076   4.770  18.915  0.00  0.00    +0.000 OA
ATOM     11  N   UNL     1       5.523   4.028  19.092  0.00  0.00    +0.000 NA
ATOM     12  N   UNL     1       4.259   3.629  18.814  0.00  0.00    +0.000 N 
ENDBRANCH   1  12
BRANCH   1  13
ATOM     13  C   UNL     1       2.640   4.244  20.586  0.00  0.00    +0.000 C 
ATOM     14  O   UNL     1       2.024   4.023  21.630  0.00  0.00    +0.000 OA
ATOM     15  N   UNL     1       2.697   5.507  20.032  0.00  0.00    +0.000 N 
ATOM     16  H   UNL     1       2.983   5.610  19.059  0.00  0.00    +0.000 HD
BRANCH  15  17
ATOM     17  C   UNL     1       2.005   6.591  20.694  0.00  0.00    +0.000 C 
BRANCH  17  18
ATOM     18  C   UNL     1       1.767   7.747  19.779  0.00  0.00    +0.000 A 
ATOM     19  C   UNL     1       1.083   8.919  20.044  0.00  0.00    +0.000 A 
ATOM     20  C   UNL     1       1.181   9.863  18.980  0.00  0.00    +0.000 A 
ATOM     21  C   UNL     1       1.922   9.375  17.927  0.00  0.00    +0.000 A 
ATOM     22  S   UNL     1       2.477   7.783  18.218  0.00  0.00    +0.000 S 
ENDBRANCH  17  18
ENDBRANCH  15  17
ENDBRANCH   1  13
TORSDOF 4
ENDMDL
MODEL 5
REMARK VINA RESULT:      -6.5      2.106      2.689
REMARK  Name = 
REMARK  6 active torsions:
REMARK  status: ('A' for Active; 'I' for Inactive)
REMARK    1  A    between atoms: C_1  and  C_2
REMARK    2  A    between atoms: N_10  and  C_11
REMARK    3  A    between atoms: C_11  and  C_12
REMARK    4  A    between atoms: C_11  and  C_13
REMARK    5  A    between atoms: N_15  and  C_16
REMARK    6  A    between atoms: C_16  and  C_17
REMARK                            x       y       z     vdW  Elec       q    Type
REMARK                         _______ _______ _______ _____ _____    ______ ____
ROOT
ATOM      1  C   UNL     1       2.399   6.035  18.819  0.00  0.00    +0.000 C 
ATOM      2  C   UNL     1       2.512   5.282  20.144  0.00  0.00    +0.000 C 
ENDROOT
BRANCH   1  12
ATOM      3  C   UNL     1       2.794   3.476  17.075  0.00  0.00    +0.000 C 
ATOM      4  C   UNL     1       3.740   4.623  17.162  0.00  0.00    +0.000 A 
ATOM      5  C   UNL     1       4.978   4.814  16.580  0.00  0.00    +0.000 A 
ATOM      6 BR   UNL     1       5.865   3.614  15.440  0.00  0.00    +0.000 Br
ATOM      7  C   UNL     1       5.431   6.067  17.032  0.00  0.00    +0.000 A 
ATOM      8  N   UNL     1       6.672   6.780  16.777  0.00  0.00    +0.000 N 
ATOM      9  O   UNL     1       7.476   6.261  15.990  0.00  0.00    +0.000 OA
ATOM     10  O   UNL     1       6.855   7.859  17.363  0.00  0.00    +0.000 OA
ATOM     11  N   UNL     1       4.525   6.654  17.840  0.00  0.00    +0.000 NA
ATOM     12  N   UNL     1       3.512   5.759  17.916  0.00  0.00    +0.000 N 
ENDBRANCH   1  12
BRANCH   1  13
ATOM     13  C   UNL     1       2.189   7.529  19.035  0.00  0.00    +0.000 C 
ATOM     14  O   UNL     1       2.156   7.995  20.175  0.00  0.00    +0.000 OA
ATOM     15  N   UNL     1       2.100   8.337  17.919  0.00  0.00    +0.000 N 
ATOM     16  H   UNL     1       1.871   7.917  17.019  0.00  0.00    +0.000 HD
BRANCH  15  17
ATOM     17  C   UNL     1       1.956   9.764  18.102  0.00  0.00    +0.000 C 
BRANCH  17  18
ATOM     18  C   UNL     1       0.528  10.166  18.276  0.00  0.00    +0.000 A 
ATOM     19  C   UNL     1      -0.585   9.672  17.620  0.00  0.00    +0.000 A 
ATOM     20  C   UNL     1      -1.805  10.188  18.146  0.00  0.00    +0.000 A 
ATOM     21  C   UNL     1      -1.585  11.076  19.176  0.00  0.00    +0.000 A 
ATOM     22  S   UNL     1       0.082  11.294  19.489  0.00  0.00    +0.000 S 
ENDBRANCH  17  18
ENDBRANCH  15  17
ENDBRANCH   1  13
TORSDOF 4
ENDMDL
MODEL 6
REMARK VINA RESULT:      -6.3      3.030      4.570
REMARK  Name = 
REMARK  6 active torsions:
REMARK  status: ('A' for Active; 'I' for Inactive)
REMARK    1  A    between atoms: C_1  and  C_2
REMARK    2  A    between atoms: N_10  and  C_11
REMARK    3  A    between atoms: C_11  and  C_12
REMARK    4  A    between atoms: C_11  and  C_13
REMARK    5  A    between atoms: N_15  and  C_16
REMARK    6  A    between atoms: C_16  and  C_17
REMARK                            x       y       z     vdW  Elec       q    Type
REMARK                         _______ _______ _______ _____ _____    ______ ____
ROOT
ATOM      1  C   UNL     1       6.711   4.914  17.807  0.00  0.00    +0.000 C 
ATOM      2  C   UNL     1       7.921   5.755  18.213  0.00  0.00    +0.000 C 
ENDROOT
BRANCH   1  12
ATOM      3  C   UNL     1       4.594   3.200  16.283  0.00  0.00    +0.000 C 
ATOM      4  C   UNL     1       5.687   3.992  15.654  0.00  0.00    +0.000 A 
ATOM      5  C   UNL     1       6.058   4.119  14.328  0.00  0.00    +0.000 A 
ATOM      6 BR   UNL     1       5.234   3.287  12.861  0.00  0.00    +0.000 Br
ATOM      7  C   UNL     1       7.176   4.972  14.319  0.00  0.00    +0.000 A 
ATOM      8  N   UNL     1       8.006   5.442  13.221  0.00  0.00    +0.000 N 
ATOM      9  O   UNL     1       7.679   5.104  12.075  0.00  0.00    +0.000 OA
ATOM     10  O   UNL     1       8.990   6.146  13.495  0.00  0.00    +0.000 OA
ATOM     11  N   UNL     1       7.490   5.386  15.563  0.00  0.00    +0.000 NA
ATOM     12  N   UNL     1       6.583   4.772  16.359  0.00  0.00    +0.000 N 
ENDBRANCH   1  12
BRANCH   1  13
ATOM     13  C   UNL     1       5.428   5.423  18.452  0.00  0.00    +0.000 C 
ATOM     14  O   UNL     1       5.262   5.327  19.669  0.00  0.00    +0.000 OA
ATOM     15  N   UNL     1       4.498   6.042  17.640  0.00  0.00    +0.000 N 
ATOM     16  H   UNL     1       4.532   5.881  16.634  0.00  0.00    +0.000 HD
BRANCH  15  17
ATOM     17  C   UNL     1       3.298   6.582  18.241  0.00  0.00    +0.000 C 
BRANCH  17  18
ATOM     18  C   UNL     1       2.358   5.507  18.679  0.00  0.00    +0.000 A 
ATOM     19  C   UNL     1       1.804   4.494  17.917  0.00  0.00    +0.000 A 
ATOM     20  C   UNL     1       1.064   3.562  18.701  0.00  0.00    +0.000 A 
ATOM     21  C   UNL     1       1.061   3.901  20.035  0.00  0.00    +0.000 A 
ATOM     22  S   UNL     1       1.929   5.345  20.332  0.00  0.00    +0.000 S 
ENDBRANCH  17  18
ENDBRANCH  15  17
ENDBRANCH   1  13
TORSDOF 4
ENDMDL
MODEL 7
REMARK VINA RESULT:      -6.3      4.234      6.466
REMARK  Name = 
REMARK  6 active torsions:
REMARK  status: ('A' for Active; 'I' for Inactive)
REMARK    1  A    between atoms: C_1  and  C_2
REMARK    2  A    between atoms: N_10  and  C_11
REMARK    3  A    between atoms: C_11  and  C_12
REMARK    4  A    between atoms: C_11  and  C_13
REMARK    5  A    between atoms: N_15  and  C_16
REMARK    6  A    between atoms: C_16  and  C_17
REMARK                            x       y       z     vdW  Elec       q    Type
REMARK                         _______ _______ _______ _____ _____    ______ ____
ROOT
ATOM      1  C   UNL     1       3.794   4.343  18.279  0.00  0.00    +0.000 C 
ATOM      2  C   UNL     1       2.866   3.573  17.340  0.00  0.00    +0.000 C 
ENDROOT
BRANCH   1  12
ATOM      3  C   UNL     1       2.385   4.645  21.048  0.00  0.00    +0.000 C 
ATOM      4  C   UNL     1       2.509   5.711  20.016  0.00  0.00    +0.000 A 
ATOM      5  C   UNL     1       2.018   7.002  19.993  0.00  0.00    +0.000 A 
ATOM      6 BR   UNL     1       1.004   7.828  21.339  0.00  0.00    +0.000 Br
ATOM      7  C   UNL     1       2.417   7.546  18.758  0.00  0.00    +0.000 A 
ATOM      8  N   UNL     1       2.168   8.852  18.168  0.00  0.00    +0.000 N 
ATOM      9  O   UNL     1       1.551   9.679  18.854  0.00  0.00    +0.000 OA
ATOM     10  O   UNL     1       2.583   9.059  17.017  0.00  0.00    +0.000 OA
ATOM     11  N   UNL     1       3.141   6.663  18.042  0.00  0.00    +0.000 NA
ATOM     12  N   UNL     1       3.176   5.553  18.816  0.00  0.00    +0.000 N 
ENDBRANCH   1  12
BRANCH   1  13
ATOM     13  C   UNL     1       5.145   4.624  17.633  0.00  0.00    +0.000 C 
ATOM     14  O   UNL     1       6.187   4.274  18.190  0.00  0.00    +0.000 OA
ATOM     15  N   UNL     1       5.154   5.223  16.389  0.00  0.00    +0.000 N 
ATOM     16  H   UNL     1       4.326   5.727  16.075  0.00  0.00    +0.000 HD
BRANCH  15  17
ATOM     17  C   UNL     1       6.424   5.448  15.733  0.00  0.00    +0.000 C 
BRANCH  17  18
ATOM     18  C   UNL     1       6.511   4.740  14.421  0.00  0.00    +0.000 A 
ATOM     19  C   UNL     1       5.614   3.840  13.876  0.00  0.00    +0.000 A 
ATOM     20  C   UNL     1       5.950   3.475  12.539  0.00  0.00    +0.000 A 
ATOM     21  C   UNL     1       7.102   4.095  12.111  0.00  0.00    +0.000 A 
ATOM     22  S   UNL     1       7.781   5.094  13.323  0.00  0.00    +0.000 S 
ENDBRANCH  17  18
ENDBRANCH  15  17
ENDBRANCH   1  13
TORSDOF 4
ENDMDL
MODEL 8
REMARK VINA RESULT:      -6.2      4.129      6.550
REMARK  Name = 
REMARK  6 active torsions:
REMARK  status: ('A' for Active; 'I' for Inactive)
REMARK    1  A    between atoms: C_1  and  C_2
REMARK    2  A    between atoms: N_10  and  C_11
REMARK    3  A    between atoms: C_11  and  C_12
REMARK    4  A    between atoms: C_11  and  C_13
REMARK    5  A    between atoms: N_15  and  C_16
REMARK    6  A    between atoms: C_16  and  C_17
REMARK                            x       y       z     vdW  Elec       q    Type
REMARK                         _______ _______ _______ _____ _____    ______ ____
ROOT
ATOM      1  C   UNL     1       6.251   5.596  18.120  0.00  0.00    +0.000 C 
ATOM      2  C   UNL     1       7.390   5.989  19.060  0.00  0.00    +0.000 C 
ENDROOT
BRANCH   1  12
ATOM      3  C   UNL     1       3.443   6.921  18.439  0.00  0.00    +0.000 C 
ATOM      4  C   UNL     1       3.860   5.617  19.025  0.00  0.00    +0.000 A 
ATOM      5  C   UNL     1       3.179   4.743  19.851  0.00  0.00    +0.000 A 
ATOM      6 BR   UNL     1       1.431   4.963  20.499  0.00  0.00    +0.000 Br
ATOM      7  C   UNL     1       4.069   3.685  20.113  0.00  0.00    +0.000 A 
ATOM      8  N   UNL     1       3.918   2.497  20.937  0.00  0.00    +0.000 N 
ATOM      9  O   UNL     1       2.818   2.314  21.477  0.00  0.00    +0.000 OA
ATOM     10  O   UNL     1       4.896   1.742  21.055  0.00  0.00    +0.000 OA
ATOM     11  N   UNL     1       5.243   3.860  19.474  0.00  0.00    +0.000 NA
ATOM     12  N   UNL     1       5.101   5.042  18.829  0.00  0.00    +0.000 N 
ENDBRANCH   1  12
BRANCH   1  13
ATOM     13  C   UNL     1       6.733   4.682  17.000  0.00  0.00    +0.000 C 
ATOM     14  O   UNL     1       7.906   4.306  16.964  0.00  0.00    +0.000 OA
ATOM     15  N   UNL     1       5.804   4.246  16.077  0.00  0.00    +0.000 N 
ATOM     16  H   UNL     1       4.930   4.760  15.972  0.00  0.00    +0.000 HD
BRANCH  15  17
ATOM     17  C   UNL     1       6.229   3.333  15.038  0.00  0.00    +0.000 C 
BRANCH  17  18
ATOM     18  C   UNL     1       6.664   4.052  13.803  0.00  0.00    +0.000 A 
ATOM     19  C   UNL     1       7.468   5.173  13.707  0.00  0.00    +0.000 A 
ATOM     20  C   UNL     1       7.794   5.499  12.357  0.00  0.00    +0.000 A 
ATOM     21  C   UNL     1       7.213   4.627  11.464  0.00  0.00    +0.000 A 
ATOM     22  S   UNL     1       6.268   3.438  12.251  0.00  0.00    +0.000 S 
ENDBRANCH  17  18
ENDBRANCH  15  17
ENDBRANCH   1  13
TORSDOF 4
ENDMDL
MODEL 9
REMARK VINA RESULT:      -6.2      3.764      5.681
REMARK  Name = 
REMARK  6 active torsions:
REMARK  status: ('A' for Active; 'I' for Inactive)
REMARK    1  A    between atoms: C_1  and  C_2
REMARK    2  A    between atoms: N_10  and  C_11
REMARK    3  A    between atoms: C_11  and  C_12
REMARK    4  A    between atoms: C_11  and  C_13
REMARK    5  A    between atoms: N_15  and  C_16
REMARK    6  A    between atoms: C_16  and  C_17
REMARK                            x       y       z     vdW  Elec       q    Type
REMARK                         _______ _______ _______ _____ _____    ______ ____
ROOT
ATOM      1  C   UNL     1       3.198   4.056  18.610  0.00  0.00    +0.000 C 
ATOM      2  C   UNL     1       2.441   3.567  17.376  0.00  0.00    +0.000 C 
ENDROOT
BRANCH   1  12
ATOM      3  C   UNL     1       1.855   4.604  21.374  0.00  0.00    +0.000 C 
ATOM      4  C   UNL     1       2.072   5.611  20.299  0.00  0.00    +0.000 A 
ATOM      5  C   UNL     1       1.709   6.942  20.226  0.00  0.00    +0.000 A 
ATOM      6 BR   UNL     1       0.794   7.916  21.545  0.00  0.00    +0.000 Br
ATOM      7  C   UNL     1       2.145   7.395  18.968  0.00  0.00    +0.000 A 
ATOM      8  N   UNL     1       2.018   8.694  18.327  0.00  0.00    +0.000 N 
ATOM      9  O   UNL     1       1.492   9.604  18.983  0.00  0.00    +0.000 OA
ATOM     10  O   UNL     1       2.438   8.814  17.165  0.00  0.00    +0.000 OA
ATOM     11  N   UNL     1       2.771   6.417  18.283  0.00  0.00    +0.000 NA
ATOM     12  N   UNL     1       2.707   5.340  19.101  0.00  0.00    +0.000 N 
ENDBRANCH   1  12
BRANCH   1  13
ATOM     13  C   UNL     1       4.705   4.064  18.382  0.00  0.00    +0.000 C 
ATOM     14  O   UNL     1       5.459   3.512  19.184  0.00  0.00    +0.000 OA
ATOM     15  N   UNL     1       5.180   4.652  17.226  0.00  0.00    +0.000 N 
ATOM     16  H   UNL     1       4.586   5.312  16.725  0.00  0.00    +0.000 HD
BRANCH  15  17
ATOM     17  C   UNL     1       6.601   4.623  16.963  0.00  0.00    +0.000 C 
BRANCH  17  18
ATOM     18  C   UNL     1       7.284   5.867  17.427  0.00  0.00    +0.000 A 
ATOM     19  C   UNL     1       7.337   7.098  16.798  0.00  0.00    +0.000 A 
ATOM     20  C   UNL     1       7.956   8.098  17.604  0.00  0.00    +0.000 A 
ATOM     21  C   UNL     1       8.373   7.596  18.816  0.00  0.00    +0.000 A 
ATOM     22  S   UNL     1       8.035   5.926  18.968  0.00  0.00    +0.000 S 
ENDBRANCH  17  18
ENDBRANCH  15  17
ENDBRANCH   1  13
TORSDOF 4
ENDMDL
