MODEL 1
REMARK VINA RESULT:      -8.1      0.000      0.000
REMARK  Name = 
REMARK  12 active torsions:
REMARK  status: ('A' for Active; 'I' for Inactive)
REMARK    1  A    between atoms: C_1  and  C_2
REMARK    2  A    between atoms: C_2  and  O_3
REMARK    3  A    between atoms: O_3  and  C_4
REMARK    4  A    between atoms: C_4  and  C_6
REMARK    5  A    between atoms: C_7  and  C_8
REMARK    6  A    between atoms: C_10  and  C_11
REMARK    7  A    between atoms: C_12  and  C_13
REMARK    8  A    between atoms: C_13  and  O_15
REMARK    9  A    between atoms: O_15  and  C_16
REMARK   10  A    between atoms: C_16  and  C_17
REMARK   11  A    between atoms: C_18  and  C_19
REMARK   12  A    between atoms: C_22  and  C_23
REMARK                            x       y       z     vdW  Elec       q    Type
REMARK                         _______ _______ _______ _____ _____    ______ ____
ROOT
ATOM      1  C   UNL     1       3.638   3.884  18.253  0.00  0.00    +0.000 C 
ATOM      2  C   UNL     1       4.543   3.308  19.079  0.00  0.00    +0.000 C 
ATOM      3  C   UNL     1       4.359   2.048  19.888  0.00  0.00    +0.000 C 
ATOM      4  N   UNL     1       5.799   3.887  19.216  0.00  0.00    +0.000 N 
ATOM      5  C   UNL     1       6.308   4.849  18.362  0.00  0.00    +0.000 C 
ATOM      6  C   UNL     1       7.789   5.114  18.461  0.00  0.00    +0.000 C 
ATOM      7  C   UNL     1       5.474   5.484  17.503  0.00  0.00    +0.000 C 
ATOM      8  C   UNL     1       3.965   5.219  17.564  0.00  0.00    +0.000 C 
ATOM      9  H   UNL     1       6.468   3.391  19.801  0.00  0.00    +0.000 HD
ENDROOT
BRANCH   8  10
ATOM     10  C   UNL     1       3.243   6.336  18.279  0.00  0.00    +0.000 A 
ATOM     11  C   UNL     1       2.807   6.464  19.586  0.00  0.00    +0.000 A 
ATOM     12  C   UNL     1       2.116   7.689  19.660  0.00  0.00    +0.000 A 
ATOM     13  C   UNL     1       2.177   8.247  18.399  0.00  0.00    +0.000 A 
ATOM     14  C   UNL     1       1.637   9.493  17.826  0.00  0.00    +0.000 C 
ATOM     15  O   UNL     1       2.865   7.425  17.551  0.00  0.00    +0.000 OA
ENDBRANCH   8  10
BRANCH   1  16
ATOM     16  C   UNL     1       2.300   3.292  17.972  0.00  0.00    +0.000 C 
ATOM     17  O   UNL     1       2.033   2.545  17.047  0.00  0.00    +0.000 OA
BRANCH  16  18
ATOM     18  O   UNL     1       1.397   3.821  18.836  0.00  0.00    +0.000 OA
BRANCH  18  20
ATOM     19  C   UNL     1       1.276   3.263  21.137  0.00  0.00    +0.000 C 
ATOM     20  C   UNL     1       0.781   2.903  19.748  0.00  0.00    +0.000 C 
ENDBRANCH  18  20
ENDBRANCH  16  18
ENDBRANCH   1  16
BRANCH   7  21
ATOM     21  C   UNL     1       5.969   6.510  16.552  0.00  0.00    +0.000 C 
ATOM     22  O   UNL     1       6.431   7.593  16.875  0.00  0.00    +0.000 OA
BRANCH  21  23
ATOM     23  O   UNL     1       5.794   6.094  15.272  0.00  0.00    +0.000 OA
BRANCH  23  24
ATOM     24  C   UNL     1       6.712   5.081  14.836  0.00  0.00    +0.000 C 
ATOM     25  C   UNL     1       5.924   4.040  14.062  0.00  0.00    +0.000 C 
ENDBRANCH  23  24
ENDBRANCH  21  23
ENDBRANCH   7  21
TORSDOF 7
ENDMDL
MODEL 2
REMARK VINA RESULT:      -8.0      0.640      1.094
REMARK  Name = 
REMARK  12 active torsions:
REMARK  status: ('A' for Active; 'I' for Inactive)
REMARK    1  A    between atoms: C_1  and  C_2
REMARK    2  A    between atoms: C_2  and  O_3
REMARK    3  A    between atoms: O_3  and  C_4
REMARK    4  A    between atoms: C_4  and  C_6
REMARK    5  A    between atoms: C_7  and  C_8
REMARK    6  A    between atoms: C_10  and  C_11
REMARK    7  A    between atoms: C_12  and  C_13
REMARK    8  A    between atoms: C_13  and  O_15
REMARK    9  A    between atoms: O_15  and  C_16
REMARK   10  A    between atoms: C_16  and  C_17
REMARK   11  A    between atoms: C_18  and  C_19
REMARK   12  A    between atoms: C_22  and  C_23
REMARK                            x       y       z     vdW  Elec       q    Type
REMARK                         _______ _______ _______ _____ _____    ______ ____
ROOT
ATOM      1  C   UNL     1       3.744   3.995  18.233  0.00  0.00    +0.000 C 
ATOM      2  C   UNL     1       4.554   3.521  19.208  0.00  0.00    +0.000 C 
ATOM      3  C   UNL     1       4.313   2.315  20.081  0.00  0.00    +0.000 C 
ATOM      4  N   UNL     1       5.761   4.164  19.457  0.00  0.00    +0.000 N 
ATOM      5  C   UNL     1       6.341   5.085  18.604  0.00  0.00    +0.000 C 
ATOM      6  C   UNL     1       7.786   5.423  18.867  0.00  0.00    +0.000 C 
ATOM      7  C   UNL     1       5.602   5.619  17.600  0.00  0.00    +0.000 C 
ATOM      8  C   UNL     1       4.109   5.291  17.491  0.00  0.00    +0.000 C 
ATOM      9  H   UNL     1       6.366   3.742  20.158  0.00  0.00    +0.000 HD
ENDROOT
BRANCH   8  10
ATOM     10  C   UNL     1       3.261   6.422  18.022  0.00  0.00    +0.000 A 
ATOM     11  C   UNL     1       2.850   7.613  17.450  0.00  0.00    +0.000 A 
ATOM     12  C   UNL     1       2.149   8.317  18.449  0.00  0.00    +0.000 A 
ATOM     13  C   UNL     1       2.160   7.514  19.572  0.00  0.00    +0.000 A 
ATOM     14  C   UNL     1       1.624   7.686  20.933  0.00  0.00    +0.000 C 
ATOM     15  O   UNL     1       2.837   6.355  19.317  0.00  0.00    +0.000 OA
ENDBRANCH   8  10
BRANCH   1  16
ATOM     16  C   UNL     1       2.476   3.325  17.831  0.00  0.00    +0.000 C 
ATOM     17  O   UNL     1       2.359   2.492  16.951  0.00  0.00    +0.000 OA
BRANCH  16  18
ATOM     18  O   UNL     1       1.447   3.887  18.517  0.00  0.00    +0.000 OA
BRANCH  18  20
ATOM     19  C   UNL     1       1.101   3.657  20.851  0.00  0.00    +0.000 C 
ATOM     20  C   UNL     1       0.805   3.053  19.491  0.00  0.00    +0.000 C 
ENDBRANCH  18  20
ENDBRANCH  16  18
ENDBRANCH   1  16
BRANCH   7  21
ATOM     21  C   UNL     1       6.179   6.597  16.644  0.00  0.00    +0.000 C 
ATOM     22  O   UNL     1       6.655   7.677  16.955  0.00  0.00    +0.000 OA
BRANCH  21  23
ATOM     23  O   UNL     1       6.061   6.141  15.371  0.00  0.00    +0.000 OA
BRANCH  23  24
ATOM     24  C   UNL     1       6.922   5.042  15.042  0.00  0.00    +0.000 C 
ATOM     25  C   UNL     1       6.087   3.992  14.331  0.00  0.00    +0.000 C 
ENDBRANCH  23  24
ENDBRANCH  21  23
ENDBRANCH   7  21
TORSDOF 7
ENDMDL
MODEL 3
REMARK VINA RESULT:      -7.2      1.939      5.464
REMARK  Name = 
REMARK  12 active torsions:
REMARK  status: ('A' for Active; 'I' for Inactive)
REMARK    1  A    between atoms: C_1  and  C_2
REMARK    2  A    between atoms: C_2  and  O_3
REMARK    3  A    between atoms: O_3  and  C_4
REMARK    4  A    between atoms: C_4  and  C_6
REMARK    5  A    between atoms: C_7  and  C_8
REMARK    6  A    between atoms: C_10  and  C_11
REMARK    7  A    between atoms: C_12  and  C_13
REMARK    8  A    between atoms: C_13  and  O_15
REMARK    9  A    between atoms: O_15  and  C_16
REMARK   10  A    between atoms: C_16  and  C_17
REMARK   11  A    between atoms: C_18  and  C_19
REMARK   12  A    between atoms: C_22  and  C_23
REMARK                            x       y       z     vdW  Elec       q    Type
REMARK                         _______ _______ _______ _____ _____    ______ ____
ROOT
ATOM      1  C   UNL     1       2.080   7.522  18.811  0.00  0.00    +0.000 C 
ATOM      2  C   UNL     1       1.892   7.502  20.152  0.00  0.00    +0.000 C 
ATOM      3  C   UNL     1       1.574   8.680  21.040  0.00  0.00    +0.000 C 
ATOM      4  N   UNL     1       1.965   6.290  20.828  0.00  0.00    +0.000 N 
ATOM      5  C   UNL     1       1.936   5.053  20.211  0.00  0.00    +0.000 C 
ATOM      6  C   UNL     1       1.690   3.865  21.105  0.00  0.00    +0.000 C 
ATOM      7  C   UNL     1       2.123   4.975  18.870  0.00  0.00    +0.000 C 
ATOM      8  C   UNL     1       2.478   6.234  18.072  0.00  0.00    +0.000 C 
ATOM      9  H   UNL     1       1.760   6.312  21.825  0.00  0.00    +0.000 HD
ENDROOT
BRANCH   8  10
ATOM     10  C   UNL     1       3.954   6.281  17.754  0.00  0.00    +0.000 A 
ATOM     11  C   UNL     1       4.636   6.543  16.579  0.00  0.00    +0.000 A 
ATOM     12  C   UNL     1       6.004   6.357  16.860  0.00  0.00    +0.000 A 
ATOM     13  C   UNL     1       6.084   6.004  18.191  0.00  0.00    +0.000 A 
ATOM     14  C   UNL     1       7.214   5.661  19.072  0.00  0.00    +0.000 C 
ATOM     15  O   UNL     1       4.835   5.956  18.743  0.00  0.00    +0.000 OA
ENDBRANCH   8  10
BRANCH   1  16
ATOM     16  C   UNL     1       1.934   8.754  17.987  0.00  0.00    +0.000 C 
ATOM     17  O   UNL     1       2.824   9.540  17.718  0.00  0.00    +0.000 OA
BRANCH  16  18
ATOM     18  O   UNL     1       0.620   8.929  17.691  0.00  0.00    +0.000 OA
BRANCH  18  20
ATOM     19  C   UNL     1      -1.429  10.122  17.719  0.00  0.00    +0.000 C 
ATOM     20  C   UNL     1       0.024  10.146  18.158  0.00  0.00    +0.000 C 
ENDBRANCH  18  20
ENDBRANCH  16  18
ENDBRANCH   1  16
BRANCH   7  21
ATOM     21  C   UNL     1       2.083   3.676  18.153  0.00  0.00    +0.000 C 
ATOM     22  O   UNL     1       1.062   3.111  17.793  0.00  0.00    +0.000 OA
BRANCH  21  23
ATOM     23  O   UNL     1       3.337   3.182  17.995  0.00  0.00    +0.000 OA
BRANCH  23  24
ATOM     24  C   UNL     1       3.563   1.904  18.609  0.00  0.00    +0.000 C 
ATOM     25  C   UNL     1       4.447   2.121  19.824  0.00  0.00    +0.000 C 
ENDBRANCH  23  24
ENDBRANCH  21  23
ENDBRANCH   7  21
TORSDOF 7
ENDMDL
MODEL 4
REMARK VINA RESULT:      -7.1      1.112      2.047
REMARK  Name = 
REMARK  12 active torsions:
REMARK  status: ('A' for Active; 'I' for Inactive)
REMARK    1  A    between atoms: C_1  and  C_2
REMARK    2  A    between atoms: C_2  and  O_3
REMARK    3  A    between atoms: O_3  and  C_4
REMARK    4  A    between atoms: C_4  and  C_6
REMARK    5  A    between atoms: C_7  and  C_8
REMARK    6  A    between atoms: C_10  and  C_11
REMARK    7  A    between atoms: C_12  and  C_13
REMARK    8  A    between atoms: C_13  and  O_15
REMARK    9  A    between atoms: O_15  and  C_16
REMARK   10  A    between atoms: C_16  and  C_17
REMARK   11  A    between atoms: C_18  and  C_19
REMARK   12  A    between atoms: C_22  and  C_23
REMARK                            x       y       z     vdW  Elec       q    Type
REMARK                         _______ _______ _______ _____ _____    ______ ____
ROOT
ATOM      1  C   UNL     1       3.715   3.856  18.193  0.00  0.00    +0.000 C 
ATOM      2  C   UNL     1       4.515   3.361  19.166  0.00  0.00    +0.000 C 
ATOM      3  C   UNL     1       4.242   2.164  20.043  0.00  0.00    +0.000 C 
ATOM      4  N   UNL     1       5.742   3.968  19.407  0.00  0.00    +0.000 N 
ATOM      5  C   UNL     1       6.346   4.868  18.548  0.00  0.00    +0.000 C 
ATOM      6  C   UNL     1       7.802   5.163  18.803  0.00  0.00    +0.000 C 
ATOM      7  C   UNL     1       5.618   5.422  17.546  0.00  0.00    +0.000 C 
ATOM      8  C   UNL     1       4.115   5.139  17.446  0.00  0.00    +0.000 C 
ATOM      9  H   UNL     1       6.337   3.529  20.106  0.00  0.00    +0.000 HD
ENDROOT
BRANCH   8  10
ATOM     10  C   UNL     1       3.305   6.296  17.977  0.00  0.00    +0.000 A 
ATOM     11  C   UNL     1       2.945   7.507  17.412  0.00  0.00    +0.000 A 
ATOM     12  C   UNL     1       2.260   8.228  18.410  0.00  0.00    +0.000 A 
ATOM     13  C   UNL     1       2.228   7.415  19.525  0.00  0.00    +0.000 A 
ATOM     14  C   UNL     1       1.682   7.595  20.882  0.00  0.00    +0.000 C 
ATOM     15  O   UNL     1       2.864   6.234  19.266  0.00  0.00    +0.000 OA
ENDBRANCH   8  10
BRANCH   1  16
ATOM     16  C   UNL     1       2.425   3.223  17.799  0.00  0.00    +0.000 C 
ATOM     17  O   UNL     1       2.281   2.379  16.934  0.00  0.00    +0.000 OA
BRANCH  16  18
ATOM     18  O   UNL     1       1.415   3.833  18.472  0.00  0.00    +0.000 OA
BRANCH  18  20
ATOM     19  C   UNL     1       1.102   3.617  20.813  0.00  0.00    +0.000 C 
ATOM     20  C   UNL     1       0.741   3.038  19.457  0.00  0.00    +0.000 C 
ENDBRANCH  18  20
ENDBRANCH  16  18
ENDBRANCH   1  16
BRANCH   7  21
ATOM     21  C   UNL     1       6.220   6.379  16.584  0.00  0.00    +0.000 C 
ATOM     22  O   UNL     1       6.481   6.123  15.419  0.00  0.00    +0.000 OA
BRANCH  21  23
ATOM     23  O   UNL     1       6.481   7.563  17.194  0.00  0.00    +0.000 OA
BRANCH  23  24
ATOM     24  C   UNL     1       7.872   7.912  17.261  0.00  0.00    +0.000 C 
ATOM     25  C   UNL     1       7.982   9.260  17.951  0.00  0.00    +0.000 C 
ENDBRANCH  23  24
ENDBRANCH  21  23
ENDBRANCH   7  21
TORSDOF 7
ENDMDL
MODEL 5
REMARK VINA RESULT:      -7.1      0.868      1.697
REMARK  Name = 
REMARK  12 active torsions:
REMARK  status: ('A' for Active; 'I' for Inactive)
REMARK    1  A    between atoms: C_1  and  C_2
REMARK    2  A    between atoms: C_2  and  O_3
REMARK    3  A    between atoms: O_3  and  C_4
REMARK    4  A    between atoms: C_4  and  C_6
REMARK    5  A    between atoms: C_7  and  C_8
REMARK    6  A    between atoms: C_10  and  C_11
REMARK    7  A    between atoms: C_12  and  C_13
REMARK    8  A    between atoms: C_13  and  O_15
REMARK    9  A    between atoms: O_15  and  C_16
REMARK   10  A    between atoms: C_16  and  C_17
REMARK   11  A    between atoms: C_18  and  C_19
REMARK   12  A    between atoms: C_22  and  C_23
REMARK                            x       y       z     vdW  Elec       q    Type
REMARK                         _______ _______ _______ _____ _____    ______ ____
ROOT
ATOM      1  C   UNL     1       3.613   3.791  18.186  0.00  0.00    +0.000 C 
ATOM      2  C   UNL     1       4.544   3.195  18.968  0.00  0.00    +0.000 C 
ATOM      3  C   UNL     1       4.371   1.939  19.786  0.00  0.00    +0.000 C 
ATOM      4  N   UNL     1       5.818   3.746  19.043  0.00  0.00    +0.000 N 
ATOM      5  C   UNL     1       6.306   4.696  18.164  0.00  0.00    +0.000 C 
ATOM      6  C   UNL     1       7.795   4.928  18.191  0.00  0.00    +0.000 C 
ATOM      7  C   UNL     1       5.445   5.350  17.346  0.00  0.00    +0.000 C 
ATOM      8  C   UNL     1       3.936   5.118  17.481  0.00  0.00    +0.000 C 
ATOM      9  H   UNL     1       6.503   3.235  19.595  0.00  0.00    +0.000 HD
ENDROOT
BRANCH   8  10
ATOM     10  C   UNL     1       3.275   6.251  18.229  0.00  0.00    +0.000 A 
ATOM     11  C   UNL     1       2.896   6.385  19.553  0.00  0.00    +0.000 A 
ATOM     12  C   UNL     1       2.242   7.628  19.660  0.00  0.00    +0.000 A 
ATOM     13  C   UNL     1       2.267   8.191  18.400  0.00  0.00    +0.000 A 
ATOM     14  C   UNL     1       1.740   9.454  17.855  0.00  0.00    +0.000 C 
ATOM     15  O   UNL     1       2.897   7.355  17.522  0.00  0.00    +0.000 OA
ENDBRANCH   8  10
BRANCH   1  16
ATOM     16  C   UNL     1       2.250   3.229  17.971  0.00  0.00    +0.000 C 
ATOM     17  O   UNL     1       1.919   2.496  17.056  0.00  0.00    +0.000 OA
BRANCH  16  18
ATOM     18  O   UNL     1       1.404   3.769  18.885  0.00  0.00    +0.000 OA
BRANCH  18  20
ATOM     19  C   UNL     1       1.332   3.289  21.206  0.00  0.00    +0.000 C 
ATOM     20  C   UNL     1       0.837   2.860  19.837  0.00  0.00    +0.000 C 
ENDBRANCH  18  20
ENDBRANCH  16  18
ENDBRANCH   1  16
BRANCH   7  21
ATOM     21  C   UNL     1       5.917   6.365  16.371  0.00  0.00    +0.000 C 
ATOM     22  O   UNL     1       5.392   6.590  15.292  0.00  0.00    +0.000 OA
BRANCH  21  23
ATOM     23  O   UNL     1       7.040   6.974  16.827  0.00  0.00    +0.000 OA
BRANCH  23  24
ATOM     24  C   UNL     1       6.821   8.238  17.472  0.00  0.00    +0.000 C 
ATOM     25  C   UNL     1       8.170   8.776  17.914  0.00  0.00    +0.000 C 
ENDBRANCH  23  24
ENDBRANCH  21  23
ENDBRANCH   7  21
TORSDOF 7
ENDMDL
MODEL 6
REMARK VINA RESULT:      -6.9      1.622      5.420
REMARK  Name = 
REMARK  12 active torsions:
REMARK  status: ('A' for Active; 'I' for Inactive)
REMARK    1  A    between atoms: C_1  and  C_2
REMARK    2  A    between atoms: C_2  and  O_3
REMARK    3  A    between atoms: O_3  and  C_4
REMARK    4  A    between atoms: C_4  and  C_6
REMARK    5  A    between atoms: C_7  and  C_8
REMARK    6  A    between atoms: C_10  and  C_11
REMARK    7  A    between atoms: C_12  and  C_13
REMARK    8  A    between atoms: C_13  and  O_15
REMARK    9  A    between atoms: O_15  and  C_16
REMARK   10  A    between atoms: C_16  and  C_17
REMARK   11  A    between atoms: C_18  and  C_19
REMARK   12  A    between atoms: C_22  and  C_23
REMARK                            x       y       z     vdW  Elec       q    Type
REMARK                         _______ _______ _______ _____ _____    ______ ____
ROOT
ATOM      1  C   UNL     1       2.250   6.929  18.865  0.00  0.00    +0.000 C 
ATOM      2  C   UNL     1       1.962   6.959  20.188  0.00  0.00    +0.000 C 
ATOM      3  C   UNL     1       1.716   8.183  21.035  0.00  0.00    +0.000 C 
ATOM      4  N   UNL     1       1.846   5.760  20.882  0.00  0.00    +0.000 N 
ATOM      5  C   UNL     1       1.721   4.522  20.280  0.00  0.00    +0.000 C 
ATOM      6  C   UNL     1       1.275   3.388  21.167  0.00  0.00    +0.000 C 
ATOM      7  C   UNL     1       1.996   4.395  18.958  0.00  0.00    +0.000 C 
ATOM      8  C   UNL     1       2.552   5.589  18.174  0.00  0.00    +0.000 C 
ATOM      9  H   UNL     1       1.571   5.826  21.860  0.00  0.00    +0.000 HD
ENDROOT
BRANCH   8  10
ATOM     10  C   UNL     1       4.042   5.461  17.968  0.00  0.00    +0.000 A 
ATOM     11  C   UNL     1       5.104   5.525  18.853  0.00  0.00    +0.000 A 
ATOM     12  C   UNL     1       6.277   5.426  18.080  0.00  0.00    +0.000 A 
ATOM     13  C   UNL     1       5.870   5.295  16.768  0.00  0.00    +0.000 A 
ATOM     14  C   UNL     1       6.604   5.172  15.497  0.00  0.00    +0.000 C 
ATOM     15  O   UNL     1       4.505   5.316  16.694  0.00  0.00    +0.000 OA
ENDBRANCH   8  10
BRANCH   1  16
ATOM     16  C   UNL     1       2.307   8.152  18.017  0.00  0.00    +0.000 C 
ATOM     17  O   UNL     1       3.321   8.736  17.678  0.00  0.00    +0.000 OA
BRANCH  16  18
ATOM     18  O   UNL     1       1.041   8.586  17.789  0.00  0.00    +0.000 OA
BRANCH  18  20
ATOM     19  C   UNL     1      -0.730  10.125  18.131  0.00  0.00    +0.000 C 
ATOM     20  C   UNL     1       0.779   9.961  18.098  0.00  0.00    +0.000 C 
ENDBRANCH  18  20
ENDBRANCH  16  18
ENDBRANCH   1  16
BRANCH   7  21
ATOM     21  C   UNL     1       1.861   3.094  18.256  0.00  0.00    +0.000 C 
ATOM     22  O   UNL     1       0.803   2.519  18.055  0.00  0.00    +0.000 OA
BRANCH  21  23
ATOM     23  O   UNL     1       3.082   2.612  17.911  0.00  0.00    +0.000 OA
BRANCH  23  24
ATOM     24  C   UNL     1       3.529   1.491  18.688  0.00  0.00    +0.000 C 
ATOM     25  C   UNL     1       4.457   2.014  19.770  0.00  0.00    +0.000 C 
ENDBRANCH  23  24
ENDBRANCH  21  23
ENDBRANCH   7  21
TORSDOF 7
ENDMDL
MODEL 7
REMARK VINA RESULT:      -6.7      2.385      5.098
REMARK  Name = 
REMARK  12 active torsions:
REMARK  status: ('A' for Active; 'I' for Inactive)
REMARK    1  A    between atoms: C_1  and  C_2
REMARK    2  A    between atoms: C_2  and  O_3
REMARK    3  A    between atoms: O_3  and  C_4
REMARK    4  A    between atoms: C_4  and  C_6
REMARK    5  A    between atoms: C_7  and  C_8
REMARK    6  A    between atoms: C_10  and  C_11
REMARK    7  A    between atoms: C_12  and  C_13
REMARK    8  A    between atoms: C_13  and  O_15
REMARK    9  A    between atoms: O_15  and  C_16
REMARK   10  A    between atoms: C_16  and  C_17
REMARK   11  A    between atoms: C_18  and  C_19
REMARK   12  A    between atoms: C_22  and  C_23
REMARK                            x       y       z     vdW  Elec       q    Type
REMARK                         _______ _______ _______ _____ _____    ______ ____
ROOT
ATOM      1  C   UNL     1       2.374   7.245  19.480  0.00  0.00    +0.000 C 
ATOM      2  C   UNL     1       2.327   7.763  18.230  0.00  0.00    +0.000 C 
ATOM      3  C   UNL     1       1.456   8.898  17.752  0.00  0.00    +0.000 C 
ATOM      4  N   UNL     1       3.166   7.246  17.251  0.00  0.00    +0.000 N 
ATOM      5  C   UNL     1       4.253   6.431  17.510  0.00  0.00    +0.000 C 
ATOM      6  C   UNL     1       5.233   6.243  16.380  0.00  0.00    +0.000 C 
ATOM      7  C   UNL     1       4.381   5.862  18.735  0.00  0.00    +0.000 C 
ATOM      8  C   UNL     1       3.268   6.029  19.775  0.00  0.00    +0.000 C 
ATOM      9  H   UNL     1       3.140   7.702  16.342  0.00  0.00    +0.000 HD
ENDROOT
BRANCH   8  10
ATOM     10  C   UNL     1       2.408   4.791  19.859  0.00  0.00    +0.000 A 
ATOM     11  C   UNL     1       1.556   4.196  18.945  0.00  0.00    +0.000 A 
ATOM     12  C   UNL     1       0.952   3.109  19.607  0.00  0.00    +0.000 A 
ATOM     13  C   UNL     1       1.476   3.092  20.884  0.00  0.00    +0.000 A 
ATOM     14  C   UNL     1       1.238   2.228  22.054  0.00  0.00    +0.000 C 
ATOM     15  O   UNL     1       2.366   4.116  21.044  0.00  0.00    +0.000 OA
ENDBRANCH   8  10
BRANCH   1  16
ATOM     16  C   UNL     1       1.581   7.789  20.618  0.00  0.00    +0.000 C 
ATOM     17  O   UNL     1       0.673   7.215  21.190  0.00  0.00    +0.000 OA
BRANCH  16  18
ATOM     18  O   UNL     1       1.946   9.080  20.828  0.00  0.00    +0.000 OA
BRANCH  18  20
ATOM     19  C   UNL     1       0.299  10.770  20.605  0.00  0.00    +0.000 C 
ATOM     20  C   UNL     1       1.033   9.879  21.590  0.00  0.00    +0.000 C 
ENDBRANCH  18  20
ENDBRANCH  16  18
ENDBRANCH   1  16
BRANCH   7  21
ATOM     21  C   UNL     1       5.536   4.995  19.074  0.00  0.00    +0.000 C 
ATOM     22  O   UNL     1       5.594   3.795  18.856  0.00  0.00    +0.000 OA
BRANCH  21  23
ATOM     23  O   UNL     1       6.500   5.714  19.702  0.00  0.00    +0.000 OA
BRANCH  23  24
ATOM     24  C   UNL     1       7.785   5.688  19.063  0.00  0.00    +0.000 C 
ATOM     25  C   UNL     1       8.043   7.067  18.481  0.00  0.00    +0.000 C 
ENDBRANCH  23  24
ENDBRANCH  21  23
ENDBRANCH   7  21
TORSDOF 7
ENDMDL
MODEL 8
REMARK VINA RESULT:      -6.6      2.275      5.012
REMARK  Name = 
REMARK  12 active torsions:
REMARK  status: ('A' for Active; 'I' for Inactive)
REMARK    1  A    between atoms: C_1  and  C_2
REMARK    2  A    between atoms: C_2  and  O_3
REMARK    3  A    between atoms: O_3  and  C_4
REMARK    4  A    between atoms: C_4  and  C_6
REMARK    5  A    between atoms: C_7  and  C_8
REMARK    6  A    between atoms: C_10  and  C_11
REMARK    7  A    between atoms: C_12  and  C_13
REMARK    8  A    between atoms: C_13  and  O_15
REMARK    9  A    between atoms: O_15  and  C_16
REMARK   10  A    between atoms: C_16  and  C_17
REMARK   11  A    between atoms: C_18  and  C_19
REMARK   12  A    between atoms: C_22  and  C_23
REMARK                            x       y       z     vdW  Elec       q    Type
REMARK                         _______ _______ _______ _____ _____    ______ ____
ROOT
ATOM      1  C   UNL     1       2.338   7.179  19.597  0.00  0.00    +0.000 C 
ATOM      2  C   UNL     1       2.256   7.588  18.309  0.00  0.00    +0.000 C 
ATOM      3  C   UNL     1       1.367   8.676  17.758  0.00  0.00    +0.000 C 
ATOM      4  N   UNL     1       3.073   6.992  17.356  0.00  0.00    +0.000 N 
ATOM      5  C   UNL     1       4.170   6.205  17.655  0.00  0.00    +0.000 C 
ATOM      6  C   UNL     1       5.121   5.923  16.521  0.00  0.00    +0.000 C 
ATOM      7  C   UNL     1       4.331   5.743  18.920  0.00  0.00    +0.000 C 
ATOM      8  C   UNL     1       3.245   5.995  19.971  0.00  0.00    +0.000 C 
ATOM      9  H   UNL     1       3.021   7.368  16.411  0.00  0.00    +0.000 HD
ENDROOT
BRANCH   8  10
ATOM     10  C   UNL     1       2.394   4.766  20.183  0.00  0.00    +0.000 A 
ATOM     11  C   UNL     1       2.055   4.064  21.326  0.00  0.00    +0.000 A 
ATOM     12  C   UNL     1       1.307   2.948  20.905  0.00  0.00    +0.000 A 
ATOM     13  C   UNL     1       1.219   3.034  19.530  0.00  0.00    +0.000 A 
ATOM     14  C   UNL     1       0.595   2.175  18.509  0.00  0.00    +0.000 C 
ATOM     15  O   UNL     1       1.880   4.143  19.084  0.00  0.00    +0.000 OA
ENDBRANCH   8  10
BRANCH   1  16
ATOM     16  C   UNL     1       1.571   7.816  20.703  0.00  0.00    +0.000 C 
ATOM     17  O   UNL     1       0.668   7.297  21.334  0.00  0.00    +0.000 OA
BRANCH  16  18
ATOM     18  O   UNL     1       1.953   9.115  20.809  0.00  0.00    +0.000 OA
BRANCH  18  20
ATOM     19  C   UNL     1       0.321  10.812  20.531  0.00  0.00    +0.000 C 
ATOM     20  C   UNL     1       1.075   9.975  21.547  0.00  0.00    +0.000 C 
ENDBRANCH  18  20
ENDBRANCH  16  18
ENDBRANCH   1  16
BRANCH   7  21
ATOM     21  C   UNL     1       5.500   4.911  19.302  0.00  0.00    +0.000 C 
ATOM     22  O   UNL     1       5.522   3.691  19.282  0.00  0.00    +0.000 OA
BRANCH  21  23
ATOM     23  O   UNL     1       6.524   5.697  19.722  0.00  0.00    +0.000 OA
BRANCH  23  24
ATOM     24  C   UNL     1       7.705   5.633  18.909  0.00  0.00    +0.000 C 
ATOM     25  C   UNL     1       8.017   7.040  18.431  0.00  0.00    +0.000 C 
ENDBRANCH  23  24
ENDBRANCH  21  23
ENDBRANCH   7  21
TORSDOF 7
ENDMDL
MODEL 9
REMARK VINA RESULT:      -6.6      1.892      5.178
REMARK  Name = 
REMARK  12 active torsions:
REMARK  status: ('A' for Active; 'I' for Inactive)
REMARK    1  A    between atoms: C_1  and  C_2
REMARK    2  A    between atoms: C_2  and  O_3
REMARK    3  A    between atoms: O_3  and  C_4
REMARK    4  A    between atoms: C_4  and  C_6
REMARK    5  A    between atoms: C_7  and  C_8
REMARK    6  A    between atoms: C_10  and  C_11
REMARK    7  A    between atoms: C_12  and  C_13
REMARK    8  A    between atoms: C_13  and  O_15
REMARK    9  A    between atoms: O_15  and  C_16
REMARK   10  A    between atoms: C_16  and  C_17
REMARK   11  A    between atoms: C_18  and  C_19
REMARK   12  A    between atoms: C_22  and  C_23
REMARK                            x       y       z     vdW  Elec       q    Type
REMARK                         _______ _______ _______ _____ _____    ______ ____
ROOT
ATOM      1  C   UNL     1       4.373   5.554  17.986  0.00  0.00    +0.000 C 
ATOM      2  C   UNL     1       4.121   4.623  17.035  0.00  0.00    +0.000 C 
ATOM      3  C   UNL     1       4.994   4.273  15.855  0.00  0.00    +0.000 C 
ATOM      4  N   UNL     1       2.959   3.866  17.122  0.00  0.00    +0.000 N 
ATOM      5  C   UNL     1       2.168   3.782  18.253  0.00  0.00    +0.000 C 
ATOM      6  C   UNL     1       1.151   2.671  18.278  0.00  0.00    +0.000 C 
ATOM      7  C   UNL     1       2.345   4.678  19.256  0.00  0.00    +0.000 C 
ATOM      8  C   UNL     1       3.331   5.839  19.080  0.00  0.00    +0.000 C 
ATOM      9  H   UNL     1       2.837   3.138  16.420  0.00  0.00    +0.000 HD
ENDROOT
BRANCH   8  10
ATOM     10  C   UNL     1       2.609   7.124  18.754  0.00  0.00    +0.000 A 
ATOM     11  C   UNL     1       2.472   7.832  17.573  0.00  0.00    +0.000 A 
ATOM     12  C   UNL     1       1.763   9.007  17.889  0.00  0.00    +0.000 A 
ATOM     13  C   UNL     1       1.495   8.949  19.242  0.00  0.00    +0.000 A 
ATOM     14  C   UNL     1       0.814   9.868  20.170  0.00  0.00    +0.000 C 
ATOM     15  O   UNL     1       2.009   7.801  19.775  0.00  0.00    +0.000 OA
ENDBRANCH   8  10
BRANCH   1  16
ATOM     16  C   UNL     1       5.630   6.352  18.030  0.00  0.00    +0.000 C 
ATOM     17  O   UNL     1       5.967   7.196  17.219  0.00  0.00    +0.000 OA
BRANCH  16  18
ATOM     18  O   UNL     1       6.403   5.895  19.049  0.00  0.00    +0.000 OA
BRANCH  18  20
ATOM     19  C   UNL     1       7.922   4.509  17.869  0.00  0.00    +0.000 C 
ATOM     20  C   UNL     1       7.798   5.731  18.761  0.00  0.00    +0.000 C 
ENDBRANCH  18  20
ENDBRANCH  16  18
ENDBRANCH   1  16
BRANCH   7  21
ATOM     21  C   UNL     1       1.538   4.624  20.500  0.00  0.00    +0.000 C 
ATOM     22  O   UNL     1       0.369   4.968  20.587  0.00  0.00    +0.000 OA
BRANCH  21  23
ATOM     23  O   UNL     1       2.294   4.182  21.537  0.00  0.00    +0.000 OA
BRANCH  23  24
ATOM     24  C   UNL     1       2.191   2.775  21.800  0.00  0.00    +0.000 C 
ATOM     25  C   UNL     1       3.443   2.108  21.258  0.00  0.00    +0.000 C 
ENDBRANCH  23  24
ENDBRANCH  21  23
ENDBRANCH   7  21
TORSDOF 7
ENDMDL
