MODEL 1
REMARK VINA RESULT:      -8.6      0.000      0.000
REMARK  Name = 
REMARK  5 active torsions:
REMARK  status: ('A' for Active; 'I' for Inactive)
REMARK    1  A    between atoms: C_1  and  C_2
REMARK    2  A    between atoms: C_2  and  C_3
REMARK    3  A    between atoms: C_9  and  C_10
REMARK    4  A    between atoms: C_10  and  N_11
REMARK    5  A    between atoms: C_13  and  C_14
REMARK                            x       y       z     vdW  Elec       q    Type
REMARK                         _______ _______ _______ _____ _____    ______ ____
ROOT
ATOM      1  C   UNL     1       0.958   8.820  20.419  0.00  0.00    +0.000 A 
ATOM      2  C   UNL     1       0.965  10.007  19.672  0.00  0.00    +0.000 A 
ATOM      3  C   UNL     1       1.595  10.055  18.431  0.00  0.00    +0.000 A 
ATOM      4  C   UNL     1       2.207   8.909  17.923  0.00  0.00    +0.000 A 
ATOM      5  C   UNL     1       2.223   7.723  18.675  0.00  0.00    +0.000 A 
ATOM      6  C   UNL     1       2.832   6.546  18.194  0.00  0.00    +0.000 A 
ATOM      7  C   UNL     1       2.868   5.387  18.982  0.00  0.00    +0.000 A 
ATOM      8  C   UNL     1       2.322   5.494  20.248  0.00  0.00    +0.000 A 
ATOM      9 CL   UNL     1       2.395   4.240  21.423  0.00  0.00    +0.000 Cl
ATOM     10  N   UNL     1       1.689   6.582  20.720  0.00  0.00    +0.000 NA
ATOM     11  C   UNL     1       1.624   7.680  19.949  0.00  0.00    +0.000 A 
ENDROOT
BRANCH   1  13
ATOM     12  C   UNL     1      -0.099  10.170  22.262  0.00  0.00    +0.000 C 
ATOM     13  C   UNL     1       0.248   8.780  21.757  0.00  0.00    +0.000 C 
ENDBRANCH   1  13
BRANCH   7  14
ATOM     14  C   UNL     1       3.488   4.123  18.447  0.00  0.00    +0.000 C 
BRANCH  14  15
ATOM     15  N   UNL     1       4.591   4.401  17.548  0.00  0.00    +0.000 N 
ATOM     16  C   UNL     1       4.550   4.565  16.196  0.00  0.00    +0.000 A 
ATOM     17  C   UNL     1       5.877   4.533  15.829  0.00  0.00    +0.000 A 
ATOM     18  N   UNL     1       6.656   4.510  16.958  0.00  0.00    +0.000 NA
ATOM     19  N   UNL     1       5.852   4.469  18.013  0.00  0.00    +0.000 NA
BRANCH  17  20
ATOM     20  C   UNL     1       6.383   4.412  14.478  0.00  0.00    +0.000 A 
ATOM     21  C   UNL     1       7.430   5.218  14.010  0.00  0.00    +0.000 A 
ATOM     22  C   UNL     1       7.844   5.139  12.678  0.00  0.00    +0.000 A 
ATOM     23  C   UNL     1       7.214   4.257  11.802  0.00  0.00    +0.000 A 
ATOM     24  C   UNL     1       6.178   3.444  12.258  0.00  0.00    +0.000 A 
ATOM     25  C   UNL     1       5.769   3.518  13.590  0.00  0.00    +0.000 A 
ENDBRANCH  17  20
ENDBRANCH  14  15
ENDBRANCH   7  14
TORSDOF 4
ENDMDL
MODEL 2
REMARK VINA RESULT:      -8.2      1.873      8.748
REMARK  Name = 
REMARK  5 active torsions:
REMARK  status: ('A' for Active; 'I' for Inactive)
REMARK    1  A    between atoms: C_1  and  C_2
REMARK    2  A    between atoms: C_2  and  C_3
REMARK    3  A    between atoms: C_9  and  C_10
REMARK    4  A    between atoms: C_10  and  N_11
REMARK    5  A    between atoms: C_13  and  C_14
REMARK                            x       y       z     vdW  Elec       q    Type
REMARK                         _______ _______ _______ _____ _____    ______ ____
ROOT
ATOM      1  C   UNL     1       6.059   4.254  16.494  0.00  0.00    +0.000 A 
ATOM      2  C   UNL     1       7.412   4.526  16.749  0.00  0.00    +0.000 A 
ATOM      3  C   UNL     1       7.795   5.148  17.934  0.00  0.00    +0.000 A 
ATOM      4  C   UNL     1       6.826   5.487  18.880  0.00  0.00    +0.000 A 
ATOM      5  C   UNL     1       5.468   5.238  18.623  0.00  0.00    +0.000 A 
ATOM      6  C   UNL     1       4.463   5.566  19.554  0.00  0.00    +0.000 A 
ATOM      7  C   UNL     1       3.112   5.342  19.256  0.00  0.00    +0.000 A 
ATOM      8  C   UNL     1       2.842   4.836  17.998  0.00  0.00    +0.000 A 
ATOM      9 CL   UNL     1       1.250   4.627  17.379  0.00  0.00    +0.000 Cl
ATOM     10  N   UNL     1       3.775   4.464  17.105  0.00  0.00    +0.000 NA
ATOM     11  C   UNL     1       5.071   4.646  17.408  0.00  0.00    +0.000 A 
ENDROOT
BRANCH   1  13
ATOM     12  C   UNL     1       6.384   4.130  14.002  0.00  0.00    +0.000 C 
ATOM     13  C   UNL     1       5.664   3.555  15.210  0.00  0.00    +0.000 C 
ENDBRANCH   1  13
BRANCH   7  14
ATOM     14  C   UNL     1       2.046   5.662  20.270  0.00  0.00    +0.000 C 
BRANCH  14  15
ATOM     15  N   UNL     1       1.755   7.081  20.319  0.00  0.00    +0.000 N 
ATOM     16  C   UNL     1       1.218   7.793  21.350  0.00  0.00    +0.000 A 
ATOM     17  C   UNL     1       0.913   9.007  20.776  0.00  0.00    +0.000 A 
ATOM     18  N   UNL     1       1.406   9.037  19.496  0.00  0.00    +0.000 NA
ATOM     19  N   UNL     1       1.959   7.858  19.239  0.00  0.00    +0.000 NA
BRANCH  17  20
ATOM     20  C   UNL     1       0.092  10.044  21.366  0.00  0.00    +0.000 A 
ATOM     21  C   UNL     1      -0.053  11.300  20.760  0.00  0.00    +0.000 A 
ATOM     22  C   UNL     1      -0.783  12.310  21.392  0.00  0.00    +0.000 A 
ATOM     23  C   UNL     1      -1.370  12.077  22.633  0.00  0.00    +0.000 A 
ATOM     24  C   UNL     1      -1.240  10.829  23.241  0.00  0.00    +0.000 A 
ATOM     25  C   UNL     1      -0.517   9.817  22.608  0.00  0.00    +0.000 A 
ENDBRANCH  17  20
ENDBRANCH  14  15
ENDBRANCH   7  14
TORSDOF 4
ENDMDL
MODEL 3
REMARK VINA RESULT:      -8.1      3.923      8.310
REMARK  Name = 
REMARK  5 active torsions:
REMARK  status: ('A' for Active; 'I' for Inactive)
REMARK    1  A    between atoms: C_1  and  C_2
REMARK    2  A    between atoms: C_2  and  C_3
REMARK    3  A    between atoms: C_9  and  C_10
REMARK    4  A    between atoms: C_10  and  N_11
REMARK    5  A    between atoms: C_13  and  C_14
REMARK                            x       y       z     vdW  Elec       q    Type
REMARK                         _______ _______ _______ _____ _____    ______ ____
ROOT
ATOM      1  C   UNL     1       2.238   3.931  20.116  0.00  0.00    +0.000 A 
ATOM      2  C   UNL     1       2.357   2.848  19.233  0.00  0.00    +0.000 A 
ATOM      3  C   UNL     1       2.500   3.066  17.866  0.00  0.00    +0.000 A 
ATOM      4  C   UNL     1       2.541   4.372  17.375  0.00  0.00    +0.000 A 
ATOM      5  C   UNL     1       2.401   5.461  18.251  0.00  0.00    +0.000 A 
ATOM      6  C   UNL     1       2.438   6.793  17.792  0.00  0.00    +0.000 A 
ATOM      7  C   UNL     1       2.256   7.860  18.682  0.00  0.00    +0.000 A 
ATOM      8  C   UNL     1       1.996   7.520  19.997  0.00  0.00    +0.000 A 
ATOM      9 CL   UNL     1       1.598   8.668  21.215  0.00  0.00    +0.000 Cl
ATOM     10  N   UNL     1       2.004   6.265  20.479  0.00  0.00    +0.000 NA
ATOM     11  C   UNL     1       2.215   5.246  19.630  0.00  0.00    +0.000 A 
ENDROOT
BRANCH   1  13
ATOM     12  C   UNL     1       1.465   2.330  21.898  0.00  0.00    +0.000 C 
ATOM     13  C   UNL     1       2.107   3.675  21.604  0.00  0.00    +0.000 C 
ENDBRANCH   1  13
BRANCH   7  14
ATOM     14  C   UNL     1       2.332   9.282  18.191  0.00  0.00    +0.000 C 
BRANCH  14  15
ATOM     15  N   UNL     1       1.080   9.987  18.378  0.00  0.00    +0.000 N 
ATOM     16  C   UNL     1      -0.170   9.590  18.005  0.00  0.00    +0.000 A 
ATOM     17  C   UNL     1      -0.929  10.726  18.174  0.00  0.00    +0.000 A 
ATOM     18  N   UNL     1      -0.165  11.695  18.775  0.00  0.00    +0.000 NA
ATOM     19  N   UNL     1       1.061  11.213  18.933  0.00  0.00    +0.000 NA
BRANCH  17  20
ATOM     20  C   UNL     1      -2.277  10.928  17.685  0.00  0.00    +0.000 A 
ATOM     21  C   UNL     1      -2.638  10.606  16.369  0.00  0.00    +0.000 A 
ATOM     22  C   UNL     1      -3.923  10.888  15.898  0.00  0.00    +0.000 A 
ATOM     23  C   UNL     1      -4.856  11.496  16.734  0.00  0.00    +0.000 A 
ATOM     24  C   UNL     1      -4.512  11.812  18.047  0.00  0.00    +0.000 A 
ATOM     25  C   UNL     1      -3.231  11.525  18.521  0.00  0.00    +0.000 A 
ENDBRANCH  17  20
ENDBRANCH  14  15
ENDBRANCH   7  14
TORSDOF 4
ENDMDL
MODEL 4
REMARK VINA RESULT:      -8.0      1.616      8.111
REMARK  Name = 
REMARK  5 active torsions:
REMARK  status: ('A' for Active; 'I' for Inactive)
REMARK    1  A    between atoms: C_1  and  C_2
REMARK    2  A    between atoms: C_2  and  C_3
REMARK    3  A    between atoms: C_9  and  C_10
REMARK    4  A    between atoms: C_10  and  N_11
REMARK    5  A    between atoms: C_13  and  C_14
REMARK                            x       y       z     vdW  Elec       q    Type
REMARK                         _______ _______ _______ _____ _____    ______ ____
ROOT
ATOM      1  C   UNL     1       6.184   3.687  12.592  0.00  0.00    +0.000 A 
ATOM      2  C   UNL     1       7.077   4.357  11.744  0.00  0.00    +0.000 A 
ATOM      3  C   UNL     1       7.948   5.317  12.254  0.00  0.00    +0.000 A 
ATOM      4  C   UNL     1       7.940   5.600  13.621  0.00  0.00    +0.000 A 
ATOM      5  C   UNL     1       7.034   4.948  14.473  0.00  0.00    +0.000 A 
ATOM      6  C   UNL     1       6.997   5.208  15.857  0.00  0.00    +0.000 A 
ATOM      7  C   UNL     1       6.056   4.573  16.678  0.00  0.00    +0.000 A 
ATOM      8  C   UNL     1       5.159   3.734  16.042  0.00  0.00    +0.000 A 
ATOM      9 CL   UNL     1       3.837   2.975  16.839  0.00  0.00    +0.000 Cl
ATOM     10  N   UNL     1       5.196   3.424  14.735  0.00  0.00    +0.000 NA
ATOM     11  C   UNL     1       6.123   4.007  13.956  0.00  0.00    +0.000 A 
ENDROOT
BRANCH   1  13
ATOM     12  C   UNL     1       4.120   3.235  11.225  0.00  0.00    +0.000 C 
ATOM     13  C   UNL     1       5.261   2.629  12.024  0.00  0.00    +0.000 C 
ENDBRANCH   1  13
BRANCH   7  14
ATOM     14  C   UNL     1       6.046   4.828  18.163  0.00  0.00    +0.000 C 
BRANCH  14  15
ATOM     15  N   UNL     1       4.762   5.322  18.618  0.00  0.00    +0.000 N 
ATOM     16  C   UNL     1       4.033   6.355  18.110  0.00  0.00    +0.000 A 
ATOM     17  C   UNL     1       3.060   6.559  19.063  0.00  0.00    +0.000 A 
ATOM     18  N   UNL     1       3.140   5.568  20.008  0.00  0.00    +0.000 NA
ATOM     19  N   UNL     1       4.169   4.788  19.701  0.00  0.00    +0.000 NA
BRANCH  17  20
ATOM     20  C   UNL     1       2.173   7.701  19.141  0.00  0.00    +0.000 A 
ATOM     21  C   UNL     1       1.954   8.539  18.038  0.00  0.00    +0.000 A 
ATOM     22  C   UNL     1       1.159   9.682  18.164  0.00  0.00    +0.000 A 
ATOM     23  C   UNL     1       0.580   9.998  19.391  0.00  0.00    +0.000 A 
ATOM     24  C   UNL     1       0.783   9.168  20.492  0.00  0.00    +0.000 A 
ATOM     25  C   UNL     1       1.571   8.023  20.365  0.00  0.00    +0.000 A 
ENDBRANCH  17  20
ENDBRANCH  14  15
ENDBRANCH   7  14
TORSDOF 4
ENDMDL
MODEL 5
REMARK VINA RESULT:      -8.0      4.437      6.310
REMARK  Name = 
REMARK  5 active torsions:
REMARK  status: ('A' for Active; 'I' for Inactive)
REMARK    1  A    between atoms: C_1  and  C_2
REMARK    2  A    between atoms: C_2  and  C_3
REMARK    3  A    between atoms: C_9  and  C_10
REMARK    4  A    between atoms: C_10  and  N_11
REMARK    5  A    between atoms: C_13  and  C_14
REMARK                            x       y       z     vdW  Elec       q    Type
REMARK                         _______ _______ _______ _____ _____    ______ ____
ROOT
ATOM      1  C   UNL     1      -3.220  11.924  19.231  0.00  0.00    +0.000 A 
ATOM      2  C   UNL     1      -4.346  11.494  18.513  0.00  0.00    +0.000 A 
ATOM      3  C   UNL     1      -4.225  10.509  17.536  0.00  0.00    +0.000 A 
ATOM      4  C   UNL     1      -2.977   9.937  17.283  0.00  0.00    +0.000 A 
ATOM      5  C   UNL     1      -1.842  10.378  17.982  0.00  0.00    +0.000 A 
ATOM      6  C   UNL     1      -0.567   9.825  17.753  0.00  0.00    +0.000 A 
ATOM      7  C   UNL     1       0.556  10.311  18.435  0.00  0.00    +0.000 A 
ATOM      8  C   UNL     1       0.336  11.376  19.290  0.00  0.00    +0.000 A 
ATOM      9 CL   UNL     1       1.596  12.214  20.108  0.00  0.00    +0.000 Cl
ATOM     10  N   UNL     1      -0.871  11.895  19.571  0.00  0.00    +0.000 NA
ATOM     11  C   UNL     1      -1.951  11.403  18.942  0.00  0.00    +0.000 A 
ENDROOT
BRANCH   1  13
ATOM     12  C   UNL     1      -4.730  12.905  20.989  0.00  0.00    +0.000 C 
ATOM     13  C   UNL     1      -3.375  12.979  20.306  0.00  0.00    +0.000 C 
ENDBRANCH   1  13
BRANCH   7  14
ATOM     14  C   UNL     1       1.910   9.690  18.212  0.00  0.00    +0.000 C 
BRANCH  14  15
ATOM     15  N   UNL     1       2.029   8.402  18.865  0.00  0.00    +0.000 N 
ATOM     16  C   UNL     1       2.335   7.200  18.300  0.00  0.00    +0.000 A 
ATOM     17  C   UNL     1       2.049   6.295  19.299  0.00  0.00    +0.000 A 
ATOM     18  N   UNL     1       1.740   6.976  20.449  0.00  0.00    +0.000 NA
ATOM     19  N   UNL     1       1.770   8.276  20.180  0.00  0.00    +0.000 NA
BRANCH  17  20
ATOM     20  C   UNL     1       1.958   4.859  19.144  0.00  0.00    +0.000 A 
ATOM     21  C   UNL     1       2.386   4.217  17.973  0.00  0.00    +0.000 A 
ATOM     22  C   UNL     1       2.209   2.840  17.815  0.00  0.00    +0.000 A 
ATOM     23  C   UNL     1       1.604   2.093  18.823  0.00  0.00    +0.000 A 
ATOM     24  C   UNL     1       1.183   2.718  19.996  0.00  0.00    +0.000 A 
ATOM     25  C   UNL     1       1.364   4.093  20.157  0.00  0.00    +0.000 A 
ENDBRANCH  17  20
ENDBRANCH  14  15
ENDBRANCH   7  14
TORSDOF 4
ENDMDL
MODEL 6
REMARK VINA RESULT:      -8.0      3.331      8.265
REMARK  Name = 
REMARK  5 active torsions:
REMARK  status: ('A' for Active; 'I' for Inactive)
REMARK    1  A    between atoms: C_1  and  C_2
REMARK    2  A    between atoms: C_2  and  C_3
REMARK    3  A    between atoms: C_9  and  C_10
REMARK    4  A    between atoms: C_10  and  N_11
REMARK    5  A    between atoms: C_13  and  C_14
REMARK                            x       y       z     vdW  Elec       q    Type
REMARK                         _______ _______ _______ _____ _____    ______ ____
ROOT
ATOM      1  C   UNL     1       2.211   3.850  18.468  0.00  0.00    +0.000 A 
ATOM      2  C   UNL     1       2.012   2.665  19.192  0.00  0.00    +0.000 A 
ATOM      3  C   UNL     1       1.658   2.712  20.538  0.00  0.00    +0.000 A 
ATOM      4  C   UNL     1       1.484   3.948  21.163  0.00  0.00    +0.000 A 
ATOM      5  C   UNL     1       1.703   5.138  20.451  0.00  0.00    +0.000 A 
ATOM      6  C   UNL     1       1.537   6.403  21.049  0.00  0.00    +0.000 A 
ATOM      7  C   UNL     1       1.801   7.575  20.327  0.00  0.00    +0.000 A 
ATOM      8  C   UNL     1       2.269   7.404  19.037  0.00  0.00    +0.000 A 
ATOM      9 CL   UNL     1       2.790   8.701  18.035  0.00  0.00    +0.000 Cl
ATOM     10  N   UNL     1       2.390   6.217  18.418  0.00  0.00    +0.000 NA
ATOM     11  C   UNL     1       2.102   5.096  19.101  0.00  0.00    +0.000 A 
ENDROOT
BRANCH   1  13
ATOM     12  C   UNL     1       4.068   3.605  16.787  0.00  0.00    +0.000 C 
ATOM     13  C   UNL     1       2.574   3.780  16.999  0.00  0.00    +0.000 C 
ENDBRANCH   1  13
BRANCH   7  14
ATOM     14  C   UNL     1       1.587   8.924  20.962  0.00  0.00    +0.000 C 
BRANCH  14  15
ATOM     15  N   UNL     1       0.702   9.758  20.174  0.00  0.00    +0.000 N 
ATOM     16  C   UNL     1      -0.546   9.458  19.716  0.00  0.00    +0.000 A 
ATOM     17  C   UNL     1      -0.811  10.470  18.821  0.00  0.00    +0.000 A 
ATOM     18  N   UNL     1       0.193  11.404  18.887  0.00  0.00    +0.000 NA
ATOM     19  N   UNL     1       1.100  10.973  19.755  0.00  0.00    +0.000 NA
BRANCH  17  20
ATOM     20  C   UNL     1      -1.898  10.497  17.865  0.00  0.00    +0.000 A 
ATOM     21  C   UNL     1      -1.890   9.689  16.719  0.00  0.00    +0.000 A 
ATOM     22  C   UNL     1      -2.910   9.796  15.770  0.00  0.00    +0.000 A 
ATOM     23  C   UNL     1      -3.944  10.710  15.956  0.00  0.00    +0.000 A 
ATOM     24  C   UNL     1      -3.968  11.512  17.096  0.00  0.00    +0.000 A 
ATOM     25  C   UNL     1      -2.953  11.402  18.047  0.00  0.00    +0.000 A 
ENDBRANCH  17  20
ENDBRANCH  14  15
ENDBRANCH   7  14
TORSDOF 4
ENDMDL
MODEL 7
REMARK VINA RESULT:      -7.9      3.981      8.232
REMARK  Name = 
REMARK  5 active torsions:
REMARK  status: ('A' for Active; 'I' for Inactive)
REMARK    1  A    between atoms: C_1  and  C_2
REMARK    2  A    between atoms: C_2  and  C_3
REMARK    3  A    between atoms: C_9  and  C_10
REMARK    4  A    between atoms: C_10  and  N_11
REMARK    5  A    between atoms: C_13  and  C_14
REMARK                            x       y       z     vdW  Elec       q    Type
REMARK                         _______ _______ _______ _____ _____    ______ ____
ROOT
ATOM      1  C   UNL     1       1.929   3.738  20.011  0.00  0.00    +0.000 A 
ATOM      2  C   UNL     1       1.997   2.678  19.094  0.00  0.00    +0.000 A 
ATOM      3  C   UNL     1       2.186   2.930  17.738  0.00  0.00    +0.000 A 
ATOM      4  C   UNL     1       2.324   4.246  17.293  0.00  0.00    +0.000 A 
ATOM      5  C   UNL     1       2.235   5.313  18.201  0.00  0.00    +0.000 A 
ATOM      6  C   UNL     1       2.369   6.653  17.789  0.00  0.00    +0.000 A 
ATOM      7  C   UNL     1       2.237   7.701  18.710  0.00  0.00    +0.000 A 
ATOM      8  C   UNL     1       1.924   7.337  20.006  0.00  0.00    +0.000 A 
ATOM      9 CL   UNL     1       1.574   8.468  21.254  0.00  0.00    +0.000 Cl
ATOM     10  N   UNL     1       1.839   6.069  20.446  0.00  0.00    +0.000 NA
ATOM     11  C   UNL     1       2.003   5.066  19.568  0.00  0.00    +0.000 A 
ENDROOT
BRANCH   1  13
ATOM     12  C   UNL     1       2.393   2.129  21.890  0.00  0.00    +0.000 C 
ATOM     13  C   UNL     1       1.747   3.443  21.485  0.00  0.00    +0.000 C 
ENDBRANCH   1  13
BRANCH   7  14
ATOM     14  C   UNL     1       2.417   9.130  18.268  0.00  0.00    +0.000 C 
BRANCH  14  15
ATOM     15  N   UNL     1       1.200   9.901  18.423  0.00  0.00    +0.000 N 
ATOM     16  C   UNL     1      -0.063   9.561  18.042  0.00  0.00    +0.000 A 
ATOM     17  C   UNL     1      -0.766  10.737  18.176  0.00  0.00    +0.000 A 
ATOM     18  N   UNL     1       0.039  11.679  18.766  0.00  0.00    +0.000 NA
ATOM     19  N   UNL     1       1.238  11.139  18.950  0.00  0.00    +0.000 NA
BRANCH  17  20
ATOM     20  C   UNL     1      -2.096  10.996  17.665  0.00  0.00    +0.000 A 
ATOM     21  C   UNL     1      -3.095  11.562  18.470  0.00  0.00    +0.000 A 
ATOM     22  C   UNL     1      -4.393  11.724  17.977  0.00  0.00    +0.000 A 
ATOM     23  C   UNL     1      -4.703  11.322  16.680  0.00  0.00    +0.000 A 
ATOM     24  C   UNL     1      -3.716  10.767  15.868  0.00  0.00    +0.000 A 
ATOM     25  C   UNL     1      -2.418  10.610  16.357  0.00  0.00    +0.000 A 
ENDBRANCH  17  20
ENDBRANCH  14  15
ENDBRANCH   7  14
TORSDOF 4
ENDMDL
MODEL 8
REMARK VINA RESULT:      -7.8      3.002      4.510
REMARK  Name = 
REMARK  5 active torsions:
REMARK  status: ('A' for Active; 'I' for Inactive)
REMARK    1  A    between atoms: C_1  and  C_2
REMARK    2  A    between atoms: C_2  and  C_3
REMARK    3  A    between atoms: C_9  and  C_10
REMARK    4  A    between atoms: C_10  and  N_11
REMARK    5  A    between atoms: C_13  and  C_14
REMARK                            x       y       z     vdW  Elec       q    Type
REMARK                         _______ _______ _______ _____ _____    ______ ____
ROOT
ATOM      1  C   UNL     1       2.083   3.105  19.594  0.00  0.00    +0.000 A 
ATOM      2  C   UNL     1       2.206   1.714  19.451  0.00  0.00    +0.000 A 
ATOM      3  C   UNL     1       3.120   1.176  18.549  0.00  0.00    +0.000 A 
ATOM      4  C   UNL     1       3.929   2.028  17.795  0.00  0.00    +0.000 A 
ATOM      5  C   UNL     1       3.797   3.421  17.917  0.00  0.00    +0.000 A 
ATOM      6  C   UNL     1       4.596   4.311  17.173  0.00  0.00    +0.000 A 
ATOM      7  C   UNL     1       4.416   5.696  17.284  0.00  0.00    +0.000 A 
ATOM      8  C   UNL     1       3.394   6.113  18.116  0.00  0.00    +0.000 A 
ATOM      9 CL   UNL     1       2.911   7.756  18.280  0.00  0.00    +0.000 Cl
ATOM     10  N   UNL     1       2.646   5.297  18.879  0.00  0.00    +0.000 NA
ATOM     11  C   UNL     1       2.845   3.971  18.798  0.00  0.00    +0.000 A 
ENDROOT
BRANCH   1  13
ATOM     12  C   UNL     1       1.168   2.951  21.933  0.00  0.00    +0.000 C 
ATOM     13  C   UNL     1       1.101   3.671  20.597  0.00  0.00    +0.000 C 
ENDBRANCH   1  13
BRANCH   7  14
ATOM     14  C   UNL     1       5.299   6.642  16.512  0.00  0.00    +0.000 C 
BRANCH  14  15
ATOM     15  N   UNL     1       5.978   5.977  15.419  0.00  0.00    +0.000 N 
ATOM     16  C   UNL     1       5.426   5.397  14.317  0.00  0.00    +0.000 A 
ATOM     17  C   UNL     1       6.475   4.697  13.764  0.00  0.00    +0.000 A 
ATOM     18  N   UNL     1       7.628   5.000  14.445  0.00  0.00    +0.000 NA
ATOM     19  N   UNL     1       7.315   5.822  15.439  0.00  0.00    +0.000 NA
BRANCH  17  20
ATOM     20  C   UNL     1       6.376   3.701  12.717  0.00  0.00    +0.000 A 
ATOM     21  C   UNL     1       5.137   3.187  12.308  0.00  0.00    +0.000 A 
ATOM     22  C   UNL     1       5.075   2.166  11.355  0.00  0.00    +0.000 A 
ATOM     23  C   UNL     1       6.247   1.650  10.806  0.00  0.00    +0.000 A 
ATOM     24  C   UNL     1       7.483   2.160  11.199  0.00  0.00    +0.000 A 
ATOM     25  C   UNL     1       7.546   3.184  12.145  0.00  0.00    +0.000 A 
ENDBRANCH  17  20
ENDBRANCH  14  15
ENDBRANCH   7  14
TORSDOF 4
ENDMDL
MODEL 9
REMARK VINA RESULT:      -7.8      3.773      8.344
REMARK  Name = 
REMARK  5 active torsions:
REMARK  status: ('A' for Active; 'I' for Inactive)
REMARK    1  A    between atoms: C_1  and  C_2
REMARK    2  A    between atoms: C_2  and  C_3
REMARK    3  A    between atoms: C_9  and  C_10
REMARK    4  A    between atoms: C_10  and  N_11
REMARK    5  A    between atoms: C_13  and  C_14
REMARK                            x       y       z     vdW  Elec       q    Type
REMARK                         _______ _______ _______ _____ _____    ______ ____
ROOT
ATOM      1  C   UNL     1       3.228   3.480  19.286  0.00  0.00    +0.000 A 
ATOM      2  C   UNL     1       2.595   2.948  20.420  0.00  0.00    +0.000 A 
ATOM      3  C   UNL     1       1.813   3.761  21.236  0.00  0.00    +0.000 A 
ATOM      4  C   UNL     1       1.645   5.108  20.912  0.00  0.00    +0.000 A 
ATOM      5  C   UNL     1       2.293   5.652  19.791  0.00  0.00    +0.000 A 
ATOM      6  C   UNL     1       2.147   7.007  19.433  0.00  0.00    +0.000 A 
ATOM      7  C   UNL     1       2.836   7.533  18.332  0.00  0.00    +0.000 A 
ATOM      8  C   UNL     1       3.683   6.663  17.671  0.00  0.00    +0.000 A 
ATOM      9 CL   UNL     1       4.728   7.143  16.391  0.00  0.00    +0.000 Cl
ATOM     10  N   UNL     1       3.809   5.355  17.951  0.00  0.00    +0.000 NA
ATOM     11  C   UNL     1       3.119   4.844  18.985  0.00  0.00    +0.000 A 
ENDROOT
BRANCH   1  13
ATOM     12  C   UNL     1       3.673   1.114  18.553  0.00  0.00    +0.000 C 
ATOM     13  C   UNL     1       4.056   2.576  18.397  0.00  0.00    +0.000 C 
ENDBRANCH   1  13
BRANCH   7  14
ATOM     14  C   UNL     1       2.647   8.974  17.934  0.00  0.00    +0.000 C 
BRANCH  14  15
ATOM     15  N   UNL     1       1.316   9.452  18.250  0.00  0.00    +0.000 N 
ATOM     16  C   UNL     1       0.162   9.240  17.556  0.00  0.00    +0.000 A 
ATOM     17  C   UNL     1      -0.724  10.122  18.132  0.00  0.00    +0.000 A 
ATOM     18  N   UNL     1      -0.134  10.704  19.225  0.00  0.00    +0.000 NA
ATOM     19  N   UNL     1       1.111  10.253  19.311  0.00  0.00    +0.000 NA
BRANCH  17  20
ATOM     20  C   UNL     1      -2.024  10.485  17.608  0.00  0.00    +0.000 A 
ATOM     21  C   UNL     1      -2.397  10.181  16.291  0.00  0.00    +0.000 A 
ATOM     22  C   UNL     1      -3.624  10.617  15.784  0.00  0.00    +0.000 A 
ATOM     23  C   UNL     1      -4.487  11.360  16.586  0.00  0.00    +0.000 A 
ATOM     24  C   UNL     1      -4.132  11.660  17.900  0.00  0.00    +0.000 A 
ATOM     25  C   UNL     1      -2.909  11.221  18.409  0.00  0.00    +0.000 A 
ENDBRANCH  17  20
ENDBRANCH  14  15
ENDBRANCH   7  14
TORSDOF 4
ENDMDL
