MODEL 1
REMARK VINA RESULT:      -9.4      0.000      0.000
REMARK  Name = 
REMARK  5 active torsions:
REMARK  status: ('A' for Active; 'I' for Inactive)
REMARK    1  A    between atoms: C_2  and  C_18
REMARK    2  A    between atoms: N_3  and  C_4
REMARK    3  A    between atoms: C_8  and  C_10
REMARK    4  A    between atoms: C_20  and  C_21
REMARK    5  A    between atoms: C_21  and  C_22
REMARK                            x       y       z     vdW  Elec       q    Type
REMARK                         _______ _______ _______ _____ _____    ______ ____
ROOT
ATOM      1  C   UNL     1       2.724   6.371  19.510  0.00  0.00    +0.000 A 
ATOM      2  C   UNL     1       2.695   7.476  18.657  0.00  0.00    +0.000 A 
ATOM      3  C   UNL     1       1.843   8.557  18.913  0.00  0.00    +0.000 A 
ATOM      4  C   UNL     1       1.048   8.534  20.069  0.00  0.00    +0.000 A 
ATOM      5  C   UNL     1       1.127   7.462  20.962  0.00  0.00    +0.000 A 
ATOM      6  C   UNL     1       1.962   6.387  20.676  0.00  0.00    +0.000 A 
ATOM      7  F   UNL     1       1.990   5.353  21.531  0.00  0.00    +0.000 F 
ENDROOT
BRANCH   1   9
ATOM      8  O   UNL     1       2.949   4.084  18.991  0.00  0.00    +0.000 OA
ATOM      9  C   UNL     1       3.489   5.181  19.063  0.00  0.00    +0.000 C 
ATOM     10  N   UNL     1       4.825   5.395  18.826  0.00  0.00    +0.000 N 
ATOM     11  H   UNL     1       5.146   6.355  18.789  0.00  0.00    +0.000 HD
BRANCH  10  12
ATOM     12  C   UNL     1       5.732   4.344  18.394  0.00  0.00    +0.000 C 
ATOM     13  C   UNL     1       7.052   4.936  17.898  0.00  0.00    +0.000 C 
ATOM     14  C   UNL     1       6.864   5.717  16.600  0.00  0.00    +0.000 C 
ATOM     15  N   UNL     1       6.218   4.892  15.578  0.00  0.00    +0.000 N 
ATOM     16  C   UNL     1       6.802   4.870  14.305  0.00  0.00    +0.000 C 
ATOM     17  O   UNL     1       7.850   5.466  14.057  0.00  0.00    +0.000 OA
ATOM     18  C   UNL     1       4.965   4.249  15.991  0.00  0.00    +0.000 C 
ATOM     19  C   UNL     1       5.096   3.489  17.304  0.00  0.00    +0.000 C 
BRANCH  16  20
ATOM     20  C   UNL     1       6.230   4.065  13.203  0.00  0.00    +0.000 A 
ATOM     21  C   UNL     1       4.900   4.104  12.787  0.00  0.00    +0.000 A 
ATOM     22  C   UNL     1       4.458   3.213  11.813  0.00  0.00    +0.000 A 
ATOM     23  C   UNL     1       5.385   2.373  11.218  0.00  0.00    +0.000 A 
ATOM     24  N   UNL     1       6.699   2.375  11.525  0.00  0.00    +0.000 NA
ATOM     25  C   UNL     1       7.092   3.224  12.507  0.00  0.00    +0.000 A 
ENDBRANCH  16  20
ENDBRANCH  10  12
ENDBRANCH   1   9
BRANCH   3  26
ATOM     26  C   UNL     1       1.713   9.677  17.903  0.00  0.00    +0.000 C 
BRANCH  26  27
ATOM     27  C   UNL     1       0.888  10.835  18.456  0.00  0.00    +0.000 A 
ATOM     28  N   UNL     1       1.531  11.711  19.173  0.00  0.00    +0.000 NA
ATOM     29  N   UNL     1       0.799  12.705  19.741  0.00  0.00    +0.000 N 
ATOM     30  C   UNL     1      -0.563  12.822  19.708  0.00  0.00    +0.000 A 
ATOM     31  O   UNL     1      -1.169  13.692  20.325  0.00  0.00    +0.000 OA
ATOM     32  C   UNL     1      -1.278  11.840  18.854  0.00  0.00    +0.000 A 
ATOM     33  C   UNL     1      -0.599  10.879  18.208  0.00  0.00    +0.000 A 
ATOM     34  N   UNL     1      -1.251   9.980  17.376  0.00  0.00    +0.000 N 
ATOM     35  C   UNL     1      -2.695   9.803  17.453  0.00  0.00    +0.000 C 
ATOM     36  C   UNL     1      -3.342  11.181  17.540  0.00  0.00    +0.000 C 
ATOM     37  C   UNL     1      -2.773  11.981  18.720  0.00  0.00    +0.000 C 
ATOM     38  H   UNL     1       1.300  13.369  20.323  0.00  0.00    +0.000 HD
ATOM     39  H   UNL     1      -0.731   9.191  17.016  0.00  0.00    +0.000 HD
ENDBRANCH  26  27
ENDBRANCH   3  26
TORSDOF 5
ENDMDL
MODEL 2
REMARK VINA RESULT:      -9.2      3.756     12.141
REMARK  Name = 
REMARK  5 active torsions:
REMARK  status: ('A' for Active; 'I' for Inactive)
REMARK    1  A    between atoms: C_2  and  C_18
REMARK    2  A    between atoms: N_3  and  C_4
REMARK    3  A    between atoms: C_8  and  C_10
REMARK    4  A    between atoms: C_20  and  C_21
REMARK    5  A    between atoms: C_21  and  C_22
REMARK                            x       y       z     vdW  Elec       q    Type
REMARK                         _______ _______ _______ _____ _____    ______ ____
ROOT
ATOM      1  C   UNL     1       0.828  10.091  20.032  0.00  0.00    +0.000 A 
ATOM      2  C   UNL     1       1.272   9.417  18.892  0.00  0.00    +0.000 A 
ATOM      3  C   UNL     1       1.847   8.145  18.989  0.00  0.00    +0.000 A 
ATOM      4  C   UNL     1       1.930   7.534  20.250  0.00  0.00    +0.000 A 
ATOM      5  C   UNL     1       1.422   8.175  21.383  0.00  0.00    +0.000 A 
ATOM      6  C   UNL     1       0.878   9.449  21.267  0.00  0.00    +0.000 A 
ATOM      7  F   UNL     1       0.433  10.059  22.378  0.00  0.00    +0.000 F 
ENDROOT
BRANCH   1   9
ATOM      8  O   UNL     1       1.146  12.297  19.268  0.00  0.00    +0.000 OA
ATOM      9  C   UNL     1       0.429  11.511  19.876  0.00  0.00    +0.000 C 
ATOM     10  N   UNL     1      -0.730  11.871  20.519  0.00  0.00    +0.000 N 
ATOM     11  H   UNL     1      -1.313  11.127  20.884  0.00  0.00    +0.000 HD
BRANCH  10  12
ATOM     12  C   UNL     1      -1.268  13.222  20.488  0.00  0.00    +0.000 C 
ATOM     13  C   UNL     1      -0.837  14.006  21.729  0.00  0.00    +0.000 C 
ATOM     14  C   UNL     1      -1.488  13.456  22.995  0.00  0.00    +0.000 C 
ATOM     15  N   UNL     1      -2.945  13.408  22.859  0.00  0.00    +0.000 N 
ATOM     16  C   UNL     1      -3.707  13.944  23.905  0.00  0.00    +0.000 C 
ATOM     17  O   UNL     1      -3.187  14.493  24.877  0.00  0.00    +0.000 OA
ATOM     18  C   UNL     1      -3.441  12.710  21.667  0.00  0.00    +0.000 C 
ATOM     19  C   UNL     1      -2.789  13.200  20.382  0.00  0.00    +0.000 C 
BRANCH  16  20
ATOM     20  C   UNL     1      -5.185  13.949  23.864  0.00  0.00    +0.000 A 
ATOM     21  C   UNL     1      -5.975  15.029  23.473  0.00  0.00    +0.000 A 
ATOM     22  C   UNL     1      -7.360  14.946  23.587  0.00  0.00    +0.000 A 
ATOM     23  C   UNL     1      -7.916  13.747  24.002  0.00  0.00    +0.000 A 
ATOM     24  N   UNL     1      -7.190  12.649  24.295  0.00  0.00    +0.000 NA
ATOM     25  C   UNL     1      -5.842  12.773  24.216  0.00  0.00    +0.000 A 
ENDBRANCH  16  20
ENDBRANCH  10  12
ENDBRANCH   1   9
BRANCH   3  26
ATOM     26  C   UNL     1       2.458   7.492  17.768  0.00  0.00    +0.000 C 
BRANCH  26  27
ATOM     27  C   UNL     1       3.179   6.197  18.128  0.00  0.00    +0.000 A 
ATOM     28  N   UNL     1       2.450   5.262  18.667  0.00  0.00    +0.000 NA
ATOM     29  N   UNL     1       3.089   4.132  19.069  0.00  0.00    +0.000 N 
ATOM     30  C   UNL     1       4.440   3.919  19.046  0.00  0.00    +0.000 A 
ATOM     31  O   UNL     1       4.961   2.912  19.515  0.00  0.00    +0.000 OA
ATOM     32  C   UNL     1       5.252   4.976  18.393  0.00  0.00    +0.000 A 
ATOM     33  C   UNL     1       4.666   6.083  17.909  0.00  0.00    +0.000 A 
ATOM     34  N   UNL     1       5.409   7.060  17.261  0.00  0.00    +0.000 N 
ATOM     35  C   UNL     1       6.859   7.111  17.400  0.00  0.00    +0.000 C 
ATOM     36  C   UNL     1       7.403   5.693  17.259  0.00  0.00    +0.000 C 
ATOM     37  C   UNL     1       6.737   4.747  18.269  0.00  0.00    +0.000 C 
ATOM     38  H   UNL     1       2.523   3.417  19.515  0.00  0.00    +0.000 HD
ATOM     39  H   UNL     1       4.959   7.936  17.034  0.00  0.00    +0.000 HD
ENDBRANCH  26  27
ENDBRANCH   3  26
TORSDOF 5
ENDMDL
MODEL 3
REMARK VINA RESULT:      -9.1      1.570      2.026
REMARK  Name = 
REMARK  5 active torsions:
REMARK  status: ('A' for Active; 'I' for Inactive)
REMARK    1  A    between atoms: C_2  and  C_18
REMARK    2  A    between atoms: N_3  and  C_4
REMARK    3  A    between atoms: C_8  and  C_10
REMARK    4  A    between atoms: C_20  and  C_21
REMARK    5  A    between atoms: C_21  and  C_22
REMARK                            x       y       z     vdW  Elec       q    Type
REMARK                         _______ _______ _______ _____ _____    ______ ____
ROOT
ATOM      1  C   UNL     1       1.847   7.364  19.530  0.00  0.00    +0.000 A 
ATOM      2  C   UNL     1       1.679   8.522  18.768  0.00  0.00    +0.000 A 
ATOM      3  C   UNL     1       1.223   9.709  19.357  0.00  0.00    +0.000 A 
ATOM      4  C   UNL     1       0.981   9.729  20.739  0.00  0.00    +0.000 A 
ATOM      5  C   UNL     1       1.216   8.592  21.517  0.00  0.00    +0.000 A 
ATOM      6  C   UNL     1       1.644   7.417  20.907  0.00  0.00    +0.000 A 
ATOM      7  F   UNL     1       1.825   6.328  21.672  0.00  0.00    +0.000 F 
ENDROOT
BRANCH   1   9
ATOM      8  O   UNL     1       1.450   5.779  17.833  0.00  0.00    +0.000 OA
ATOM      9  C   UNL     1       2.125   6.102  18.804  0.00  0.00    +0.000 C 
ATOM     10  N   UNL     1       3.113   5.316  19.344  0.00  0.00    +0.000 N 
ATOM     11  H   UNL     1       3.695   5.726  20.065  0.00  0.00    +0.000 HD
BRANCH  10  12
ATOM     12  C   UNL     1       3.512   4.039  18.775  0.00  0.00    +0.000 C 
ATOM     13  C   UNL     1       4.932   3.671  19.210  0.00  0.00    +0.000 C 
ATOM     14  C   UNL     1       5.968   4.607  18.594  0.00  0.00    +0.000 C 
ATOM     15  N   UNL     1       5.839   4.650  17.136  0.00  0.00    +0.000 N 
ATOM     16  C   UNL     1       7.007   4.489  16.381  0.00  0.00    +0.000 C 
ATOM     17  O   UNL     1       8.097   4.259  16.905  0.00  0.00    +0.000 OA
ATOM     18  C   UNL     1       4.492   4.953  16.636  0.00  0.00    +0.000 C 
ATOM     19  C   UNL     1       3.419   4.068  17.254  0.00  0.00    +0.000 C 
BRANCH  16  20
ATOM     20  C   UNL     1       6.983   4.513  14.902  0.00  0.00    +0.000 A 
ATOM     21  C   UNL     1       6.191   3.694  14.098  0.00  0.00    +0.000 A 
ATOM     22  C   UNL     1       6.344   3.733  12.714  0.00  0.00    +0.000 A 
ATOM     23  C   UNL     1       7.221   4.660  12.174  0.00  0.00    +0.000 A 
ATOM     24  N   UNL     1       7.932   5.535  12.915  0.00  0.00    +0.000 NA
ATOM     25  C   UNL     1       7.794   5.445  14.261  0.00  0.00    +0.000 A 
ENDBRANCH  16  20
ENDBRANCH  10  12
ENDBRANCH   1   9
BRANCH   3  26
ATOM     26  C   UNL     1       0.904  10.911  18.495  0.00  0.00    +0.000 C 
BRANCH  26  27
ATOM     27  C   UNL     1      -0.442  11.524  18.867  0.00  0.00    +0.000 A 
ATOM     28  N   UNL     1      -0.459  12.277  19.929  0.00  0.00    +0.000 NA
ATOM     29  N   UNL     1      -1.663  12.767  20.323  0.00  0.00    +0.000 N 
ATOM     30  C   UNL     1      -2.875  12.469  19.763  0.00  0.00    +0.000 A 
ATOM     31  O   UNL     1      -3.937  12.870  20.230  0.00  0.00    +0.000 OA
ATOM     32  C   UNL     1      -2.836  11.643  18.531  0.00  0.00    +0.000 A 
ATOM     33  C   UNL     1      -1.666  11.192  18.051  0.00  0.00    +0.000 A 
ATOM     34  N   UNL     1      -1.612  10.452  16.879  0.00  0.00    +0.000 N 
ATOM     35  C   UNL     1      -2.811   9.829  16.332  0.00  0.00    +0.000 C 
ATOM     36  C   UNL     1      -3.948  10.843  16.399  0.00  0.00    +0.000 C 
ATOM     37  C   UNL     1      -4.141  11.358  17.832  0.00  0.00    +0.000 C 
ATOM     38  H   UNL     1      -1.677  13.330  21.168  0.00  0.00    +0.000 HD
ATOM     39  H   UNL     1      -0.736  10.015  16.624  0.00  0.00    +0.000 HD
ENDBRANCH  26  27
ENDBRANCH   3  26
TORSDOF 5
ENDMDL
MODEL 4
REMARK VINA RESULT:      -9.1      3.701     12.049
REMARK  Name = 
REMARK  5 active torsions:
REMARK  status: ('A' for Active; 'I' for Inactive)
REMARK    1  A    between atoms: C_2  and  C_18
REMARK    2  A    between atoms: N_3  and  C_4
REMARK    3  A    between atoms: C_8  and  C_10
REMARK    4  A    between atoms: C_20  and  C_21
REMARK    5  A    between atoms: C_21  and  C_22
REMARK                            x       y       z     vdW  Elec       q    Type
REMARK                         _______ _______ _______ _____ _____    ______ ____
ROOT
ATOM      1  C   UNL     1       0.306   9.812  19.757  0.00  0.00    +0.000 A 
ATOM      2  C   UNL     1       1.168   9.365  18.753  0.00  0.00    +0.000 A 
ATOM      3  C   UNL     1       2.029   8.283  18.976  0.00  0.00    +0.000 A 
ATOM      4  C   UNL     1       1.980   7.623  20.213  0.00  0.00    +0.000 A 
ATOM      5  C   UNL     1       1.070   8.023  21.195  0.00  0.00    +0.000 A 
ATOM      6  C   UNL     1       0.241   9.115  20.962  0.00  0.00    +0.000 A 
ATOM      7  F   UNL     1      -0.598   9.502  21.936  0.00  0.00    +0.000 F 
ENDROOT
BRANCH   1   9
ATOM      8  O   UNL     1      -0.955  11.306  18.442  0.00  0.00    +0.000 OA
ATOM      9  C   UNL     1      -0.417  11.085  19.522  0.00  0.00    +0.000 C 
ATOM     10  N   UNL     1      -0.362  11.993  20.551  0.00  0.00    +0.000 N 
ATOM     11  H   UNL     1      -0.006  11.669  21.442  0.00  0.00    +0.000 HD
BRANCH  10  12
ATOM     12  C   UNL     1      -1.000  13.299  20.492  0.00  0.00    +0.000 C 
ATOM     13  C   UNL     1      -0.580  14.161  21.683  0.00  0.00    +0.000 C 
ATOM     14  C   UNL     1      -1.138  13.617  22.996  0.00  0.00    +0.000 C 
ATOM     15  N   UNL     1      -2.592  13.457  22.923  0.00  0.00    +0.000 N 
ATOM     16  C   UNL     1      -3.350  13.978  23.980  0.00  0.00    +0.000 C 
ATOM     17  O   UNL     1      -2.835  14.601  24.908  0.00  0.00    +0.000 OA
ATOM     18  C   UNL     1      -3.080  12.677  21.780  0.00  0.00    +0.000 C 
ATOM     19  C   UNL     1      -2.518  13.161  20.451  0.00  0.00    +0.000 C 
BRANCH  16  20
ATOM     20  C   UNL     1      -4.825  13.872  24.001  0.00  0.00    +0.000 A 
ATOM     21  C   UNL     1      -5.543  12.708  24.270  0.00  0.00    +0.000 A 
ATOM     22  C   UNL     1      -6.931  12.711  24.146  0.00  0.00    +0.000 A 
ATOM     23  C   UNL     1      -7.563  13.907  23.848  0.00  0.00    +0.000 A 
ATOM     24  N   UNL     1      -6.909  15.075  23.677  0.00  0.00    +0.000 NA
ATOM     25  C   UNL     1      -5.556  15.032  23.762  0.00  0.00    +0.000 A 
ENDBRANCH  16  20
ENDBRANCH  10  12
ENDBRANCH   1   9
BRANCH   3  26
ATOM     26  C   UNL     1       3.059   7.906  17.934  0.00  0.00    +0.000 C 
BRANCH  26  27
ATOM     27  C   UNL     1       3.073   6.401  17.681  0.00  0.00    +0.000 A 
ATOM     28  N   UNL     1       2.005   5.747  18.036  0.00  0.00    +0.000 NA
ATOM     29  N   UNL     1       2.029   4.396  17.894  0.00  0.00    +0.000 N 
ATOM     30  C   UNL     1       3.103   3.647  17.498  0.00  0.00    +0.000 A 
ATOM     31  O   UNL     1       3.087   2.421  17.485  0.00  0.00    +0.000 OA
ATOM     32  C   UNL     1       4.299   4.409  17.059  0.00  0.00    +0.000 A 
ATOM     33  C   UNL     1       4.306   5.751  17.107  0.00  0.00    +0.000 A 
ATOM     34  N   UNL     1       5.403   6.476  16.661  0.00  0.00    +0.000 N 
ATOM     35  C   UNL     1       6.698   5.834  16.479  0.00  0.00    +0.000 C 
ATOM     36  C   UNL     1       6.477   4.504  15.766  0.00  0.00    +0.000 C 
ATOM     37  C   UNL     1       5.478   3.629  16.536  0.00  0.00    +0.000 C 
ATOM     38  H   UNL     1       1.206   3.886  18.199  0.00  0.00    +0.000 HD
ATOM     39  H   UNL     1       5.427   7.471  16.839  0.00  0.00    +0.000 HD
ENDBRANCH  26  27
ENDBRANCH   3  26
TORSDOF 5
ENDMDL
MODEL 5
REMARK VINA RESULT:      -9.1      2.294     10.579
REMARK  Name = 
REMARK  5 active torsions:
REMARK  status: ('A' for Active; 'I' for Inactive)
REMARK    1  A    between atoms: C_2  and  C_18
REMARK    2  A    between atoms: N_3  and  C_4
REMARK    3  A    between atoms: C_8  and  C_10
REMARK    4  A    between atoms: C_20  and  C_21
REMARK    5  A    between atoms: C_21  and  C_22
REMARK                            x       y       z     vdW  Elec       q    Type
REMARK                         _______ _______ _______ _____ _____    ______ ____
ROOT
ATOM      1  C   UNL     1       2.105   6.771  18.990  0.00  0.00    +0.000 A 
ATOM      2  C   UNL     1       2.613   5.772  18.156  0.00  0.00    +0.000 A 
ATOM      3  C   UNL     1       2.904   4.497  18.659  0.00  0.00    +0.000 A 
ATOM      4  C   UNL     1       2.633   4.224  20.008  0.00  0.00    +0.000 A 
ATOM      5  C   UNL     1       2.058   5.198  20.828  0.00  0.00    +0.000 A 
ATOM      6  C   UNL     1       1.800   6.465  20.315  0.00  0.00    +0.000 A 
ATOM      7  F   UNL     1       1.283   7.395  21.134  0.00  0.00    +0.000 F 
ENDROOT
BRANCH   1   9
ATOM      8  O   UNL     1       2.870   8.553  17.654  0.00  0.00    +0.000 OA
ATOM      9  C   UNL     1       2.023   8.145  18.439  0.00  0.00    +0.000 C 
ATOM     10  N   UNL     1       1.000   8.917  18.933  0.00  0.00    +0.000 N 
ATOM     11  H   UNL     1       0.282   8.452  19.476  0.00  0.00    +0.000 HD
BRANCH  10  12
ATOM     12  C   UNL     1       0.773  10.292  18.518  0.00  0.00    +0.000 C 
ATOM     13  C   UNL     1       1.540  11.263  19.418  0.00  0.00    +0.000 C 
ATOM     14  C   UNL     1       0.973  11.283  20.835  0.00  0.00    +0.000 C 
ATOM     15  N   UNL     1      -0.463  11.569  20.824  0.00  0.00    +0.000 N 
ATOM     16  C   UNL     1      -0.929  12.556  21.700  0.00  0.00    +0.000 C 
ATOM     17  O   UNL     1      -0.167  13.210  22.413  0.00  0.00    +0.000 OA
ATOM     18  C   UNL     1      -1.266  10.707  19.948  0.00  0.00    +0.000 C 
ATOM     19  C   UNL     1      -0.715  10.626  18.531  0.00  0.00    +0.000 C 
BRANCH  16  20
ATOM     20  C   UNL     1      -2.361  12.923  21.764  0.00  0.00    +0.000 A 
ATOM     21  C   UNL     1      -3.005  13.801  20.894  0.00  0.00    +0.000 A 
ATOM     22  C   UNL     1      -4.332  14.153  21.128  0.00  0.00    +0.000 A 
ATOM     23  C   UNL     1      -5.001  13.540  22.175  0.00  0.00    +0.000 A 
ATOM     24  N   UNL     1      -4.441  12.613  22.978  0.00  0.00    +0.000 NA
ATOM     25  C   UNL     1      -3.135  12.321  22.752  0.00  0.00    +0.000 A 
ENDBRANCH  16  20
ENDBRANCH  10  12
ENDBRANCH   1   9
BRANCH   3  26
ATOM     26  C   UNL     1       3.592   3.474  17.782  0.00  0.00    +0.000 C 
BRANCH  26  27
ATOM     27  C   UNL     1       4.648   4.121  16.891  0.00  0.00    +0.000 A 
ATOM     28  N   UNL     1       4.526   3.917  15.611  0.00  0.00    +0.000 NA
ATOM     29  N   UNL     1       5.501   4.417  14.807  0.00  0.00    +0.000 N 
ATOM     30  C   UNL     1       6.647   5.037  15.222  0.00  0.00    +0.000 A 
ATOM     31  O   UNL     1       7.534   5.378  14.446  0.00  0.00    +0.000 OA
ATOM     32  C   UNL     1       6.752   5.298  16.679  0.00  0.00    +0.000 A 
ATOM     33  C   UNL     1       5.783   4.892  17.515  0.00  0.00    +0.000 A 
ATOM     34  N   UNL     1       5.851   5.165  18.874  0.00  0.00    +0.000 N 
ATOM     35  C   UNL     1       7.109   5.560  19.495  0.00  0.00    +0.000 C 
ATOM     36  C   UNL     1       7.781   6.595  18.599  0.00  0.00    +0.000 C 
ATOM     37  C   UNL     1       7.960   6.053  17.174  0.00  0.00    +0.000 C 
ATOM     38  H   UNL     1       5.418   4.230  13.812  0.00  0.00    +0.000 HD
ATOM     39  H   UNL     1       5.177   4.728  19.488  0.00  0.00    +0.000 HD
ENDBRANCH  26  27
ENDBRANCH   3  26
TORSDOF 5
ENDMDL
MODEL 6
REMARK VINA RESULT:      -9.0      7.754     12.193
REMARK  Name = 
REMARK  5 active torsions:
REMARK  status: ('A' for Active; 'I' for Inactive)
REMARK    1  A    between atoms: C_2  and  C_18
REMARK    2  A    between atoms: N_3  and  C_4
REMARK    3  A    between atoms: C_8  and  C_10
REMARK    4  A    between atoms: C_20  and  C_21
REMARK    5  A    between atoms: C_21  and  C_22
REMARK                            x       y       z     vdW  Elec       q    Type
REMARK                         _______ _______ _______ _____ _____    ______ ____
ROOT
ATOM      1  C   UNL     1      -2.206  10.718  18.444  0.00  0.00    +0.000 A 
ATOM      2  C   UNL     1      -3.512  11.200  18.557  0.00  0.00    +0.000 A 
ATOM      3  C   UNL     1      -4.357  11.252  17.441  0.00  0.00    +0.000 A 
ATOM      4  C   UNL     1      -3.885  10.767  16.212  0.00  0.00    +0.000 A 
ATOM      5  C   UNL     1      -2.604  10.218  16.111  0.00  0.00    +0.000 A 
ATOM      6  C   UNL     1      -1.773  10.200  17.226  0.00  0.00    +0.000 A 
ATOM      7  F   UNL     1      -0.533   9.702  17.093  0.00  0.00    +0.000 F 
ENDROOT
BRANCH   1   9
ATOM      8  O   UNL     1      -0.467  10.042  19.883  0.00  0.00    +0.000 OA
ATOM      9  C   UNL     1      -1.310  10.891  19.612  0.00  0.00    +0.000 C 
ATOM     10  N   UNL     1      -1.553  12.002  20.382  0.00  0.00    +0.000 N 
ATOM     11  H   UNL     1      -2.180  12.703  20.007  0.00  0.00    +0.000 HD
BRANCH  10  12
ATOM     12  C   UNL     1      -0.784  12.327  21.573  0.00  0.00    +0.000 C 
ATOM     13  C   UNL     1      -1.324  11.575  22.790  0.00  0.00    +0.000 C 
ATOM     14  C   UNL     1      -2.711  12.073  23.188  0.00  0.00    +0.000 C 
ATOM     15  N   UNL     1      -2.709  13.522  23.399  0.00  0.00    +0.000 N 
ATOM     16  C   UNL     1      -3.299  14.002  24.575  0.00  0.00    +0.000 C 
ATOM     17  O   UNL     1      -3.751  13.245  25.435  0.00  0.00    +0.000 OA
ATOM     18  C   UNL     1      -2.162  14.315  22.292  0.00  0.00    +0.000 C 
ATOM     19  C   UNL     1      -0.794  13.829  21.835  0.00  0.00    +0.000 C 
BRANCH  16  20
ATOM     20  C   UNL     1      -3.346  15.448  24.884  0.00  0.00    +0.000 A 
ATOM     21  C   UNL     1      -4.455  16.272  24.705  0.00  0.00    +0.000 A 
ATOM     22  C   UNL     1      -4.338  17.642  24.926  0.00  0.00    +0.000 A 
ATOM     23  C   UNL     1      -3.136  18.130  25.412  0.00  0.00    +0.000 A 
ATOM     24  N   UNL     1      -2.071  17.350  25.691  0.00  0.00    +0.000 NA
ATOM     25  C   UNL     1      -2.202  16.027  25.425  0.00  0.00    +0.000 A 
ENDBRANCH  16  20
ENDBRANCH  10  12
ENDBRANCH   1   9
BRANCH   3  26
ATOM     26  C   UNL     1      -5.714  11.913  17.546  0.00  0.00    +0.000 C 
BRANCH  26  27
ATOM     27  C   UNL     1      -6.206  11.954  18.990  0.00  0.00    +0.000 A 
ATOM     28  N   UNL     1      -6.691  10.844  19.465  0.00  0.00    +0.000 NA
ATOM     29  N   UNL     1      -7.209  10.881  20.721  0.00  0.00    +0.000 N 
ATOM     30  C   UNL     1      -7.351  11.996  21.501  0.00  0.00    +0.000 A 
ATOM     31  O   UNL     1      -7.917  11.975  22.589  0.00  0.00    +0.000 OA
ATOM     32  C   UNL     1      -6.757  13.245  20.962  0.00  0.00    +0.000 A 
ATOM     33  C   UNL     1      -6.166  13.252  19.756  0.00  0.00    +0.000 A 
ATOM     34  N   UNL     1      -5.572  14.403  19.259  0.00  0.00    +0.000 N 
ATOM     35  C   UNL     1      -5.877  15.708  19.830  0.00  0.00    +0.000 C 
ATOM     36  C   UNL     1      -5.856  15.581  21.350  0.00  0.00    +0.000 C 
ATOM     37  C   UNL     1      -6.816  14.481  21.822  0.00  0.00    +0.000 C 
ATOM     38  H   UNL     1      -7.613  10.021  21.078  0.00  0.00    +0.000 HD
ATOM     39  H   UNL     1      -5.260  14.408  18.297  0.00  0.00    +0.000 HD
ENDBRANCH  26  27
ENDBRANCH   3  26
TORSDOF 5
ENDMDL
MODEL 7
REMARK VINA RESULT:      -9.0      5.309      8.513
REMARK  Name = 
REMARK  5 active torsions:
REMARK  status: ('A' for Active; 'I' for Inactive)
REMARK    1  A    between atoms: C_2  and  C_18
REMARK    2  A    between atoms: N_3  and  C_4
REMARK    3  A    between atoms: C_8  and  C_10
REMARK    4  A    between atoms: C_20  and  C_21
REMARK    5  A    between atoms: C_21  and  C_22
REMARK                            x       y       z     vdW  Elec       q    Type
REMARK                         _______ _______ _______ _____ _____    ______ ____
ROOT
ATOM      1  C   UNL     1       2.551  13.647  19.660  0.00  0.00    +0.000 A 
ATOM      2  C   UNL     1       3.623  14.097  18.886  0.00  0.00    +0.000 A 
ATOM      3  C   UNL     1       4.488  15.089  19.365  0.00  0.00    +0.000 A 
ATOM      4  C   UNL     1       4.287  15.594  20.659  0.00  0.00    +0.000 A 
ATOM      5  C   UNL     1       3.259  15.096  21.463  0.00  0.00    +0.000 A 
ATOM      6  C   UNL     1       2.397  14.129  20.958  0.00  0.00    +0.000 A 
ATOM      7  F   UNL     1       1.393  13.695  21.738  0.00  0.00    +0.000 F 
ENDROOT
BRANCH   1   9
ATOM      8  O   UNL     1       0.750  13.207  18.207  0.00  0.00    +0.000 OA
ATOM      9  C   UNL     1       1.562  12.756  19.007  0.00  0.00    +0.000 C 
ATOM     10  N   UNL     1       1.581  11.448  19.425  0.00  0.00    +0.000 N 
ATOM     11  H   UNL     1       2.367  11.149  19.990  0.00  0.00    +0.000 HD
BRANCH  10  12
ATOM     12  C   UNL     1       0.676  10.435  18.905  0.00  0.00    +0.000 C 
ATOM     13  C   UNL     1       0.101   9.587  20.041  0.00  0.00    +0.000 C 
ATOM     14  C   UNL     1       1.175   8.719  20.692  0.00  0.00    +0.000 C 
ATOM     15  N   UNL     1       1.865   7.899  19.695  0.00  0.00    +0.000 N 
ATOM     16  C   UNL     1       2.014   6.535  19.974  0.00  0.00    +0.000 C 
ATOM     17  O   UNL     1       1.534   6.019  20.984  0.00  0.00    +0.000 OA
ATOM     18  C   UNL     1       2.408   8.635  18.546  0.00  0.00    +0.000 C 
ATOM     19  C   UNL     1       1.381   9.545  17.888  0.00  0.00    +0.000 C 
BRANCH  16  20
ATOM     20  C   UNL     1       2.692   5.620  19.031  0.00  0.00    +0.000 A 
ATOM     21  C   UNL     1       2.062   4.895  18.021  0.00  0.00    +0.000 A 
ATOM     22  C   UNL     1       2.795   3.978  17.271  0.00  0.00    +0.000 A 
ATOM     23  C   UNL     1       4.158   3.885  17.494  0.00  0.00    +0.000 A 
ATOM     24  N   UNL     1       4.821   4.640  18.395  0.00  0.00    +0.000 NA
ATOM     25  C   UNL     1       4.074   5.493  19.140  0.00  0.00    +0.000 A 
ENDBRANCH  16  20
ENDBRANCH  10  12
ENDBRANCH   1   9
BRANCH   3  26
ATOM     26  C   UNL     1       5.552  15.671  18.460  0.00  0.00    +0.000 C 
BRANCH  26  27
ATOM     27  C   UNL     1       6.757  14.742  18.345  0.00  0.00    +0.000 A 
ATOM     28  N   UNL     1       6.781  13.955  17.309  0.00  0.00    +0.000 NA
ATOM     29  N   UNL     1       7.805  13.065  17.230  0.00  0.00    +0.000 N 
ATOM     30  C   UNL     1       8.763  12.853  18.184  0.00  0.00    +0.000 A 
ATOM     31  O   UNL     1       9.603  11.964  18.093  0.00  0.00    +0.000 OA
ATOM     32  C   UNL     1       8.745  13.784  19.339  0.00  0.00    +0.000 A 
ATOM     33  C   UNL     1       7.801  14.734  19.434  0.00  0.00    +0.000 A 
ATOM     34  N   UNL     1       7.797  15.635  20.488  0.00  0.00    +0.000 N 
ATOM     35  C   UNL     1       8.563  15.372  21.699  0.00  0.00    +0.000 C 
ATOM     36  C   UNL     1       9.944  14.868  21.291  0.00  0.00    +0.000 C 
ATOM     37  C   UNL     1       9.832  13.642  20.374  0.00  0.00    +0.000 C 
ATOM     38  H   UNL     1       7.805  12.433  16.436  0.00  0.00    +0.000 HD
ATOM     39  H   UNL     1       6.997  16.245  20.600  0.00  0.00    +0.000 HD
ENDBRANCH  26  27
ENDBRANCH   3  26
TORSDOF 5
ENDMDL
MODEL 8
REMARK VINA RESULT:      -8.9      0.837      1.939
REMARK  Name = 
REMARK  5 active torsions:
REMARK  status: ('A' for Active; 'I' for Inactive)
REMARK    1  A    between atoms: C_2  and  C_18
REMARK    2  A    between atoms: N_3  and  C_4
REMARK    3  A    between atoms: C_8  and  C_10
REMARK    4  A    between atoms: C_20  and  C_21
REMARK    5  A    between atoms: C_21  and  C_22
REMARK                            x       y       z     vdW  Elec       q    Type
REMARK                         _______ _______ _______ _____ _____    ______ ____
ROOT
ATOM      1  C   UNL     1       2.898   6.173  19.571  0.00  0.00    +0.000 A 
ATOM      2  C   UNL     1       2.830   7.271  18.710  0.00  0.00    +0.000 A 
ATOM      3  C   UNL     1       1.934   8.319  18.953  0.00  0.00    +0.000 A 
ATOM      4  C   UNL     1       1.133   8.271  20.105  0.00  0.00    +0.000 A 
ATOM      5  C   UNL     1       1.249   7.209  21.006  0.00  0.00    +0.000 A 
ATOM      6  C   UNL     1       2.128   6.166  20.731  0.00  0.00    +0.000 A 
ATOM      7  F   UNL     1       2.192   5.139  21.594  0.00  0.00    +0.000 F 
ENDROOT
BRANCH   1   9
ATOM      8  O   UNL     1       3.279   3.871  19.246  0.00  0.00    +0.000 OA
ATOM      9  C   UNL     1       3.712   5.012  19.136  0.00  0.00    +0.000 C 
ATOM     10  N   UNL     1       4.978   5.313  18.694  0.00  0.00    +0.000 N 
ATOM     11  H   UNL     1       5.194   6.287  18.522  0.00  0.00    +0.000 HD
BRANCH  10  12
ATOM     12  C   UNL     1       5.921   4.303  18.242  0.00  0.00    +0.000 C 
ATOM     13  C   UNL     1       7.191   4.954  17.693  0.00  0.00    +0.000 C 
ATOM     14  C   UNL     1       6.919   5.709  16.394  0.00  0.00    +0.000 C 
ATOM     15  N   UNL     1       6.280   4.839  15.404  0.00  0.00    +0.000 N 
ATOM     16  C   UNL     1       6.819   4.831  14.112  0.00  0.00    +0.000 C 
ATOM     17  O   UNL     1       7.827   5.476  13.820  0.00  0.00    +0.000 OA
ATOM     18  C   UNL     1       5.076   4.140  15.869  0.00  0.00    +0.000 C 
ATOM     19  C   UNL     1       5.290   3.404  17.184  0.00  0.00    +0.000 C 
BRANCH  16  20
ATOM     20  C   UNL     1       6.250   3.986  13.040  0.00  0.00    +0.000 A 
ATOM     21  C   UNL     1       4.928   4.027  12.601  0.00  0.00    +0.000 A 
ATOM     22  C   UNL     1       4.485   3.099  11.662  0.00  0.00    +0.000 A 
ATOM     23  C   UNL     1       5.406   2.217  11.122  0.00  0.00    +0.000 A 
ATOM     24  N   UNL     1       6.715   2.211  11.450  0.00  0.00    +0.000 NA
ATOM     25  C   UNL     1       7.108   3.098  12.397  0.00  0.00    +0.000 A 
ENDBRANCH  16  20
ENDBRANCH  10  12
ENDBRANCH   1   9
BRANCH   3  26
ATOM     26  C   UNL     1       1.766   9.426  17.936  0.00  0.00    +0.000 C 
BRANCH  26  27
ATOM     27  C   UNL     1       0.412  10.115  18.078  0.00  0.00    +0.000 A 
ATOM     28  N   UNL     1      -0.591   9.544  17.476  0.00  0.00    +0.000 NA
ATOM     29  N   UNL     1      -1.789  10.185  17.523  0.00  0.00    +0.000 N 
ATOM     30  C   UNL     1      -2.021  11.419  18.065  0.00  0.00    +0.000 A 
ATOM     31  O   UNL     1      -3.107  11.983  17.988  0.00  0.00    +0.000 OA
ATOM     32  C   UNL     1      -0.878  12.038  18.782  0.00  0.00    +0.000 A 
ATOM     33  C   UNL     1       0.311  11.417  18.833  0.00  0.00    +0.000 A 
ATOM     34  N   UNL     1       1.375  11.966  19.533  0.00  0.00    +0.000 N 
ATOM     35  C   UNL     1       1.371  13.372  19.917  0.00  0.00    +0.000 C 
ATOM     36  C   UNL     1      -0.007  13.710  20.477  0.00  0.00    +0.000 C 
ATOM     37  C   UNL     1      -1.110  13.361  19.467  0.00  0.00    +0.000 C 
ATOM     38  H   UNL     1      -2.562   9.751  17.029  0.00  0.00    +0.000 HD
ATOM     39  H   UNL     1       2.288  11.542  19.435  0.00  0.00    +0.000 HD
ENDBRANCH  26  27
ENDBRANCH   3  26
TORSDOF 5
ENDMDL
MODEL 9
REMARK VINA RESULT:      -8.9      5.383      8.385
REMARK  Name = 
REMARK  5 active torsions:
REMARK  status: ('A' for Active; 'I' for Inactive)
REMARK    1  A    between atoms: C_2  and  C_18
REMARK    2  A    between atoms: N_3  and  C_4
REMARK    3  A    between atoms: C_8  and  C_10
REMARK    4  A    between atoms: C_20  and  C_21
REMARK    5  A    between atoms: C_21  and  C_22
REMARK                            x       y       z     vdW  Elec       q    Type
REMARK                         _______ _______ _______ _____ _____    ______ ____
ROOT
ATOM      1  C   UNL     1       2.250  13.513  19.680  0.00  0.00    +0.000 A 
ATOM      2  C   UNL     1       2.801  13.819  20.926  0.00  0.00    +0.000 A 
ATOM      3  C   UNL     1       3.973  14.579  21.026  0.00  0.00    +0.000 A 
ATOM      4  C   UNL     1       4.562  15.071  19.851  0.00  0.00    +0.000 A 
ATOM      5  C   UNL     1       3.974  14.828  18.607  0.00  0.00    +0.000 A 
ATOM      6  C   UNL     1       2.824  14.049  18.529  0.00  0.00    +0.000 A 
ATOM      7  F   UNL     1       2.301  13.798  17.318  0.00  0.00    +0.000 F 
ENDROOT
BRANCH   1   9
ATOM      8  O   UNL     1       0.081  12.768  20.222  0.00  0.00    +0.000 OA
ATOM      9  C   UNL     1       1.137  12.533  19.645  0.00  0.00    +0.000 C 
ATOM     10  N   UNL     1       1.414  11.350  19.005  0.00  0.00    +0.000 N 
ATOM     11  H   UNL     1       2.264  11.304  18.454  0.00  0.00    +0.000 HD
BRANCH  10  12
ATOM     12  C   UNL     1       0.450  10.268  18.885  0.00  0.00    +0.000 C 
ATOM     13  C   UNL     1       0.289   9.535  20.217  0.00  0.00    +0.000 C 
ATOM     14  C   UNL     1       1.553   8.766  20.592  0.00  0.00    +0.000 C 
ATOM     15  N   UNL     1       1.955   7.858  19.515  0.00  0.00    +0.000 N 
ATOM     16  C   UNL     1       2.253   6.536  19.866  0.00  0.00    +0.000 C 
ATOM     17  O   UNL     1       2.127   6.121  21.019  0.00  0.00    +0.000 OA
ATOM     18  C   UNL     1       2.089   8.478  18.191  0.00  0.00    +0.000 C 
ATOM     19  C   UNL     1       0.865   9.289  17.792  0.00  0.00    +0.000 C 
BRANCH  16  20
ATOM     20  C   UNL     1       2.665   5.539  18.853  0.00  0.00    +0.000 A 
ATOM     21  C   UNL     1       1.806   4.665  18.190  0.00  0.00    +0.000 A 
ATOM     22  C   UNL     1       2.332   3.694  17.341  0.00  0.00    +0.000 A 
ATOM     23  C   UNL     1       3.698   3.690  17.111  0.00  0.00    +0.000 A 
ATOM     24  N   UNL     1       4.550   4.582  17.659  0.00  0.00    +0.000 NA
ATOM     25  C   UNL     1       4.014   5.489  18.513  0.00  0.00    +0.000 A 
ENDBRANCH  16  20
ENDBRANCH  10  12
ENDBRANCH   1   9
BRANCH   3  26
ATOM     26  C   UNL     1       4.639  14.775  22.370  0.00  0.00    +0.000 C 
BRANCH  26  27
ATOM     27  C   UNL     1       5.684  13.697  22.638  0.00  0.00    +0.000 A 
ATOM     28  N   UNL     1       5.277  12.652  23.299  0.00  0.00    +0.000 NA
ATOM     29  N   UNL     1       6.211  11.718  23.618  0.00  0.00    +0.000 N 
ATOM     30  C   UNL     1       7.556  11.814  23.391  0.00  0.00    +0.000 A 
ATOM     31  O   UNL     1       8.358  10.976  23.793  0.00  0.00    +0.000 OA
ATOM     32  C   UNL     1       7.999  12.991  22.603  0.00  0.00    +0.000 A 
ATOM     33  C   UNL     1       7.109  13.910  22.195  0.00  0.00    +0.000 A 
ATOM     34  N   UNL     1       7.505  14.994  21.424  0.00  0.00    +0.000 N 
ATOM     35  C   UNL     1       8.908  15.378  21.338  0.00  0.00    +0.000 C 
ATOM     36  C   UNL     1       9.738  14.114  21.140  0.00  0.00    +0.000 C 
ATOM     37  C   UNL     1       9.462  13.097  22.257  0.00  0.00    +0.000 C 
ATOM     38  H   UNL     1       5.896  10.918  24.158  0.00  0.00    +0.000 HD
ATOM     39  H   UNL     1       6.836  15.734  21.253  0.00  0.00    +0.000 HD
ENDBRANCH  26  27
ENDBRANCH   3  26
TORSDOF 5
ENDMDL
