MODEL 1
REMARK VINA RESULT:      -7.7      0.000      0.000
REMARK  Name = 
REMARK  10 active torsions:
REMARK  status: ('A' for Active; 'I' for Inactive)
REMARK    1  A    between atoms: C_2  and  C_3
REMARK    2  A    between atoms: C_7  and  S_8
REMARK    3  A    between atoms: S_8  and  N_11
REMARK    4  A    between atoms: N_11  and  C_12
REMARK    5  A    between atoms: C_12  and  C_13
REMARK    6  A    between atoms: C_13  and  O_14
REMARK    7  A    between atoms: C_13  and  C_15
REMARK    8  A    between atoms: C_15  and  N_16
REMARK    9  A    between atoms: C_19  and  O_20
REMARK   10  A    between atoms: O_20  and  C_21
REMARK                            x       y       z     vdW  Elec       q    Type
REMARK                         _______ _______ _______ _____ _____    ______ ____
ROOT
ATOM      1  C   UNL     1       1.868   5.606  20.120  0.00  0.00    +0.000 C 
ENDROOT
BRANCH   1   2
ATOM      2  O   UNL     1       2.615   5.335  21.322  0.00  0.00    +0.000 OA
ATOM      3  H   UNL     1       2.174   5.782  22.064  0.00  0.00    +0.000 HD
ENDBRANCH   1   2
BRANCH   1   4
ATOM      4  C   UNL     1       1.484   4.268  19.466  0.00  0.00    +0.000 C 
BRANCH   4   5
ATOM      5  N   UNL     1       2.428   3.996  18.364  0.00  0.00    +0.000 NA
ATOM      6  H   UNL     1       1.984   3.834  17.458  0.00  0.00    +0.000 HD
BRANCH   5   7
ATOM      7  S   UNL     1       3.744   3.006  18.676  0.00  0.00    +0.000 S 
ATOM      8  O   UNL     1       3.714   1.906  17.738  0.00  0.00    +0.000 OA
ATOM      9  O   UNL     1       3.804   2.800  20.105  0.00  0.00    +0.000 OA
BRANCH   7  14
ATOM     10  C   UNL     1       6.634   4.976  16.621  0.00  0.00    +0.000 A 
ATOM     11  C   UNL     1       7.297   5.666  17.646  0.00  0.00    +0.000 A 
ATOM     12  C   UNL     1       6.870   5.546  18.970  0.00  0.00    +0.000 A 
ATOM     13  C   UNL     1       5.781   4.733  19.278  0.00  0.00    +0.000 A 
ATOM     14  C   UNL     1       5.115   4.054  18.252  0.00  0.00    +0.000 A 
ATOM     15  C   UNL     1       5.533   4.168  16.923  0.00  0.00    +0.000 A 
BRANCH  10  17
ATOM     16  N   UNL     1       7.466   5.199  14.172  0.00  0.00    +0.000 NA
ATOM     17  C   UNL     1       7.088   5.099  15.268  0.00  0.00    +0.000 C 
ENDBRANCH  10  17
ENDBRANCH   7  14
ENDBRANCH   5   7
ENDBRANCH   4   5
ENDBRANCH   1   4
BRANCH   1  18
ATOM     18  C   UNL     1       2.673   6.507  19.150  0.00  0.00    +0.000 C 
BRANCH  18  19
ATOM     19  N   UNL     1       2.336   7.941  19.226  0.00  0.00    +0.000 NA
ATOM     20  C   UNL     1       2.159   8.510  17.883  0.00  0.00    +0.000 C 
ATOM     21  C   UNL     1       1.881  10.002  17.965  0.00  0.00    +0.000 C 
ATOM     22  C   UNL     1       0.601  10.284  18.750  0.00  0.00    +0.000 C 
ATOM     23  C   UNL     1       0.750   9.642  20.136  0.00  0.00    +0.000 C 
ATOM     24  C   UNL     1       1.129   8.157  20.045  0.00  0.00    +0.000 C 
BRANCH  22  25
ATOM     25  O   UNL     1      -0.561   9.709  18.126  0.00  0.00    +0.000 OA
BRANCH  25  26
ATOM     26  C   UNL     1      -1.752  10.371  18.245  0.00  0.00    +0.000 A 
ATOM     27  C   UNL     1      -2.930  10.038  17.578  0.00  0.00    +0.000 A 
ATOM     28  C   UNL     1      -4.109  10.747  17.818  0.00  0.00    +0.000 A 
ATOM     29  C   UNL     1      -4.116  11.819  18.707  0.00  0.00    +0.000 A 
ATOM     30 CL   UNL     1      -5.604  12.664  18.929  0.00  0.00    +0.000 Cl
ATOM     31  C   UNL     1      -2.937  12.169  19.373  0.00  0.00    +0.000 A 
ATOM     32 CL   UNL     1      -2.866  13.495  20.482  0.00  0.00    +0.000 Cl
ATOM     33  C   UNL     1      -1.763  11.437  19.151  0.00  0.00    +0.000 A 
ENDBRANCH  25  26
ENDBRANCH  22  25
ENDBRANCH  18  19
ENDBRANCH   1  18
TORSDOF 10
ENDMDL
MODEL 2
REMARK VINA RESULT:      -7.6      1.355      1.788
REMARK  Name = 
REMARK  10 active torsions:
REMARK  status: ('A' for Active; 'I' for Inactive)
REMARK    1  A    between atoms: C_2  and  C_3
REMARK    2  A    between atoms: C_7  and  S_8
REMARK    3  A    between atoms: S_8  and  N_11
REMARK    4  A    between atoms: N_11  and  C_12
REMARK    5  A    between atoms: C_12  and  C_13
REMARK    6  A    between atoms: C_13  and  O_14
REMARK    7  A    between atoms: C_13  and  C_15
REMARK    8  A    between atoms: C_15  and  N_16
REMARK    9  A    between atoms: C_19  and  O_20
REMARK   10  A    between atoms: O_20  and  C_21
REMARK                            x       y       z     vdW  Elec       q    Type
REMARK                         _______ _______ _______ _____ _____    ______ ____
ROOT
ATOM      1  C   UNL     1       1.817   5.666  20.484  0.00  0.00    +0.000 C 
ENDROOT
BRANCH   1   2
ATOM      2  O   UNL     1       2.608   5.085  21.538  0.00  0.00    +0.000 OA
ATOM      3  H   UNL     1       2.183   4.258  21.821  0.00  0.00    +0.000 HD
ENDBRANCH   1   2
BRANCH   1   4
ATOM      4  C   UNL     1       1.061   4.540  19.758  0.00  0.00    +0.000 C 
BRANCH   4   5
ATOM      5  N   UNL     1       1.738   4.274  18.473  0.00  0.00    +0.000 NA
ATOM      6  H   UNL     1       1.147   4.400  17.649  0.00  0.00    +0.000 HD
BRANCH   5   7
ATOM      7  S   UNL     1       2.777   2.960  18.384  0.00  0.00    +0.000 S 
ATOM      8  O   UNL     1       2.273   2.055  17.375  0.00  0.00    +0.000 OA
ATOM      9  O   UNL     1       3.052   2.532  19.736  0.00  0.00    +0.000 OA
BRANCH   7  14
ATOM     10  C   UNL     1       6.412   4.742  18.139  0.00  0.00    +0.000 A 
ATOM     11  C   UNL     1       6.565   4.894  16.754  0.00  0.00    +0.000 A 
ATOM     12  C   UNL     1       5.570   4.453  15.879  0.00  0.00    +0.000 A 
ATOM     13  C   UNL     1       4.415   3.859  16.385  0.00  0.00    +0.000 A 
ATOM     14  C   UNL     1       4.269   3.699  17.767  0.00  0.00    +0.000 A 
ATOM     15  C   UNL     1       5.260   4.136  18.650  0.00  0.00    +0.000 A 
BRANCH  10  17
ATOM     16  N   UNL     1       8.260   5.589  19.754  0.00  0.00    +0.000 NA
ATOM     17  C   UNL     1       7.436   5.208  19.026  0.00  0.00    +0.000 C 
ENDBRANCH  10  17
ENDBRANCH   7  14
ENDBRANCH   5   7
ENDBRANCH   4   5
ENDBRANCH   1   4
BRANCH   1  18
ATOM     18  C   UNL     1       2.697   6.487  19.509  0.00  0.00    +0.000 C 
BRANCH  18  19
ATOM     19  N   UNL     1       2.304   7.903  19.376  0.00  0.00    +0.000 NA
ATOM     20  C   UNL     1       2.218   8.293  17.963  0.00  0.00    +0.000 C 
ATOM     21  C   UNL     1       1.883   9.770  17.833  0.00  0.00    +0.000 C 
ATOM     22  C   UNL     1       0.533  10.089  18.476  0.00  0.00    +0.000 C 
ATOM     23  C   UNL     1       0.591   9.631  19.940  0.00  0.00    +0.000 C 
ATOM     24  C   UNL     1       1.028   8.164  20.067  0.00  0.00    +0.000 C 
BRANCH  22  25
ATOM     25  O   UNL     1      -0.553   9.390  17.842  0.00  0.00    +0.000 OA
BRANCH  25  26
ATOM     26  C   UNL     1      -1.702  10.084  17.581  0.00  0.00    +0.000 A 
ATOM     27  C   UNL     1      -2.421  10.034  16.388  0.00  0.00    +0.000 A 
ATOM     28  C   UNL     1      -3.618  10.740  16.248  0.00  0.00    +0.000 A 
ATOM     29  C   UNL     1      -4.094  11.530  17.291  0.00  0.00    +0.000 A 
ATOM     30 CL   UNL     1      -5.564  12.395  17.032  0.00  0.00    +0.000 Cl
ATOM     31  C   UNL     1      -3.375  11.597  18.489  0.00  0.00    +0.000 A 
ATOM     32 CL   UNL     1      -3.898  12.565  19.823  0.00  0.00    +0.000 Cl
ATOM     33  C   UNL     1      -2.190  10.864  18.635  0.00  0.00    +0.000 A 
ENDBRANCH  25  26
ENDBRANCH  22  25
ENDBRANCH  18  19
ENDBRANCH   1  18
TORSDOF 10
ENDMDL
MODEL 3
REMARK VINA RESULT:      -7.5      2.691      3.540
REMARK  Name = 
REMARK  10 active torsions:
REMARK  status: ('A' for Active; 'I' for Inactive)
REMARK    1  A    between atoms: C_2  and  C_3
REMARK    2  A    between atoms: C_7  and  S_8
REMARK    3  A    between atoms: S_8  and  N_11
REMARK    4  A    between atoms: N_11  and  C_12
REMARK    5  A    between atoms: C_12  and  C_13
REMARK    6  A    between atoms: C_13  and  O_14
REMARK    7  A    between atoms: C_13  and  C_15
REMARK    8  A    between atoms: C_15  and  N_16
REMARK    9  A    between atoms: C_19  and  O_20
REMARK   10  A    between atoms: O_20  and  C_21
REMARK                            x       y       z     vdW  Elec       q    Type
REMARK                         _______ _______ _______ _____ _____    ______ ____
ROOT
ATOM      1  C   UNL     1       1.762   5.524  20.465  0.00  0.00    +0.000 C 
ENDROOT
BRANCH   1   2
ATOM      2  O   UNL     1       2.615   4.880  21.431  0.00  0.00    +0.000 OA
ATOM      3  H   UNL     1       2.457   5.287  22.300  0.00  0.00    +0.000 HD
ENDBRANCH   1   2
BRANCH   1   4
ATOM      4  C   UNL     1       1.511   4.549  19.302  0.00  0.00    +0.000 C 
BRANCH   4   5
ATOM      5  N   UNL     1       2.425   3.399  19.448  0.00  0.00    +0.000 NA
ATOM      6  H   UNL     1       3.035   3.445  20.266  0.00  0.00    +0.000 HD
BRANCH   5   7
ATOM      7  S   UNL     1       3.163   2.797  18.069  0.00  0.00    +0.000 S 
ATOM      8  O   UNL     1       2.307   3.080  16.938  0.00  0.00    +0.000 OA
ATOM      9  O   UNL     1       3.625   1.461  18.371  0.00  0.00    +0.000 OA
BRANCH   7  14
ATOM     10  C   UNL     1       6.358   4.830  16.617  0.00  0.00    +0.000 A 
ATOM     11  C   UNL     1       6.899   5.388  17.785  0.00  0.00    +0.000 A 
ATOM     12  C   UNL     1       6.296   5.159  19.023  0.00  0.00    +0.000 A 
ATOM     13  C   UNL     1       5.151   4.368  19.102  0.00  0.00    +0.000 A 
ATOM     14  C   UNL     1       4.608   3.820  17.935  0.00  0.00    +0.000 A 
ATOM     15  C   UNL     1       5.204   4.045  16.690  0.00  0.00    +0.000 A 
BRANCH  10  17
ATOM     16  N   UNL     1       7.499   5.259  14.325  0.00  0.00    +0.000 NA
ATOM     17  C   UNL     1       6.993   5.064  15.354  0.00  0.00    +0.000 C 
ENDBRANCH  10  17
ENDBRANCH   7  14
ENDBRANCH   5   7
ENDBRANCH   4   5
ENDBRANCH   1   4
BRANCH   1  18
ATOM     18  C   UNL     1       2.378   6.857  19.973  0.00  0.00    +0.000 C 
BRANCH  18  19
ATOM     19  N   UNL     1       1.391   7.870  19.557  0.00  0.00    +0.000 NA
ATOM     20  C   UNL     1       1.083   8.788  20.663  0.00  0.00    +0.000 C 
ATOM     21  C   UNL     1       0.014   9.786  20.251  0.00  0.00    +0.000 C 
ATOM     22  C   UNL     1       0.478  10.637  19.069  0.00  0.00    +0.000 C 
ATOM     23  C   UNL     1       0.858   9.686  17.927  0.00  0.00    +0.000 C 
ATOM     24  C   UNL     1       1.865   8.618  18.378  0.00  0.00    +0.000 C 
BRANCH  22  25
ATOM     25  O   UNL     1       1.639  11.426  19.387  0.00  0.00    +0.000 OA
BRANCH  25  26
ATOM     26  C   UNL     1       1.583  12.775  19.169  0.00  0.00    +0.000 A 
ATOM     27  C   UNL     1       0.536  13.611  19.555  0.00  0.00    +0.000 A 
ATOM     28  C   UNL     1       0.605  14.987  19.335  0.00  0.00    +0.000 A 
ATOM     29  C   UNL     1       1.712  15.542  18.696  0.00  0.00    +0.000 A 
ATOM     30 CL   UNL     1       1.712  17.247  18.433  0.00  0.00    +0.000 Cl
ATOM     31  C   UNL     1       2.763  14.712  18.293  0.00  0.00    +0.000 A 
ATOM     32 CL   UNL     1       4.162  15.326  17.485  0.00  0.00    +0.000 Cl
ATOM     33  C   UNL     1       2.702  13.334  18.542  0.00  0.00    +0.000 A 
ENDBRANCH  25  26
ENDBRANCH  22  25
ENDBRANCH  18  19
ENDBRANCH   1  18
TORSDOF 10
ENDMDL
MODEL 4
REMARK VINA RESULT:      -7.0      2.424      3.256
REMARK  Name = 
REMARK  10 active torsions:
REMARK  status: ('A' for Active; 'I' for Inactive)
REMARK    1  A    between atoms: C_2  and  C_3
REMARK    2  A    between atoms: C_7  and  S_8
REMARK    3  A    between atoms: S_8  and  N_11
REMARK    4  A    between atoms: N_11  and  C_12
REMARK    5  A    between atoms: C_12  and  C_13
REMARK    6  A    between atoms: C_13  and  O_14
REMARK    7  A    between atoms: C_13  and  C_15
REMARK    8  A    between atoms: C_15  and  N_16
REMARK    9  A    between atoms: C_19  and  O_20
REMARK   10  A    between atoms: O_20  and  C_21
REMARK                            x       y       z     vdW  Elec       q    Type
REMARK                         _______ _______ _______ _____ _____    ______ ____
ROOT
ATOM      1  C   UNL     1       1.683   6.486  20.155  0.00  0.00    +0.000 C 
ENDROOT
BRANCH   1   2
ATOM      2  O   UNL     1       1.524   5.273  20.914  0.00  0.00    +0.000 OA
ATOM      3  H   UNL     1       2.400   4.868  21.033  0.00  0.00    +0.000 HD
ENDBRANCH   1   2
BRANCH   1   4
ATOM      4  C   UNL     1       2.840   6.296  19.159  0.00  0.00    +0.000 C 
BRANCH   4   5
ATOM      5  N   UNL     1       2.497   5.186  18.248  0.00  0.00    +0.000 NA
ATOM      6  H   UNL     1       1.496   5.074  18.076  0.00  0.00    +0.000 HD
BRANCH   5   7
ATOM      7  S   UNL     1       3.336   3.743  18.408  0.00  0.00    +0.000 S 
ATOM      8  O   UNL     1       2.626   2.724  17.668  0.00  0.00    +0.000 OA
ATOM      9  O   UNL     1       3.673   3.589  19.805  0.00  0.00    +0.000 OA
BRANCH   7  14
ATOM     10  C   UNL     1       6.158   4.152  15.524  0.00  0.00    +0.000 A 
ATOM     11  C   UNL     1       7.263   4.598  16.264  0.00  0.00    +0.000 A 
ATOM     12  C   UNL     1       7.162   4.785  17.644  0.00  0.00    +0.000 A 
ATOM     13  C   UNL     1       5.957   4.525  18.293  0.00  0.00    +0.000 A 
ATOM     14  C   UNL     1       4.853   4.090  17.551  0.00  0.00    +0.000 A 
ATOM     15  C   UNL     1       4.944   3.900  16.169  0.00  0.00    +0.000 A 
BRANCH  10  17
ATOM     16  N   UNL     1       6.375   3.803  12.961  0.00  0.00    +0.000 NA
ATOM     17  C   UNL     1       6.279   3.954  14.110  0.00  0.00    +0.000 C 
ENDBRANCH  10  17
ENDBRANCH   7  14
ENDBRANCH   5   7
ENDBRANCH   4   5
ENDBRANCH   1   4
BRANCH   1  18
ATOM     18  C   UNL     1       1.923   7.702  21.084  0.00  0.00    +0.000 C 
BRANCH  18  19
ATOM     19  N   UNL     1       0.739   8.558  21.288  0.00  0.00    +0.000 NA
ATOM     20  C   UNL     1       0.834   9.290  22.558  0.00  0.00    +0.000 C 
ATOM     21  C   UNL     1      -0.420  10.117  22.797  0.00  0.00    +0.000 C 
ATOM     22  C   UNL     1      -0.619  11.150  21.689  0.00  0.00    +0.000 C 
ATOM     23  C   UNL     1      -0.661  10.402  20.350  0.00  0.00    +0.000 C 
ATOM     24  C   UNL     1       0.562   9.492  20.161  0.00  0.00    +0.000 C 
BRANCH  22  25
ATOM     25  O   UNL     1       0.461  12.099  21.626  0.00  0.00    +0.000 OA
BRANCH  25  26
ATOM     26  C   UNL     1       0.315  13.190  20.814  0.00  0.00    +0.000 A 
ATOM     27  C   UNL     1       1.177  13.545  19.778  0.00  0.00    +0.000 A 
ATOM     28  C   UNL     1       0.903  14.650  18.970  0.00  0.00    +0.000 A 
ATOM     29  C   UNL     1      -0.223  15.434  19.210  0.00  0.00    +0.000 A 
ATOM     30 CL   UNL     1      -0.479  16.800  18.188  0.00  0.00    +0.000 Cl
ATOM     31  C   UNL     1      -1.089  15.094  20.255  0.00  0.00    +0.000 A 
ATOM     32 CL   UNL     1      -2.499  16.025  20.620  0.00  0.00    +0.000 Cl
ATOM     33  C   UNL     1      -0.825  13.968  21.045  0.00  0.00    +0.000 A 
ENDBRANCH  25  26
ENDBRANCH  22  25
ENDBRANCH  18  19
ENDBRANCH   1  18
TORSDOF 10
ENDMDL
MODEL 5
REMARK VINA RESULT:      -6.9      2.984      4.096
REMARK  Name = 
REMARK  10 active torsions:
REMARK  status: ('A' for Active; 'I' for Inactive)
REMARK    1  A    between atoms: C_2  and  C_3
REMARK    2  A    between atoms: C_7  and  S_8
REMARK    3  A    between atoms: S_8  and  N_11
REMARK    4  A    between atoms: N_11  and  C_12
REMARK    5  A    between atoms: C_12  and  C_13
REMARK    6  A    between atoms: C_13  and  O_14
REMARK    7  A    between atoms: C_13  and  C_15
REMARK    8  A    between atoms: C_15  and  N_16
REMARK    9  A    between atoms: C_19  and  O_20
REMARK   10  A    between atoms: O_20  and  C_21
REMARK                            x       y       z     vdW  Elec       q    Type
REMARK                         _______ _______ _______ _____ _____    ______ ____
ROOT
ATOM      1  C   UNL     1       1.772   9.543  18.405  0.00  0.00    +0.000 C 
ENDROOT
BRANCH   1   2
ATOM      2  O   UNL     1       2.212  10.422  17.352  0.00  0.00    +0.000 OA
ATOM      3  H   UNL     1       1.496  10.499  16.698  0.00  0.00    +0.000 HD
ENDBRANCH   1   2
BRANCH   1   4
ATOM      4  C   UNL     1       1.768   8.101  17.872  0.00  0.00    +0.000 C 
BRANCH   4   5
ATOM      5  N   UNL     1       3.099   7.508  18.109  0.00  0.00    +0.000 NA
ATOM      6  H   UNL     1       3.823   7.822  17.459  0.00  0.00    +0.000 HD
BRANCH   5   7
ATOM      7  S   UNL     1       3.181   5.880  18.501  0.00  0.00    +0.000 S 
ATOM      8  O   UNL     1       2.139   5.188  17.776  0.00  0.00    +0.000 OA
ATOM      9  O   UNL     1       3.315   5.785  19.937  0.00  0.00    +0.000 OA
BRANCH   7  14
ATOM     10  C   UNL     1       6.071   4.594  15.963  0.00  0.00    +0.000 A 
ATOM     11  C   UNL     1       7.207   4.615  16.785  0.00  0.00    +0.000 A 
ATOM     12  C   UNL     1       7.109   5.026  18.116  0.00  0.00    +0.000 A 
ATOM     13  C   UNL     1       5.875   5.415  18.633  0.00  0.00    +0.000 A 
ATOM     14  C   UNL     1       4.745   5.402  17.808  0.00  0.00    +0.000 A 
ATOM     15  C   UNL     1       4.833   4.994  16.475  0.00  0.00    +0.000 A 
BRANCH  10  17
ATOM     16  N   UNL     1       6.280   3.799  13.500  0.00  0.00    +0.000 NA
ATOM     17  C   UNL     1       6.183   4.160  14.602  0.00  0.00    +0.000 C 
ENDBRANCH  10  17
ENDBRANCH   7  14
ENDBRANCH   5   7
ENDBRANCH   4   5
ENDBRANCH   1   4
BRANCH   1  18
ATOM     18  C   UNL     1       0.380   9.960  18.940  0.00  0.00    +0.000 C 
BRANCH  18  19
ATOM     19  N   UNL     1       0.398  10.569  20.283  0.00  0.00    +0.000 NA
ATOM     20  C   UNL     1      -0.220  11.902  20.263  0.00  0.00    +0.000 C 
ATOM     21  C   UNL     1      -0.136  12.554  21.634  0.00  0.00    +0.000 C 
ATOM     22  C   UNL     1      -0.873  11.725  22.686  0.00  0.00    +0.000 C 
ATOM     23  C   UNL     1      -0.274  10.312  22.675  0.00  0.00    +0.000 C 
ATOM     24  C   UNL     1      -0.272   9.699  21.267  0.00  0.00    +0.000 C 
BRANCH  22  25
ATOM     25  O   UNL     1      -2.278  11.606  22.402  0.00  0.00    +0.000 OA
BRANCH  25  26
ATOM     26  C   UNL     1      -3.110  12.604  22.831  0.00  0.00    +0.000 A 
ATOM     27  C   UNL     1      -2.894  13.410  23.948  0.00  0.00    +0.000 A 
ATOM     28  C   UNL     1      -3.779  14.441  24.264  0.00  0.00    +0.000 A 
ATOM     29  C   UNL     1      -4.911  14.660  23.483  0.00  0.00    +0.000 A 
ATOM     30 CL   UNL     1      -5.974  15.936  23.954  0.00  0.00    +0.000 Cl
ATOM     31  C   UNL     1      -5.145  13.851  22.366  0.00  0.00    +0.000 A 
ATOM     32 CL   UNL     1      -6.533  14.056  21.356  0.00  0.00    +0.000 Cl
ATOM     33  C   UNL     1      -4.238  12.835  22.036  0.00  0.00    +0.000 A 
ENDBRANCH  25  26
ENDBRANCH  22  25
ENDBRANCH  18  19
ENDBRANCH   1  18
TORSDOF 10
ENDMDL
MODEL 6
REMARK VINA RESULT:      -6.9      2.572      3.269
REMARK  Name = 
REMARK  10 active torsions:
REMARK  status: ('A' for Active; 'I' for Inactive)
REMARK    1  A    between atoms: C_2  and  C_3
REMARK    2  A    between atoms: C_7  and  S_8
REMARK    3  A    between atoms: S_8  and  N_11
REMARK    4  A    between atoms: N_11  and  C_12
REMARK    5  A    between atoms: C_12  and  C_13
REMARK    6  A    between atoms: C_13  and  O_14
REMARK    7  A    between atoms: C_13  and  C_15
REMARK    8  A    between atoms: C_15  and  N_16
REMARK    9  A    between atoms: C_19  and  O_20
REMARK   10  A    between atoms: O_20  and  C_21
REMARK                            x       y       z     vdW  Elec       q    Type
REMARK                         _______ _______ _______ _____ _____    ______ ____
ROOT
ATOM      1  C   UNL     1       2.082   7.484  20.180  0.00  0.00    +0.000 C 
ENDROOT
BRANCH   1   2
ATOM      2  O   UNL     1       2.083   7.660  18.751  0.00  0.00    +0.000 OA
ATOM      3  H   UNL     1       2.908   8.109  18.498  0.00  0.00    +0.000 HD
ENDBRANCH   1   2
BRANCH   1   4
ATOM      4  C   UNL     1       2.013   5.979  20.491  0.00  0.00    +0.000 C 
BRANCH   4   5
ATOM      5  N   UNL     1       3.246   5.340  19.993  0.00  0.00    +0.000 NA
ATOM      6  H   UNL     1       4.046   5.971  19.910  0.00  0.00    +0.000 HD
BRANCH   5   7
ATOM      7  S   UNL     1       3.112   4.227  18.746  0.00  0.00    +0.000 S 
ATOM      8  O   UNL     1       2.081   4.685  17.842  0.00  0.00    +0.000 OA
ATOM      9  O   UNL     1       3.087   2.910  19.340  0.00  0.00    +0.000 OA
BRANCH   7  14
ATOM     10  C   UNL     1       6.035   4.249  15.935  0.00  0.00    +0.000 A 
ATOM     11  C   UNL     1       7.160   4.605  16.693  0.00  0.00    +0.000 A 
ATOM     12  C   UNL     1       7.042   4.847  18.063  0.00  0.00    +0.000 A 
ATOM     13  C   UNL     1       5.801   4.733  18.684  0.00  0.00    +0.000 A 
ATOM     14  C   UNL     1       4.678   4.389  17.924  0.00  0.00    +0.000 A 
ATOM     15  C   UNL     1       4.785   4.144  16.552  0.00  0.00    +0.000 A 
BRANCH  10  17
ATOM     16  N   UNL     1       6.271   3.784  13.392  0.00  0.00    +0.000 NA
ATOM     17  C   UNL     1       6.171   3.992  14.532  0.00  0.00    +0.000 C 
ENDBRANCH  10  17
ENDBRANCH   7  14
ENDBRANCH   5   7
ENDBRANCH   4   5
ENDBRANCH   1   4
BRANCH   1  18
ATOM     18  C   UNL     1       0.915   8.260  20.841  0.00  0.00    +0.000 C 
BRANCH  18  19
ATOM     19  N   UNL     1       0.822   9.677  20.446  0.00  0.00    +0.000 NA
ATOM     20  C   UNL     1      -0.185   9.863  19.392  0.00  0.00    +0.000 C 
ATOM     21  C   UNL     1      -0.228  11.313  18.939  0.00  0.00    +0.000 C 
ATOM     22  C   UNL     1      -0.601  12.242  20.094  0.00  0.00    +0.000 C 
ATOM     23  C   UNL     1       0.411  12.014  21.225  0.00  0.00    +0.000 C 
ATOM     24  C   UNL     1       0.521  10.531  21.609  0.00  0.00    +0.000 C 
BRANCH  22  25
ATOM     25  O   UNL     1      -1.912  11.963  20.618  0.00  0.00    +0.000 OA
BRANCH  25  26
ATOM     26  C   UNL     1      -2.481  12.882  21.456  0.00  0.00    +0.000 A 
ATOM     27  C   UNL     1      -2.516  14.259  21.239  0.00  0.00    +0.000 A 
ATOM     28  C   UNL     1      -3.175  15.104  22.133  0.00  0.00    +0.000 A 
ATOM     29  C   UNL     1      -3.783  14.585  23.273  0.00  0.00    +0.000 A 
ATOM     30 CL   UNL     1      -4.554  15.696  24.345  0.00  0.00    +0.000 Cl
ATOM     31  C   UNL     1      -3.746  13.207  23.507  0.00  0.00    +0.000 A 
ATOM     32 CL   UNL     1      -4.467  12.491  24.906  0.00  0.00    +0.000 Cl
ATOM     33  C   UNL     1      -3.107  12.359  22.593  0.00  0.00    +0.000 A 
ENDBRANCH  25  26
ENDBRANCH  22  25
ENDBRANCH  18  19
ENDBRANCH   1  18
TORSDOF 10
ENDMDL
MODEL 7
REMARK VINA RESULT:      -6.9      5.096     10.451
REMARK  Name = 
REMARK  10 active torsions:
REMARK  status: ('A' for Active; 'I' for Inactive)
REMARK    1  A    between atoms: C_2  and  C_3
REMARK    2  A    between atoms: C_7  and  S_8
REMARK    3  A    between atoms: S_8  and  N_11
REMARK    4  A    between atoms: N_11  and  C_12
REMARK    5  A    between atoms: C_12  and  C_13
REMARK    6  A    between atoms: C_13  and  O_14
REMARK    7  A    between atoms: C_13  and  C_15
REMARK    8  A    between atoms: C_15  and  N_16
REMARK    9  A    between atoms: C_19  and  O_20
REMARK   10  A    between atoms: O_20  and  C_21
REMARK                            x       y       z     vdW  Elec       q    Type
REMARK                         _______ _______ _______ _____ _____    ______ ____
ROOT
ATOM      1  C   UNL     1       1.146   8.377  20.967  0.00  0.00    +0.000 C 
ENDROOT
BRANCH   1   2
ATOM      2  O   UNL     1       1.295   9.078  19.718  0.00  0.00    +0.000 OA
ATOM      3  H   UNL     1       0.740   8.638  19.051  0.00  0.00    +0.000 HD
ENDBRANCH   1   2
BRANCH   1   4
ATOM      4  C   UNL     1       1.387   9.367  22.119  0.00  0.00    +0.000 C 
BRANCH   4   5
ATOM      5  N   UNL     1       0.167  10.177  22.304  0.00  0.00    +0.000 NA
ATOM      6  H   UNL     1      -0.693   9.632  22.395  0.00  0.00    +0.000 HD
BRANCH   5   7
ATOM      7  S   UNL     1       0.004  11.579  21.399  0.00  0.00    +0.000 S 
ATOM      8  O   UNL     1      -0.760  11.264  20.212  0.00  0.00    +0.000 OA
ATOM      9  O   UNL     1       1.303  12.209  21.336  0.00  0.00    +0.000 OA
BRANCH   7  14
ATOM     10  C   UNL     1      -3.001  12.932  23.764  0.00  0.00    +0.000 A 
ATOM     11  C   UNL     1      -2.576  14.237  24.050  0.00  0.00    +0.000 A 
ATOM     12  C   UNL     1      -1.371  14.718  23.534  0.00  0.00    +0.000 A 
ATOM     13  C   UNL     1      -0.585  13.899  22.727  0.00  0.00    +0.000 A 
ATOM     14  C   UNL     1      -1.006  12.593  22.451  0.00  0.00    +0.000 A 
ATOM     15  C   UNL     1      -2.210  12.102  22.963  0.00  0.00    +0.000 A 
BRANCH  10  17
ATOM     16  N   UNL     1      -5.249  12.061  24.726  0.00  0.00    +0.000 NA
ATOM     17  C   UNL     1      -4.244  12.454  24.291  0.00  0.00    +0.000 C 
ENDBRANCH  10  17
ENDBRANCH   7  14
ENDBRANCH   5   7
ENDBRANCH   4   5
ENDBRANCH   1   4
BRANCH   1  18
ATOM     18  C   UNL     1       2.104   7.162  21.046  0.00  0.00    +0.000 C 
BRANCH  18  19
ATOM     19  N   UNL     1       1.669   5.988  20.267  0.00  0.00    +0.000 NA
ATOM     20  C   UNL     1       2.383   5.916  18.985  0.00  0.00    +0.000 C 
ATOM     21  C   UNL     1       1.881   4.744  18.156  0.00  0.00    +0.000 C 
ATOM     22  C   UNL     1       2.109   3.418  18.879  0.00  0.00    +0.000 C 
ATOM     23  C   UNL     1       1.417   3.503  20.246  0.00  0.00    +0.000 C 
ATOM     24  C   UNL     1       1.856   4.745  21.037  0.00  0.00    +0.000 C 
BRANCH  22  25
ATOM     25  O   UNL     1       3.505   3.155  19.112  0.00  0.00    +0.000 OA
BRANCH  25  26
ATOM     26  C   UNL     1       4.403   3.552  18.160  0.00  0.00    +0.000 A 
ATOM     27  C   UNL     1       4.320   3.259  16.800  0.00  0.00    +0.000 A 
ATOM     28  C   UNL     1       5.263   3.765  15.903  0.00  0.00    +0.000 A 
ATOM     29  C   UNL     1       6.321   4.546  16.362  0.00  0.00    +0.000 A 
ATOM     30 CL   UNL     1       7.462   5.110  15.198  0.00  0.00    +0.000 Cl
ATOM     31  C   UNL     1       6.421   4.837  17.727  0.00  0.00    +0.000 A 
ATOM     32 CL   UNL     1       7.712   5.790  18.371  0.00  0.00    +0.000 Cl
ATOM     33  C   UNL     1       5.457   4.351  18.619  0.00  0.00    +0.000 A 
ENDBRANCH  25  26
ENDBRANCH  22  25
ENDBRANCH  18  19
ENDBRANCH   1  18
TORSDOF 10
ENDMDL
MODEL 8
REMARK VINA RESULT:      -6.8      2.461      3.218
REMARK  Name = 
REMARK  10 active torsions:
REMARK  status: ('A' for Active; 'I' for Inactive)
REMARK    1  A    between atoms: C_2  and  C_3
REMARK    2  A    between atoms: C_7  and  S_8
REMARK    3  A    between atoms: S_8  and  N_11
REMARK    4  A    between atoms: N_11  and  C_12
REMARK    5  A    between atoms: C_12  and  C_13
REMARK    6  A    between atoms: C_13  and  O_14
REMARK    7  A    between atoms: C_13  and  C_15
REMARK    8  A    between atoms: C_15  and  N_16
REMARK    9  A    between atoms: C_19  and  O_20
REMARK   10  A    between atoms: O_20  and  C_21
REMARK                            x       y       z     vdW  Elec       q    Type
REMARK                         _______ _______ _______ _____ _____    ______ ____
ROOT
ATOM      1  C   UNL     1       2.590   8.380  18.318  0.00  0.00    +0.000 C 
ENDROOT
BRANCH   1   2
ATOM      2  O   UNL     1       2.932   8.213  16.929  0.00  0.00    +0.000 OA
ATOM      3  H   UNL     1       2.269   8.679  16.392  0.00  0.00    +0.000 HD
ENDBRANCH   1   2
BRANCH   1   4
ATOM      4  C   UNL     1       2.510   6.992  18.976  0.00  0.00    +0.000 C 
BRANCH   4   5
ATOM      5  N   UNL     1       2.246   5.989  17.926  0.00  0.00    +0.000 NA
ATOM      6  H   UNL     1       1.318   6.055  17.501  0.00  0.00    +0.000 HD
BRANCH   5   7
ATOM      7  S   UNL     1       2.778   4.419  18.180  0.00  0.00    +0.000 S 
ATOM      8  O   UNL     1       2.004   3.538  17.334  0.00  0.00    +0.000 OA
ATOM      9  O   UNL     1       2.884   4.222  19.607  0.00  0.00    +0.000 OA
BRANCH   7  14
ATOM     10  C   UNL     1       6.000   4.278  15.719  0.00  0.00    +0.000 A 
ATOM     11  C   UNL     1       7.054   4.522  16.612  0.00  0.00    +0.000 A 
ATOM     12  C   UNL     1       6.798   4.738  17.967  0.00  0.00    +0.000 A 
ATOM     13  C   UNL     1       5.487   4.709  18.439  0.00  0.00    +0.000 A 
ATOM     14  C   UNL     1       4.437   4.475  17.546  0.00  0.00    +0.000 A 
ATOM     15  C   UNL     1       4.682   4.258  16.187  0.00  0.00    +0.000 A 
BRANCH  10  17
ATOM     16  N   UNL     1       6.510   3.854  13.210  0.00  0.00    +0.000 NA
ATOM     17  C   UNL     1       6.277   4.047  14.333  0.00  0.00    +0.000 C 
ENDBRANCH  10  17
ENDBRANCH   7  14
ENDBRANCH   5   7
ENDBRANCH   4   5
ENDBRANCH   1   4
BRANCH   1  18
ATOM     18  C   UNL     1       1.264   9.166  18.479  0.00  0.00    +0.000 C 
BRANCH  18  19
ATOM     19  N   UNL     1       1.165   9.948  19.726  0.00  0.00    +0.000 NA
ATOM     20  C   UNL     1       1.070  11.385  19.438  0.00  0.00    +0.000 C 
ATOM     21  C   UNL     1       1.039  12.191  20.727  0.00  0.00    +0.000 C 
ATOM     22  C   UNL     1      -0.171  11.817  21.582  0.00  0.00    +0.000 C 
ATOM     23  C   UNL     1      -0.115  10.306  21.841  0.00  0.00    +0.000 C 
ATOM     24  C   UNL     1       0.017   9.504  20.538  0.00  0.00    +0.000 C 
BRANCH  22  25
ATOM     25  O   UNL     1      -1.417  12.101  20.920  0.00  0.00    +0.000 OA
BRANCH  25  26
ATOM     26  C   UNL     1      -2.520  12.336  21.694  0.00  0.00    +0.000 A 
ATOM     27  C   UNL     1      -2.557  12.275  23.086  0.00  0.00    +0.000 A 
ATOM     28  C   UNL     1      -3.725  12.590  23.782  0.00  0.00    +0.000 A 
ATOM     29  C   UNL     1      -4.882  12.940  23.092  0.00  0.00    +0.000 A 
ATOM     30 CL   UNL     1      -6.294  13.288  24.021  0.00  0.00    +0.000 Cl
ATOM     31  C   UNL     1      -4.861  12.993  21.694  0.00  0.00    +0.000 A 
ATOM     32 CL   UNL     1      -6.261  13.409  20.768  0.00  0.00    +0.000 Cl
ATOM     33  C   UNL     1      -3.679  12.704  21.000  0.00  0.00    +0.000 A 
ENDBRANCH  25  26
ENDBRANCH  22  25
ENDBRANCH  18  19
ENDBRANCH   1  18
TORSDOF 10
ENDMDL
MODEL 9
REMARK VINA RESULT:      -6.8      2.411      3.361
REMARK  Name = 
REMARK  10 active torsions:
REMARK  status: ('A' for Active; 'I' for Inactive)
REMARK    1  A    between atoms: C_2  and  C_3
REMARK    2  A    between atoms: C_7  and  S_8
REMARK    3  A    between atoms: S_8  and  N_11
REMARK    4  A    between atoms: N_11  and  C_12
REMARK    5  A    between atoms: C_12  and  C_13
REMARK    6  A    between atoms: C_13  and  O_14
REMARK    7  A    between atoms: C_13  and  C_15
REMARK    8  A    between atoms: C_15  and  N_16
REMARK    9  A    between atoms: C_19  and  O_20
REMARK   10  A    between atoms: O_20  and  C_21
REMARK                            x       y       z     vdW  Elec       q    Type
REMARK                         _______ _______ _______ _____ _____    ______ ____
ROOT
ATOM      1  C   UNL     1       1.736   5.460  20.614  0.00  0.00    +0.000 C 
ENDROOT
BRANCH   1   2
ATOM      2  O   UNL     1       2.536   4.709  21.546  0.00  0.00    +0.000 OA
ATOM      3  H   UNL     1       2.422   3.762  21.356  0.00  0.00    +0.000 HD
ENDBRANCH   1   2
BRANCH   1   4
ATOM      4  C   UNL     1       1.537   4.616  19.344  0.00  0.00    +0.000 C 
BRANCH   4   5
ATOM      5  N   UNL     1       2.732   4.765  18.490  0.00  0.00    +0.000 NA
ATOM      6  H   UNL     1       2.707   5.573  17.865  0.00  0.00    +0.000 HD
BRANCH   5   7
ATOM      7  S   UNL     1       3.392   3.383  17.806  0.00  0.00    +0.000 S 
ATOM      8  O   UNL     1       2.453   2.866  16.836  0.00  0.00    +0.000 OA
ATOM      9  O   UNL     1       3.914   2.573  18.883  0.00  0.00    +0.000 OA
BRANCH   7  14
ATOM     10  C   UNL     1       6.113   4.215  14.916  0.00  0.00    +0.000 A 
ATOM     11  C   UNL     1       7.029   5.023  15.607  0.00  0.00    +0.000 A 
ATOM     12  C   UNL     1       6.827   5.328  16.954  0.00  0.00    +0.000 A 
ATOM     13  C   UNL     1       5.710   4.826  17.620  0.00  0.00    +0.000 A 
ATOM     14  C   UNL     1       4.793   4.029  16.926  0.00  0.00    +0.000 A 
ATOM     15  C   UNL     1       4.986   3.718  15.577  0.00  0.00    +0.000 A 
BRANCH  10  17
ATOM     16  N   UNL     1       6.514   3.652  12.414  0.00  0.00    +0.000 NA
ATOM     17  C   UNL     1       6.338   3.900  13.537  0.00  0.00    +0.000 C 
ENDBRANCH  10  17
ENDBRANCH   7  14
ENDBRANCH   5   7
ENDBRANCH   4   5
ENDBRANCH   1   4
BRANCH   1  18
ATOM     18  C   UNL     1       2.383   6.831  20.295  0.00  0.00    +0.000 C 
BRANCH  18  19
ATOM     19  N   UNL     1       1.456   7.828  19.730  0.00  0.00    +0.000 NA
ATOM     20  C   UNL     1       0.992   8.760  20.767  0.00  0.00    +0.000 C 
ATOM     21  C   UNL     1      -0.017   9.742  20.195  0.00  0.00    +0.000 C 
ATOM     22  C   UNL     1       0.600  10.579  19.075  0.00  0.00    +0.000 C 
ATOM     23  C   UNL     1       1.142   9.614  18.012  0.00  0.00    +0.000 C 
ATOM     24  C   UNL     1       2.084   8.562  18.616  0.00  0.00    +0.000 C 
BRANCH  22  25
ATOM     25  O   UNL     1       1.701  11.383  19.537  0.00  0.00    +0.000 OA
BRANCH  25  26
ATOM     26  C   UNL     1       1.701  12.715  19.228  0.00  0.00    +0.000 A 
ATOM     27  C   UNL     1       2.718  13.386  18.551  0.00  0.00    +0.000 A 
ATOM     28  C   UNL     1       2.591  14.740  18.235  0.00  0.00    +0.000 A 
ATOM     29  C   UNL     1       1.456  15.448  18.620  0.00  0.00    +0.000 A 
ATOM     30 CL   UNL     1       1.384  17.124  18.219  0.00  0.00    +0.000 Cl
ATOM     31  C   UNL     1       0.433  14.788  19.310  0.00  0.00    +0.000 A 
ATOM     32 CL   UNL     1      -1.000  15.603  19.830  0.00  0.00    +0.000 Cl
ATOM     33  C   UNL     1       0.553  13.422  19.600  0.00  0.00    +0.000 A 
ENDBRANCH  25  26
ENDBRANCH  22  25
ENDBRANCH  18  19
ENDBRANCH   1  18
TORSDOF 10
ENDMDL
