MODEL 1
REMARK VINA RESULT:      -9.1      0.000      0.000
REMARK  Name = 
REMARK  14 active torsions:
REMARK  status: ('A' for Active; 'I' for Inactive)
REMARK    1  A    between atoms: C_1  and  C_2
REMARK    2  A    between atoms: C_2  and  C_3
REMARK    3  A    between atoms: C_4  and  C_5
REMARK    4  A    between atoms: C_5  and  C_6
REMARK    5  A    between atoms: C_6  and  O_7
REMARK    6  A    between atoms: C_6  and  C_22
REMARK    7  A    between atoms: O_7  and  C_8
REMARK    8  A    between atoms: C_8  and  C_10
REMARK    9  A    between atoms: C_11  and  C_12
REMARK   10  A    between atoms: C_12  and  C_14
REMARK   11  A    between atoms: C_17  and  C_18
REMARK   12  A    between atoms: C_19  and  C_20
REMARK   13  A    between atoms: C_27  and  O_28
REMARK   14  A    between atoms: C_31  and  O_32
REMARK                            x       y       z     vdW  Elec       q    Type
REMARK                         _______ _______ _______ _____ _____    ______ ____
ROOT
ATOM      1  C   UNL     1       3.304   6.328  18.014  0.00  0.00    +0.000 C 
ENDROOT
BRANCH   1   2
ATOM      2  C   UNL     1       3.501   4.825  18.160  0.00  0.00    +0.000 C 
ATOM      3  C   UNL     1       2.767   4.061  17.319  0.00  0.00    +0.000 C 
ATOM      4  C   UNL     1       2.411   2.721  17.772  0.00  0.00    +0.000 C 
ATOM      5  O   UNL     1       2.004   1.833  17.047  0.00  0.00    +0.000 OA
ATOM      6  C   UNL     1       2.510   2.592  19.221  0.00  0.00    +0.000 A 
ATOM      7  C   UNL     1       1.519   3.009  20.110  0.00  0.00    +0.000 A 
ATOM      8  C   UNL     1       1.735   2.877  21.478  0.00  0.00    +0.000 A 
ATOM      9  C   UNL     1       2.945   2.340  21.905  0.00  0.00    +0.000 A 
ATOM     10  C   UNL     1       3.985   2.242  20.984  0.00  0.00    +0.000 A 
ATOM     11  C   UNL     1       3.803   2.688  19.672  0.00  0.00    +0.000 A 
ATOM     12  C   UNL     1       4.283   4.123  19.270  0.00  0.00    +0.000 C 
ATOM     13  O   UNL     1       5.207   4.678  19.843  0.00  0.00    +0.000 OA
BRANCH   7  14
ATOM     14  O   UNL     1       0.395   3.688  19.732  0.00  0.00    +0.000 OA
ATOM     15  H   UNL     1      -0.291   3.058  19.450  0.00  0.00    +0.000 HD
ENDBRANCH   7  14
BRANCH  10  16
ATOM     16  O   UNL     1       5.029   1.403  21.270  0.00  0.00    +0.000 OA
ATOM     17  H   UNL     1       5.867   1.870  21.080  0.00  0.00    +0.000 HD
ENDBRANCH  10  16
ENDBRANCH   1   2
BRANCH   1  18
ATOM     18  C   UNL     1       2.447   7.103  19.060  0.00  0.00    +0.000 C 
BRANCH  18  22
ATOM     19  C   UNL     1       0.878  10.701  18.442  0.00  0.00    +0.000 C 
ATOM     20  C   UNL     1       1.257   9.413  19.144  0.00  0.00    +0.000 C 
ATOM     21  C   UNL     1       0.851   9.308  20.584  0.00  0.00    +0.000 C 
ATOM     22  C   UNL     1       1.940   8.442  18.496  0.00  0.00    +0.000 C 
ENDBRANCH  18  22
ENDBRANCH   1  18
BRANCH   1  23
ATOM     23  O   UNL     1       4.478   7.145  17.836  0.00  0.00    +0.000 OA
BRANCH  23  24
ATOM     24  C   UNL     1       5.199   7.250  16.705  0.00  0.00    +0.000 C 
ATOM     25  O   UNL     1       4.851   7.054  15.565  0.00  0.00    +0.000 OA
BRANCH  24  26
ATOM     26  C   UNL     1       6.570   7.499  17.222  0.00  0.00    +0.000 C 
ATOM     27  C   UNL     1       7.517   6.641  17.564  0.00  0.00    +0.000 C 
BRANCH  27  28
ATOM     28  C   UNL     1       7.507   5.164  17.341  0.00  0.00    +0.000 C 
ATOM     29  O   UNL     1       7.756   4.385  18.248  0.00  0.00    +0.000 OA
BRANCH  28  30
ATOM     30  C   UNL     1       6.989   4.686  16.031  0.00  0.00    +0.000 A 
ATOM     31  C   UNL     1       5.940   3.769  15.913  0.00  0.00    +0.000 A 
ATOM     32  C   UNL     1       5.509   3.341  14.658  0.00  0.00    +0.000 A 
ATOM     33  C   UNL     1       6.107   3.829  13.486  0.00  0.00    +0.000 A 
ATOM     34  C   UNL     1       5.586   3.348  12.152  0.00  0.00    +0.000 C 
ATOM     35  C   UNL     1       7.158   4.756  13.584  0.00  0.00    +0.000 A 
ATOM     36  C   UNL     1       7.861   5.334  12.386  0.00  0.00    +0.000 C 
ATOM     37  C   UNL     1       7.581   5.181  14.857  0.00  0.00    +0.000 A 
ENDBRANCH  28  30
ENDBRANCH  27  28
ENDBRANCH  24  26
ENDBRANCH  23  24
ENDBRANCH   1  23
TORSDOF 10
ENDMDL
MODEL 2
REMARK VINA RESULT:      -8.8      3.563      6.404
REMARK  Name = 
REMARK  14 active torsions:
REMARK  status: ('A' for Active; 'I' for Inactive)
REMARK    1  A    between atoms: C_1  and  C_2
REMARK    2  A    between atoms: C_2  and  C_3
REMARK    3  A    between atoms: C_4  and  C_5
REMARK    4  A    between atoms: C_5  and  C_6
REMARK    5  A    between atoms: C_6  and  O_7
REMARK    6  A    between atoms: C_6  and  C_22
REMARK    7  A    between atoms: O_7  and  C_8
REMARK    8  A    between atoms: C_8  and  C_10
REMARK    9  A    between atoms: C_11  and  C_12
REMARK   10  A    between atoms: C_12  and  C_14
REMARK   11  A    between atoms: C_17  and  C_18
REMARK   12  A    between atoms: C_19  and  C_20
REMARK   13  A    between atoms: C_27  and  O_28
REMARK   14  A    between atoms: C_31  and  O_32
REMARK                            x       y       z     vdW  Elec       q    Type
REMARK                         _______ _______ _______ _____ _____    ______ ____
ROOT
ATOM      1  C   UNL     1       5.687   4.709  17.935  0.00  0.00    +0.000 C 
ENDROOT
BRANCH   1   2
ATOM      2  C   UNL     1       4.184   4.658  17.698  0.00  0.00    +0.000 C 
ATOM      3  C   UNL     1       3.581   5.858  17.543  0.00  0.00    +0.000 C 
ATOM      4  C   UNL     1       2.179   5.958  17.932  0.00  0.00    +0.000 C 
ATOM      5  O   UNL     1       1.435   6.864  17.607  0.00  0.00    +0.000 OA
ATOM      6  C   UNL     1       1.790   4.887  18.842  0.00  0.00    +0.000 A 
ATOM      7  C   UNL     1       2.033   4.904  20.215  0.00  0.00    +0.000 A 
ATOM      8  C   UNL     1       1.655   3.808  20.985  0.00  0.00    +0.000 A 
ATOM      9  C   UNL     1       1.056   2.728  20.345  0.00  0.00    +0.000 A 
ATOM     10  C   UNL     1       1.133   2.659  18.956  0.00  0.00    +0.000 A 
ATOM     11  C   UNL     1       1.809   3.652  18.242  0.00  0.00    +0.000 A 
ATOM     12  C   UNL     1       3.296   3.419  17.811  0.00  0.00    +0.000 C 
ATOM     13  O   UNL     1       3.743   2.299  17.618  0.00  0.00    +0.000 OA
BRANCH   7  14
ATOM     14  O   UNL     1       2.763   5.870  20.847  0.00  0.00    +0.000 OA
ATOM     15  H   UNL     1       3.290   6.363  20.194  0.00  0.00    +0.000 HD
ENDBRANCH   7  14
BRANCH  10  16
ATOM     16  O   UNL     1       0.263   1.832  18.297  0.00  0.00    +0.000 OA
ATOM     17  H   UNL     1      -0.555   1.752  18.827  0.00  0.00    +0.000 HD
ENDBRANCH  10  16
ENDBRANCH   1   2
BRANCH   1  18
ATOM     18  C   UNL     1       6.666   4.233  16.819  0.00  0.00    +0.000 C 
BRANCH  18  22
ATOM     19  C   UNL     1       5.386   3.662  13.102  0.00  0.00    +0.000 C 
ATOM     20  C   UNL     1       6.213   4.181  14.261  0.00  0.00    +0.000 C 
ATOM     21  C   UNL     1       7.377   5.054  13.896  0.00  0.00    +0.000 C 
ATOM     22  C   UNL     1       5.913   3.844  15.535  0.00  0.00    +0.000 C 
ENDBRANCH  18  22
ENDBRANCH   1  18
BRANCH   1  23
ATOM     23  O   UNL     1       6.251   5.951  18.402  0.00  0.00    +0.000 OA
BRANCH  23  24
ATOM     24  C   UNL     1       7.018   6.787  17.680  0.00  0.00    +0.000 C 
ATOM     25  O   UNL     1       6.892   7.124  16.526  0.00  0.00    +0.000 OA
BRANCH  24  26
ATOM     26  C   UNL     1       8.152   7.058  18.602  0.00  0.00    +0.000 C 
ATOM     27  C   UNL     1       8.827   8.176  18.812  0.00  0.00    +0.000 C 
BRANCH  27  28
ATOM     28  C   UNL     1       8.490   9.534  18.287  0.00  0.00    +0.000 C 
ATOM     29  O   UNL     1       7.454   9.738  17.676  0.00  0.00    +0.000 OA
BRANCH  28  30
ATOM     30  C   UNL     1       9.371  10.655  18.712  0.00  0.00    +0.000 A 
ATOM     31  C   UNL     1       9.540  11.028  20.049  0.00  0.00    +0.000 A 
ATOM     32  C   UNL     1      10.364  12.101  20.388  0.00  0.00    +0.000 A 
ATOM     33  C   UNL     1      11.052  12.822  19.399  0.00  0.00    +0.000 A 
ATOM     34  C   UNL     1      11.948  13.961  19.824  0.00  0.00    +0.000 C 
ATOM     35  C   UNL     1      10.900  12.458  18.051  0.00  0.00    +0.000 A 
ATOM     36  C   UNL     1      11.593  13.169  16.922  0.00  0.00    +0.000 C 
ATOM     37  C   UNL     1      10.067  11.372  17.724  0.00  0.00    +0.000 A 
ENDBRANCH  28  30
ENDBRANCH  27  28
ENDBRANCH  24  26
ENDBRANCH  23  24
ENDBRANCH   1  23
TORSDOF 10
ENDMDL
MODEL 3
REMARK VINA RESULT:      -8.7      2.679      7.881
REMARK  Name = 
REMARK  14 active torsions:
REMARK  status: ('A' for Active; 'I' for Inactive)
REMARK    1  A    between atoms: C_1  and  C_2
REMARK    2  A    between atoms: C_2  and  C_3
REMARK    3  A    between atoms: C_4  and  C_5
REMARK    4  A    between atoms: C_5  and  C_6
REMARK    5  A    between atoms: C_6  and  O_7
REMARK    6  A    between atoms: C_6  and  C_22
REMARK    7  A    between atoms: O_7  and  C_8
REMARK    8  A    between atoms: C_8  and  C_10
REMARK    9  A    between atoms: C_11  and  C_12
REMARK   10  A    between atoms: C_12  and  C_14
REMARK   11  A    between atoms: C_17  and  C_18
REMARK   12  A    between atoms: C_19  and  C_20
REMARK   13  A    between atoms: C_27  and  O_28
REMARK   14  A    between atoms: C_31  and  O_32
REMARK                            x       y       z     vdW  Elec       q    Type
REMARK                         _______ _______ _______ _____ _____    ______ ____
ROOT
ATOM      1  C   UNL     1       2.463   5.968  18.001  0.00  0.00    +0.000 C 
ENDROOT
BRANCH   1   2
ATOM      2  C   UNL     1       3.769   5.809  17.234  0.00  0.00    +0.000 C 
ATOM      3  C   UNL     1       3.980   4.586  16.698  0.00  0.00    +0.000 C 
ATOM      4  C   UNL     1       5.365   4.162  16.523  0.00  0.00    +0.000 C 
ATOM      5  O   UNL     1       5.719   3.234  15.820  0.00  0.00    +0.000 OA
ATOM      6  C   UNL     1       6.278   4.923  17.367  0.00  0.00    +0.000 A 
ATOM      7  C   UNL     1       6.505   4.648  18.715  0.00  0.00    +0.000 A 
ATOM      8  C   UNL     1       7.368   5.466  19.439  0.00  0.00    +0.000 A 
ATOM      9  C   UNL     1       7.962   6.540  18.785  0.00  0.00    +0.000 A 
ATOM     10  C   UNL     1       7.450   6.924  17.548  0.00  0.00    +0.000 A 
ATOM     11  C   UNL     1       6.359   6.243  17.000  0.00  0.00    +0.000 A 
ATOM     12  C   UNL     1       4.915   6.820  17.187  0.00  0.00    +0.000 C 
ATOM     13  O   UNL     1       4.712   8.015  17.336  0.00  0.00    +0.000 OA
BRANCH   7  14
ATOM     14  O   UNL     1       5.816   3.708  19.427  0.00  0.00    +0.000 OA
ATOM     15  H   UNL     1       5.356   4.132  20.173  0.00  0.00    +0.000 HD
ENDBRANCH   7  14
BRANCH  10  16
ATOM     16  O   UNL     1       8.225   7.711  16.739  0.00  0.00    +0.000 OA
ATOM     17  H   UNL     1       8.949   8.093  17.274  0.00  0.00    +0.000 HD
ENDBRANCH  10  16
ENDBRANCH   1   2
BRANCH   1  18
ATOM     18  C   UNL     1       1.523   4.740  18.196  0.00  0.00    +0.000 C 
BRANCH  18  22
ATOM     19  C   UNL     1       1.673   2.710  21.608  0.00  0.00    +0.000 C 
ATOM     20  C   UNL     1       1.654   2.998  20.121  0.00  0.00    +0.000 C 
ATOM     21  C   UNL     1       1.823   1.810  19.221  0.00  0.00    +0.000 C 
ATOM     22  C   UNL     1       1.515   4.261  19.658  0.00  0.00    +0.000 C 
ENDBRANCH  18  22
ENDBRANCH   1  18
BRANCH   1  23
ATOM     23  O   UNL     1       2.520   6.588  19.302  0.00  0.00    +0.000 OA
BRANCH  23  24
ATOM     24  C   UNL     1       1.938   7.752  19.644  0.00  0.00    +0.000 C 
ATOM     25  O   UNL     1       1.412   8.056  20.688  0.00  0.00    +0.000 OA
BRANCH  24  26
ATOM     26  C   UNL     1       1.953   8.505  18.363  0.00  0.00    +0.000 C 
ATOM     27  C   UNL     1       1.281   9.588  18.007  0.00  0.00    +0.000 C 
BRANCH  27  28
ATOM     28  C   UNL     1       0.447  10.453  18.895  0.00  0.00    +0.000 C 
ATOM     29  O   UNL     1       0.950  11.113  19.790  0.00  0.00    +0.000 OA
BRANCH  28  30
ATOM     30  C   UNL     1      -0.980  10.626  18.515  0.00  0.00    +0.000 A 
ATOM     31  C   UNL     1      -1.564   9.975  17.423  0.00  0.00    +0.000 A 
ATOM     32  C   UNL     1      -2.903  10.191  17.102  0.00  0.00    +0.000 A 
ATOM     33  C   UNL     1      -3.700  11.054  17.871  0.00  0.00    +0.000 A 
ATOM     34  C   UNL     1      -5.151  11.234  17.490  0.00  0.00    +0.000 C 
ATOM     35  C   UNL     1      -3.133  11.712  18.974  0.00  0.00    +0.000 A 
ATOM     36  C   UNL     1      -3.904  12.655  19.857  0.00  0.00    +0.000 C 
ATOM     37  C   UNL     1      -1.781  11.483  19.289  0.00  0.00    +0.000 A 
ENDBRANCH  28  30
ENDBRANCH  27  28
ENDBRANCH  24  26
ENDBRANCH  23  24
ENDBRANCH   1  23
TORSDOF 10
ENDMDL
MODEL 4
REMARK VINA RESULT:      -8.6      2.560      7.265
REMARK  Name = 
REMARK  14 active torsions:
REMARK  status: ('A' for Active; 'I' for Inactive)
REMARK    1  A    between atoms: C_1  and  C_2
REMARK    2  A    between atoms: C_2  and  C_3
REMARK    3  A    between atoms: C_4  and  C_5
REMARK    4  A    between atoms: C_5  and  C_6
REMARK    5  A    between atoms: C_6  and  O_7
REMARK    6  A    between atoms: C_6  and  C_22
REMARK    7  A    between atoms: O_7  and  C_8
REMARK    8  A    between atoms: C_8  and  C_10
REMARK    9  A    between atoms: C_11  and  C_12
REMARK   10  A    between atoms: C_12  and  C_14
REMARK   11  A    between atoms: C_17  and  C_18
REMARK   12  A    between atoms: C_19  and  C_20
REMARK   13  A    between atoms: C_27  and  O_28
REMARK   14  A    between atoms: C_31  and  O_32
REMARK                            x       y       z     vdW  Elec       q    Type
REMARK                         _______ _______ _______ _____ _____    ______ ____
ROOT
ATOM      1  C   UNL     1       3.838   6.436  18.473  0.00  0.00    +0.000 C 
ENDROOT
BRANCH   1   2
ATOM      2  C   UNL     1       3.800   5.233  19.404  0.00  0.00    +0.000 C 
ATOM      3  C   UNL     1       4.776   4.317  19.208  0.00  0.00    +0.000 C 
ATOM      4  C   UNL     1       4.479   2.935  19.568  0.00  0.00    +0.000 C 
ATOM      5  O   UNL     1       5.316   2.064  19.710  0.00  0.00    +0.000 OA
ATOM      6  C   UNL     1       3.044   2.690  19.648  0.00  0.00    +0.000 A 
ATOM      7  C   UNL     1       2.234   2.435  18.540  0.00  0.00    +0.000 A 
ATOM      8  C   UNL     1       0.867   2.256  18.726  0.00  0.00    +0.000 A 
ATOM      9  C   UNL     1       0.359   2.352  20.018  0.00  0.00    +0.000 A 
ATOM     10  C   UNL     1       1.168   2.909  21.005  0.00  0.00    +0.000 A 
ATOM     11  C   UNL     1       2.450   3.366  20.685  0.00  0.00    +0.000 A 
ATOM     12  C   UNL     1       2.676   4.885  20.380  0.00  0.00    +0.000 C 
ATOM     13  O   UNL     1       1.962   5.752  20.860  0.00  0.00    +0.000 OA
BRANCH   7  14
ATOM     14  O   UNL     1       2.671   2.497  17.248  0.00  0.00    +0.000 OA
ATOM     15  H   UNL     1       3.644   2.533  17.231  0.00  0.00    +0.000 HD
ENDBRANCH   7  14
BRANCH  10  16
ATOM     16  O   UNL     1       0.844   2.682  22.316  0.00  0.00    +0.000 OA
ATOM     17  H   UNL     1       1.550   2.143  22.724  0.00  0.00    +0.000 HD
ENDBRANCH  10  16
ENDBRANCH   1   2
BRANCH   1  18
ATOM     18  C   UNL     1       4.733   6.401  17.196  0.00  0.00    +0.000 C 
BRANCH  18  22
ATOM     19  C   UNL     1       8.107   8.443  17.677  0.00  0.00    +0.000 C 
ATOM     20  C   UNL     1       7.109   7.304  17.738  0.00  0.00    +0.000 C 
ATOM     21  C   UNL     1       7.613   6.022  18.329  0.00  0.00    +0.000 C 
ATOM     22  C   UNL     1       5.852   7.454  17.261  0.00  0.00    +0.000 C 
ENDBRANCH  18  22
ENDBRANCH   1  18
BRANCH   1  23
ATOM     23  O   UNL     1       2.580   6.972  18.015  0.00  0.00    +0.000 OA
BRANCH  23  24
ATOM     24  C   UNL     1       2.233   8.272  18.012  0.00  0.00    +0.000 C 
ATOM     25  O   UNL     1       2.448   9.110  17.170  0.00  0.00    +0.000 OA
BRANCH  24  26
ATOM     26  C   UNL     1       1.672   8.456  19.376  0.00  0.00    +0.000 C 
ATOM     27  C   UNL     1       1.080   9.508  19.916  0.00  0.00    +0.000 C 
BRANCH  27  28
ATOM     28  C   UNL     1       0.656  10.754  19.208  0.00  0.00    +0.000 C 
ATOM     29  O   UNL     1       1.466  11.611  18.894  0.00  0.00    +0.000 OA
BRANCH  28  30
ATOM     30  C   UNL     1      -0.752  10.810  18.733  0.00  0.00    +0.000 A 
ATOM     31  C   UNL     1      -1.211  10.101  17.618  0.00  0.00    +0.000 A 
ATOM     32  C   UNL     1      -2.538  10.207  17.206  0.00  0.00    +0.000 A 
ATOM     33  C   UNL     1      -3.448  11.014  17.907  0.00  0.00    +0.000 A 
ATOM     34  C   UNL     1      -4.880  11.075  17.430  0.00  0.00    +0.000 C 
ATOM     35  C   UNL     1      -3.008  11.729  19.034  0.00  0.00    +0.000 A 
ATOM     36  C   UNL     1      -3.907  12.619  19.847  0.00  0.00    +0.000 C 
ATOM     37  C   UNL     1      -1.666  11.610  19.439  0.00  0.00    +0.000 A 
ENDBRANCH  28  30
ENDBRANCH  27  28
ENDBRANCH  24  26
ENDBRANCH  23  24
ENDBRANCH   1  23
TORSDOF 10
ENDMDL
MODEL 5
REMARK VINA RESULT:      -8.6      2.219      6.938
REMARK  Name = 
REMARK  14 active torsions:
REMARK  status: ('A' for Active; 'I' for Inactive)
REMARK    1  A    between atoms: C_1  and  C_2
REMARK    2  A    between atoms: C_2  and  C_3
REMARK    3  A    between atoms: C_4  and  C_5
REMARK    4  A    between atoms: C_5  and  C_6
REMARK    5  A    between atoms: C_6  and  O_7
REMARK    6  A    between atoms: C_6  and  C_22
REMARK    7  A    between atoms: O_7  and  C_8
REMARK    8  A    between atoms: C_8  and  C_10
REMARK    9  A    between atoms: C_11  and  C_12
REMARK   10  A    between atoms: C_12  and  C_14
REMARK   11  A    between atoms: C_17  and  C_18
REMARK   12  A    between atoms: C_19  and  C_20
REMARK   13  A    between atoms: C_27  and  O_28
REMARK   14  A    between atoms: C_31  and  O_32
REMARK                            x       y       z     vdW  Elec       q    Type
REMARK                         _______ _______ _______ _____ _____    ______ ____
ROOT
ATOM      1  C   UNL     1       3.621   6.387  18.081  0.00  0.00    +0.000 C 
ENDROOT
BRANCH   1   2
ATOM      2  C   UNL     1       3.725   4.868  18.078  0.00  0.00    +0.000 C 
ATOM      3  C   UNL     1       2.826   4.227  17.297  0.00  0.00    +0.000 C 
ATOM      4  C   UNL     1       2.440   2.877  17.690  0.00  0.00    +0.000 C 
ATOM      5  O   UNL     1       1.871   2.083  16.965  0.00  0.00    +0.000 OA
ATOM      6  C   UNL     1       2.732   2.615  19.094  0.00  0.00    +0.000 A 
ATOM      7  C   UNL     1       1.909   3.013  20.148  0.00  0.00    +0.000 A 
ATOM      8  C   UNL     1       2.305   2.747  21.456  0.00  0.00    +0.000 A 
ATOM      9  C   UNL     1       3.520   2.101  21.658  0.00  0.00    +0.000 A 
ATOM     10  C   UNL     1       4.410   2.021  20.590  0.00  0.00    +0.000 A 
ATOM     11  C   UNL     1       4.078   2.591  19.358  0.00  0.00    +0.000 A 
ATOM     12  C   UNL     1       4.601   4.024  19.003  0.00  0.00    +0.000 C 
ATOM     13  O   UNL     1       5.635   4.468  19.476  0.00  0.00    +0.000 OA
BRANCH   7  14
ATOM     14  O   UNL     1       0.796   3.790  19.994  0.00  0.00    +0.000 OA
ATOM     15  H   UNL     1       0.320   3.855  20.840  0.00  0.00    +0.000 HD
ENDBRANCH   7  14
BRANCH  10  16
ATOM     16  O   UNL     1       5.419   1.098  20.653  0.00  0.00    +0.000 OA
ATOM     17  H   UNL     1       5.252   0.502  21.410  0.00  0.00    +0.000 HD
ENDBRANCH  10  16
ENDBRANCH   1   2
BRANCH   1  18
ATOM     18  C   UNL     1       4.424   7.222  17.038  0.00  0.00    +0.000 C 
BRANCH  18  22
ATOM     19  C   UNL     1       7.092   4.964  15.149  0.00  0.00    +0.000 C 
ATOM     20  C   UNL     1       6.491   5.903  16.175  0.00  0.00    +0.000 C 
ATOM     21  C   UNL     1       7.395   6.310  17.300  0.00  0.00    +0.000 C 
ATOM     22  C   UNL     1       5.208   6.317  16.072  0.00  0.00    +0.000 C 
ENDBRANCH  18  22
ENDBRANCH   1  18
BRANCH   1  23
ATOM     23  O   UNL     1       2.302   6.970  18.068  0.00  0.00    +0.000 OA
BRANCH  23  24
ATOM     24  C   UNL     1       2.022   8.284  18.135  0.00  0.00    +0.000 C 
ATOM     25  O   UNL     1       2.278   9.154  17.336  0.00  0.00    +0.000 OA
BRANCH  24  26
ATOM     26  C   UNL     1       1.474   8.424  19.509  0.00  0.00    +0.000 C 
ATOM     27  C   UNL     1       0.966   9.483  20.116  0.00  0.00    +0.000 C 
BRANCH  27  28
ATOM     28  C   UNL     1       0.644  10.802  19.491  0.00  0.00    +0.000 C 
ATOM     29  O   UNL     1       1.515  11.628  19.272  0.00  0.00    +0.000 OA
BRANCH  28  30
ATOM     30  C   UNL     1      -0.739  10.979  18.972  0.00  0.00    +0.000 A 
ATOM     31  C   UNL     1      -1.699  11.772  19.609  0.00  0.00    +0.000 A 
ATOM     32  C   UNL     1      -2.986  11.885  19.087  0.00  0.00    +0.000 A 
ATOM     33  C   UNL     1      -3.345  11.219  17.904  0.00  0.00    +0.000 A 
ATOM     34  C   UNL     1      -4.748  11.394  17.371  0.00  0.00    +0.000 C 
ATOM     35  C   UNL     1      -2.394  10.423  17.247  0.00  0.00    +0.000 A 
ATOM     36  C   UNL     1      -2.684   9.670  15.977  0.00  0.00    +0.000 C 
ATOM     37  C   UNL     1      -1.097  10.320  17.784  0.00  0.00    +0.000 A 
ENDBRANCH  28  30
ENDBRANCH  27  28
ENDBRANCH  24  26
ENDBRANCH  23  24
ENDBRANCH   1  23
TORSDOF 10
ENDMDL
MODEL 6
REMARK VINA RESULT:      -8.6      2.215      6.902
REMARK  Name = 
REMARK  14 active torsions:
REMARK  status: ('A' for Active; 'I' for Inactive)
REMARK    1  A    between atoms: C_1  and  C_2
REMARK    2  A    between atoms: C_2  and  C_3
REMARK    3  A    between atoms: C_4  and  C_5
REMARK    4  A    between atoms: C_5  and  C_6
REMARK    5  A    between atoms: C_6  and  O_7
REMARK    6  A    between atoms: C_6  and  C_22
REMARK    7  A    between atoms: O_7  and  C_8
REMARK    8  A    between atoms: C_8  and  C_10
REMARK    9  A    between atoms: C_11  and  C_12
REMARK   10  A    between atoms: C_12  and  C_14
REMARK   11  A    between atoms: C_17  and  C_18
REMARK   12  A    between atoms: C_19  and  C_20
REMARK   13  A    between atoms: C_27  and  O_28
REMARK   14  A    between atoms: C_31  and  O_32
REMARK                            x       y       z     vdW  Elec       q    Type
REMARK                         _______ _______ _______ _____ _____    ______ ____
ROOT
ATOM      1  C   UNL     1       4.547   6.029  17.642  0.00  0.00    +0.000 C 
ENDROOT
BRANCH   1   2
ATOM      2  C   UNL     1       4.343   4.557  17.977  0.00  0.00    +0.000 C 
ATOM      3  C   UNL     1       3.585   3.864  17.097  0.00  0.00    +0.000 C 
ATOM      4  C   UNL     1       2.844   2.717  17.610  0.00  0.00    +0.000 C 
ATOM      5  O   UNL     1       2.351   1.848  16.918  0.00  0.00    +0.000 OA
ATOM      6  C   UNL     1       2.679   2.781  19.058  0.00  0.00    +0.000 A 
ATOM      7  C   UNL     1       1.693   3.534  19.697  0.00  0.00    +0.000 A 
ATOM      8  C   UNL     1       1.651   3.556  21.088  0.00  0.00    +0.000 A 
ATOM      9  C   UNL     1       2.609   2.829  21.788  0.00  0.00    +0.000 A 
ATOM     10  C   UNL     1       3.725   2.368  21.093  0.00  0.00    +0.000 A 
ATOM     11  C   UNL     1       3.867   2.649  19.731  0.00  0.00    +0.000 A 
ATOM     12  C   UNL     1       4.743   3.866  19.280  0.00  0.00    +0.000 C 
ATOM     13  O   UNL     1       5.673   4.277  19.956  0.00  0.00    +0.000 OA
BRANCH   7  14
ATOM     14  O   UNL     1       0.845   4.385  19.048  0.00  0.00    +0.000 OA
ATOM     15  H   UNL     1       1.348   4.939  18.425  0.00  0.00    +0.000 HD
ENDBRANCH   7  14
BRANCH  10  16
ATOM     16  O   UNL     1       4.472   1.367  21.654  0.00  0.00    +0.000 OA
ATOM     17  H   UNL     1       3.922   0.562  21.715  0.00  0.00    +0.000 HD
ENDBRANCH  10  16
ENDBRANCH   1   2
BRANCH   1  18
ATOM     18  C   UNL     1       5.539   6.437  16.511  0.00  0.00    +0.000 C 
BRANCH  18  22
ATOM     19  C   UNL     1       8.302   8.818  18.086  0.00  0.00    +0.000 C 
ATOM     20  C   UNL     1       7.481   7.575  17.810  0.00  0.00    +0.000 C 
ATOM     21  C   UNL     1       7.912   6.332  18.531  0.00  0.00    +0.000 C 
ATOM     22  C   UNL     1       6.442   7.604  16.945  0.00  0.00    +0.000 C 
ENDBRANCH  18  22
ENDBRANCH   1  18
BRANCH   1  23
ATOM     23  O   UNL     1       3.374   6.831  17.399  0.00  0.00    +0.000 OA
BRANCH  23  24
ATOM     24  C   UNL     1       2.679   7.511  18.329  0.00  0.00    +0.000 C 
ATOM     25  O   UNL     1       2.125   7.090  19.317  0.00  0.00    +0.000 OA
BRANCH  24  26
ATOM     26  C   UNL     1       2.619   8.877  17.747  0.00  0.00    +0.000 C 
ATOM     27  C   UNL     1       1.754   9.854  17.963  0.00  0.00    +0.000 C 
BRANCH  27  28
ATOM     28  C   UNL     1       0.691   9.890  19.012  0.00  0.00    +0.000 C 
ATOM     29  O   UNL     1       0.963   9.761  20.195  0.00  0.00    +0.000 OA
BRANCH  28  30
ATOM     30  C   UNL     1      -0.674  10.285  18.572  0.00  0.00    +0.000 A 
ATOM     31  C   UNL     1      -1.268   9.803  17.401  0.00  0.00    +0.000 A 
ATOM     32  C   UNL     1      -2.543  10.224  17.027  0.00  0.00    +0.000 A 
ATOM     33  C   UNL     1      -3.265  11.129  17.821  0.00  0.00    +0.000 A 
ATOM     34  C   UNL     1      -4.652  11.534  17.379  0.00  0.00    +0.000 C 
ATOM     35  C   UNL     1      -2.688  11.619  19.004  0.00  0.00    +0.000 A 
ATOM     36  C   UNL     1      -3.382  12.591  19.918  0.00  0.00    +0.000 C 
ATOM     37  C   UNL     1      -1.402  11.184  19.370  0.00  0.00    +0.000 A 
ENDBRANCH  28  30
ENDBRANCH  27  28
ENDBRANCH  24  26
ENDBRANCH  23  24
ENDBRANCH   1  23
TORSDOF 10
ENDMDL
MODEL 7
REMARK VINA RESULT:      -8.5      2.650      7.929
REMARK  Name = 
REMARK  14 active torsions:
REMARK  status: ('A' for Active; 'I' for Inactive)
REMARK    1  A    between atoms: C_1  and  C_2
REMARK    2  A    between atoms: C_2  and  C_3
REMARK    3  A    between atoms: C_4  and  C_5
REMARK    4  A    between atoms: C_5  and  C_6
REMARK    5  A    between atoms: C_6  and  O_7
REMARK    6  A    between atoms: C_6  and  C_22
REMARK    7  A    between atoms: O_7  and  C_8
REMARK    8  A    between atoms: C_8  and  C_10
REMARK    9  A    between atoms: C_11  and  C_12
REMARK   10  A    between atoms: C_12  and  C_14
REMARK   11  A    between atoms: C_17  and  C_18
REMARK   12  A    between atoms: C_19  and  C_20
REMARK   13  A    between atoms: C_27  and  O_28
REMARK   14  A    between atoms: C_31  and  O_32
REMARK                            x       y       z     vdW  Elec       q    Type
REMARK                         _______ _______ _______ _____ _____    ______ ____
ROOT
ATOM      1  C   UNL     1       2.430   5.789  19.013  0.00  0.00    +0.000 C 
ENDROOT
BRANCH   1   2
ATOM      2  C   UNL     1       3.736   5.061  18.723  0.00  0.00    +0.000 C 
ATOM      3  C   UNL     1       4.757   5.347  19.562  0.00  0.00    +0.000 C 
ATOM      4  C   UNL     1       6.111   5.226  19.034  0.00  0.00    +0.000 C 
ATOM      5  O   UNL     1       7.117   5.179  19.717  0.00  0.00    +0.000 OA
ATOM      6  C   UNL     1       6.132   5.261  17.576  0.00  0.00    +0.000 A 
ATOM      7  C   UNL     1       6.089   6.435  16.825  0.00  0.00    +0.000 A 
ATOM      8  C   UNL     1       6.071   6.352  15.435  0.00  0.00    +0.000 A 
ATOM      9  C   UNL     1       6.086   5.090  14.851  0.00  0.00    +0.000 A 
ATOM     10  C   UNL     1       5.817   3.987  15.657  0.00  0.00    +0.000 A 
ATOM     11  C   UNL     1       5.530   4.163  17.013  0.00  0.00    +0.000 A 
ATOM     12  C   UNL     1       4.039   4.213  17.488  0.00  0.00    +0.000 C 
ATOM     13  O   UNL     1       3.149   3.641  16.878  0.00  0.00    +0.000 OA
BRANCH   7  14
ATOM     14  O   UNL     1       5.908   7.678  17.364  0.00  0.00    +0.000 OA
ATOM     15  H   UNL     1       5.901   7.617  18.335  0.00  0.00    +0.000 HD
ENDBRANCH   7  14
BRANCH  10  16
ATOM     16  O   UNL     1       6.180   2.747  15.203  0.00  0.00    +0.000 OA
ATOM     17  H   UNL     1       5.886   2.077  15.852  0.00  0.00    +0.000 HD
ENDBRANCH  10  16
ENDBRANCH   1   2
BRANCH   1  18
ATOM     18  C   UNL     1       1.110   4.977  19.179  0.00  0.00    +0.000 C 
BRANCH  18  22
ATOM     19  C   UNL     1       1.391   2.297  22.099  0.00  0.00    +0.000 C 
ATOM     20  C   UNL     1       1.419   2.898  20.708  0.00  0.00    +0.000 C 
ATOM     21  C   UNL     1       1.853   1.979  19.606  0.00  0.00    +0.000 C 
ATOM     22  C   UNL     1       1.090   4.193  20.503  0.00  0.00    +0.000 C 
ENDBRANCH  18  22
ENDBRANCH   1  18
BRANCH   1  23
ATOM     23  O   UNL     1       2.414   6.728  20.106  0.00  0.00    +0.000 OA
BRANCH  23  24
ATOM     24  C   UNL     1       1.837   7.944  20.090  0.00  0.00    +0.000 C 
ATOM     25  O   UNL     1       1.239   8.509  20.975  0.00  0.00    +0.000 OA
BRANCH  24  26
ATOM     26  C   UNL     1       1.970   8.342  18.664  0.00  0.00    +0.000 C 
ATOM     27  C   UNL     1       1.461   9.380  18.022  0.00  0.00    +0.000 C 
BRANCH  27  28
ATOM     28  C   UNL     1       0.749  10.545  18.629  0.00  0.00    +0.000 C 
ATOM     29  O   UNL     1       1.363  11.454  19.164  0.00  0.00    +0.000 OA
BRANCH  28  30
ATOM     30  C   UNL     1      -0.714  10.642  18.379  0.00  0.00    +0.000 A 
ATOM     31  C   UNL     1      -1.368   9.912  17.381  0.00  0.00    +0.000 A 
ATOM     32  C   UNL     1      -2.739  10.058  17.178  0.00  0.00    +0.000 A 
ATOM     33  C   UNL     1      -3.497  10.929  17.977  0.00  0.00    +0.000 A 
ATOM     34  C   UNL     1      -4.984  11.033  17.728  0.00  0.00    +0.000 C 
ATOM     35  C   UNL     1      -2.860  11.666  18.988  0.00  0.00    +0.000 A 
ATOM     36  C   UNL     1      -3.585  12.624  19.893  0.00  0.00    +0.000 C 
ATOM     37  C   UNL     1      -1.475  11.507  19.183  0.00  0.00    +0.000 A 
ENDBRANCH  28  30
ENDBRANCH  27  28
ENDBRANCH  24  26
ENDBRANCH  23  24
ENDBRANCH   1  23
TORSDOF 10
ENDMDL
MODEL 8
REMARK VINA RESULT:      -8.5      2.534      7.238
REMARK  Name = 
REMARK  14 active torsions:
REMARK  status: ('A' for Active; 'I' for Inactive)
REMARK    1  A    between atoms: C_1  and  C_2
REMARK    2  A    between atoms: C_2  and  C_3
REMARK    3  A    between atoms: C_4  and  C_5
REMARK    4  A    between atoms: C_5  and  C_6
REMARK    5  A    between atoms: C_6  and  O_7
REMARK    6  A    between atoms: C_6  and  C_22
REMARK    7  A    between atoms: O_7  and  C_8
REMARK    8  A    between atoms: C_8  and  C_10
REMARK    9  A    between atoms: C_11  and  C_12
REMARK   10  A    between atoms: C_12  and  C_14
REMARK   11  A    between atoms: C_17  and  C_18
REMARK   12  A    between atoms: C_19  and  C_20
REMARK   13  A    between atoms: C_27  and  O_28
REMARK   14  A    between atoms: C_31  and  O_32
REMARK                            x       y       z     vdW  Elec       q    Type
REMARK                         _______ _______ _______ _____ _____    ______ ____
ROOT
ATOM      1  C   UNL     1       3.730   6.827  18.716  0.00  0.00    +0.000 C 
ENDROOT
BRANCH   1   2
ATOM      2  C   UNL     1       3.736   5.535  19.523  0.00  0.00    +0.000 C 
ATOM      3  C   UNL     1       4.753   4.687  19.251  0.00  0.00    +0.000 C 
ATOM      4  C   UNL     1       4.514   3.264  19.467  0.00  0.00    +0.000 C 
ATOM      5  O   UNL     1       5.387   2.420  19.534  0.00  0.00    +0.000 OA
ATOM      6  C   UNL     1       3.090   2.951  19.502  0.00  0.00    +0.000 A 
ATOM      7  C   UNL     1       2.303   2.773  18.364  0.00  0.00    +0.000 A 
ATOM      8  C   UNL     1       0.943   2.518  18.512  0.00  0.00    +0.000 A 
ATOM      9  C   UNL     1       0.419   2.463  19.799  0.00  0.00    +0.000 A 
ATOM     10  C   UNL     1       1.193   2.953  20.848  0.00  0.00    +0.000 A 
ATOM     11  C   UNL     1       2.457   3.494  20.592  0.00  0.00    +0.000 A 
ATOM     12  C   UNL     1       2.619   5.044  20.444  0.00  0.00    +0.000 C 
ATOM     13  O   UNL     1       1.863   5.827  20.997  0.00  0.00    +0.000 OA
BRANCH   7  14
ATOM     14  O   UNL     1       2.749   2.983  17.090  0.00  0.00    +0.000 OA
ATOM     15  H   UNL     1       3.300   3.785  17.062  0.00  0.00    +0.000 HD
ENDBRANCH   7  14
BRANCH  10  16
ATOM     16  O   UNL     1       0.867   2.583  22.125  0.00  0.00    +0.000 OA
ATOM     17  H   UNL     1       1.545   2.934  22.736  0.00  0.00    +0.000 HD
ENDBRANCH  10  16
ENDBRANCH   1   2
BRANCH   1  18
ATOM     18  C   UNL     1       4.799   7.051  17.604  0.00  0.00    +0.000 C 
BRANCH  18  22
ATOM     19  C   UNL     1       5.299   4.300  14.781  0.00  0.00    +0.000 C 
ATOM     20  C   UNL     1       5.629   5.311  15.860  0.00  0.00    +0.000 C 
ATOM     21  C   UNL     1       7.080   5.438  16.218  0.00  0.00    +0.000 C 
ATOM     22  C   UNL     1       4.654   6.027  16.465  0.00  0.00    +0.000 C 
ENDBRANCH  18  22
ENDBRANCH   1  18
BRANCH   1  23
ATOM     23  O   UNL     1       2.488   7.233  18.108  0.00  0.00    +0.000 OA
BRANCH  23  24
ATOM     24  C   UNL     1       2.001   8.486  18.075  0.00  0.00    +0.000 C 
ATOM     25  O   UNL     1       2.142   9.331  17.223  0.00  0.00    +0.000 OA
BRANCH  24  26
ATOM     26  C   UNL     1       1.393   8.628  19.424  0.00  0.00    +0.000 C 
ATOM     27  C   UNL     1       0.812   9.674  19.988  0.00  0.00    +0.000 C 
BRANCH  27  28
ATOM     28  C   UNL     1       0.453  10.963  19.322  0.00  0.00    +0.000 C 
ATOM     29  O   UNL     1       1.301  11.807  19.079  0.00  0.00    +0.000 OA
BRANCH  28  30
ATOM     30  C   UNL     1      -0.933  11.083  18.796  0.00  0.00    +0.000 A 
ATOM     31  C   UNL     1      -1.928  11.832  19.431  0.00  0.00    +0.000 A 
ATOM     32  C   UNL     1      -3.217  11.893  18.902  0.00  0.00    +0.000 A 
ATOM     33  C   UNL     1      -3.541  11.217  17.715  0.00  0.00    +0.000 A 
ATOM     34  C   UNL     1      -4.947  11.335  17.175  0.00  0.00    +0.000 C 
ATOM     35  C   UNL     1      -2.553  10.465  17.059  0.00  0.00    +0.000 A 
ATOM     36  C   UNL     1      -2.805   9.706  15.785  0.00  0.00    +0.000 C 
ATOM     37  C   UNL     1      -1.257  10.414  17.603  0.00  0.00    +0.000 A 
ENDBRANCH  28  30
ENDBRANCH  27  28
ENDBRANCH  24  26
ENDBRANCH  23  24
ENDBRANCH   1  23
TORSDOF 10
ENDMDL
MODEL 9
REMARK VINA RESULT:      -8.4      2.263      7.110
REMARK  Name = 
REMARK  14 active torsions:
REMARK  status: ('A' for Active; 'I' for Inactive)
REMARK    1  A    between atoms: C_1  and  C_2
REMARK    2  A    between atoms: C_2  and  C_3
REMARK    3  A    between atoms: C_4  and  C_5
REMARK    4  A    between atoms: C_5  and  C_6
REMARK    5  A    between atoms: C_6  and  O_7
REMARK    6  A    between atoms: C_6  and  C_22
REMARK    7  A    between atoms: O_7  and  C_8
REMARK    8  A    between atoms: C_8  and  C_10
REMARK    9  A    between atoms: C_11  and  C_12
REMARK   10  A    between atoms: C_12  and  C_14
REMARK   11  A    between atoms: C_17  and  C_18
REMARK   12  A    between atoms: C_19  and  C_20
REMARK   13  A    between atoms: C_27  and  O_28
REMARK   14  A    between atoms: C_31  and  O_32
REMARK                            x       y       z     vdW  Elec       q    Type
REMARK                         _______ _______ _______ _____ _____    ______ ____
ROOT
ATOM      1  C   UNL     1       3.760   6.307  18.070  0.00  0.00    +0.000 C 
ENDROOT
BRANCH   1   2
ATOM      2  C   UNL     1       3.819   4.786  18.075  0.00  0.00    +0.000 C 
ATOM      3  C   UNL     1       2.896   4.168  17.304  0.00  0.00    +0.000 C 
ATOM      4  C   UNL     1       2.472   2.832  17.707  0.00  0.00    +0.000 C 
ATOM      5  O   UNL     1       1.875   2.051  16.991  0.00  0.00    +0.000 OA
ATOM      6  C   UNL     1       2.767   2.569  19.111  0.00  0.00    +0.000 A 
ATOM      7  C   UNL     1       1.964   2.996  20.169  0.00  0.00    +0.000 A 
ATOM      8  C   UNL     1       2.362   2.726  21.475  0.00  0.00    +0.000 A 
ATOM      9  C   UNL     1       3.559   2.046  21.673  0.00  0.00    +0.000 A 
ATOM     10  C   UNL     1       4.438   1.933  20.598  0.00  0.00    +0.000 A 
ATOM     11  C   UNL     1       4.114   2.506  19.365  0.00  0.00    +0.000 A 
ATOM     12  C   UNL     1       4.677   3.921  18.998  0.00  0.00    +0.000 C 
ATOM     13  O   UNL     1       5.727   4.337  19.462  0.00  0.00    +0.000 OA
BRANCH   7  14
ATOM     14  O   UNL     1       0.874   3.805  20.018  0.00  0.00    +0.000 OA
ATOM     15  H   UNL     1       0.155   3.501  20.600  0.00  0.00    +0.000 HD
ENDBRANCH   7  14
BRANCH  10  16
ATOM     16  O   UNL     1       5.420   0.981  20.659  0.00  0.00    +0.000 OA
ATOM     17  H   UNL     1       6.266   1.385  20.382  0.00  0.00    +0.000 HD
ENDBRANCH  10  16
ENDBRANCH   1   2
BRANCH   1  18
ATOM     18  C   UNL     1       4.764   7.120  17.199  0.00  0.00    +0.000 C 
BRANCH  18  22
ATOM     19  C   UNL     1       6.388   4.863  14.361  0.00  0.00    +0.000 C 
ATOM     20  C   UNL     1       6.206   5.575  15.686  0.00  0.00    +0.000 C 
ATOM     21  C   UNL     1       7.267   5.323  16.716  0.00  0.00    +0.000 C 
ATOM     22  C   UNL     1       5.133   6.366  15.909  0.00  0.00    +0.000 C 
ENDBRANCH  18  22
ENDBRANCH   1  18
BRANCH   1  23
ATOM     23  O   UNL     1       2.483   6.928  17.821  0.00  0.00    +0.000 OA
BRANCH  23  24
ATOM     24  C   UNL     1       2.210   8.241  17.939  0.00  0.00    +0.000 C 
ATOM     25  O   UNL     1       2.486   9.142  17.183  0.00  0.00    +0.000 OA
BRANCH  24  26
ATOM     26  C   UNL     1       1.639   8.326  19.309  0.00  0.00    +0.000 C 
ATOM     27  C   UNL     1       1.062   9.343  19.926  0.00  0.00    +0.000 C 
BRANCH  27  28
ATOM     28  C   UNL     1       0.668  10.650  19.318  0.00  0.00    +0.000 C 
ATOM     29  O   UNL     1       1.492  11.526  19.111  0.00  0.00    +0.000 OA
BRANCH  28  30
ATOM     30  C   UNL     1      -0.721  10.756  18.797  0.00  0.00    +0.000 A 
ATOM     31  C   UNL     1      -1.162  10.082  17.654  0.00  0.00    +0.000 A 
ATOM     32  C   UNL     1      -2.472  10.235  17.200  0.00  0.00    +0.000 A 
ATOM     33  C   UNL     1      -3.380  11.057  17.886  0.00  0.00    +0.000 A 
ATOM     34  C   UNL     1      -4.793  11.169  17.363  0.00  0.00    +0.000 C 
ATOM     35  C   UNL     1      -2.958  11.737  19.040  0.00  0.00    +0.000 A 
ATOM     36  C   UNL     1      -3.857  12.639  19.840  0.00  0.00    +0.000 C 
ATOM     37  C   UNL     1      -1.634  11.571  19.487  0.00  0.00    +0.000 A 
ENDBRANCH  28  30
ENDBRANCH  27  28
ENDBRANCH  24  26
ENDBRANCH  23  24
ENDBRANCH   1  23
TORSDOF 10
ENDMDL
