MODEL 1
REMARK VINA RESULT:      -7.0      0.000      0.000
REMARK  Name = 
REMARK  3 active torsions:
REMARK  status: ('A' for Active; 'I' for Inactive)
REMARK    1  A    between atoms: C_1  and  C_2
REMARK    2  A    between atoms: C_10  and  N_11
REMARK    3  A    between atoms: C_12  and  C_14
REMARK                            x       y       z     vdW  Elec       q    Type
REMARK                         _______ _______ _______ _____ _____    ______ ____
ROOT
ATOM      1  C   UNL     1      -7.220  12.895  18.773  0.00  0.00    +0.000 C 
ATOM      2  C   UNL     1      -6.088  11.931  18.523  0.00  0.00    +0.000 C 
ATOM      3  O   UNL     1      -6.313  10.775  18.184  0.00  0.00    +0.000 OA
ATOM      4  N   UNL     1      -4.861  12.515  18.734  0.00  0.00    +0.000 N 
ATOM      5  C   UNL     1      -3.637  11.912  18.586  0.00  0.00    +0.000 A 
ATOM      6  N   UNL     1      -2.561  12.453  19.098  0.00  0.00    +0.000 NA
ATOM      7  C   UNL     1      -1.475  11.626  18.871  0.00  0.00    +0.000 A 
ATOM      8  C   UNL     1      -0.171  11.827  19.350  0.00  0.00    +0.000 A 
ATOM      9  C   UNL     1       0.835  10.896  19.058  0.00  0.00    +0.000 A 
ATOM     10  C   UNL     1       0.571   9.769  18.281  0.00  0.00    +0.000 A 
ATOM     11  C   UNL     1      -0.726   9.561  17.782  0.00  0.00    +0.000 A 
ATOM     12  C   UNL     1      -1.734  10.491  18.103  0.00  0.00    +0.000 A 
ATOM     13  S   UNL     1      -3.408  10.480  17.695  0.00  0.00    +0.000 S 
ATOM     14  H   UNL     1      -4.808  13.408  19.203  0.00  0.00    +0.000 HD
ENDROOT
BRANCH  10  15
ATOM     15  N   UNL     1       1.543   8.790  17.972  0.00  0.00    +0.000 N 
ATOM     16  C   UNL     1       2.132   7.880  18.831  0.00  0.00    +0.000 C 
ATOM     17  O   UNL     1       1.933   7.808  20.036  0.00  0.00    +0.000 OA
ATOM     18  H   UNL     1       1.807   8.729  17.000  0.00  0.00    +0.000 HD
BRANCH  16  19
ATOM     19  C   UNL     1       3.036   6.941  18.190  0.00  0.00    +0.000 A 
ATOM     20  C   UNL     1       4.104   7.103  17.318  0.00  0.00    +0.000 A 
ATOM     21  C   UNL     1       4.581   5.817  16.980  0.00  0.00    +0.000 A 
ATOM     22 BR   UNL     1       6.003   5.536  15.789  0.00  0.00    +0.000 Br
ATOM     23  C   UNL     1       3.824   4.897  17.652  0.00  0.00    +0.000 A 
ATOM     24 BR   UNL     1       3.967   3.041  17.593  0.00  0.00    +0.000 Br
ATOM     25  N   UNL     1       2.908   5.578  18.398  0.00  0.00    +0.000 N 
ATOM     26  H   UNL     1       2.207   5.163  19.003  0.00  0.00    +0.000 HD
ENDBRANCH  16  19
ENDBRANCH  10  15
TORSDOF 2
ENDMDL
MODEL 2
REMARK VINA RESULT:      -6.9      4.301      5.630
REMARK  Name = 
REMARK  3 active torsions:
REMARK  status: ('A' for Active; 'I' for Inactive)
REMARK    1  A    between atoms: C_1  and  C_2
REMARK    2  A    between atoms: C_10  and  N_11
REMARK    3  A    between atoms: C_12  and  C_14
REMARK                            x       y       z     vdW  Elec       q    Type
REMARK                         _______ _______ _______ _____ _____    ______ ____
ROOT
ATOM      1  C   UNL     1      -1.416  10.973  23.103  0.00  0.00    +0.000 C 
ATOM      2  C   UNL     1      -0.624  10.484  21.916  0.00  0.00    +0.000 C 
ATOM      3  O   UNL     1      -0.556  11.151  20.891  0.00  0.00    +0.000 OA
ATOM      4  N   UNL     1      -0.048   9.258  22.154  0.00  0.00    +0.000 N 
ATOM      5  C   UNL     1       0.739   8.547  21.283  0.00  0.00    +0.000 A 
ATOM      6  N   UNL     1       0.980   7.276  21.488  0.00  0.00    +0.000 NA
ATOM      7  C   UNL     1       1.736   6.776  20.442  0.00  0.00    +0.000 A 
ATOM      8  C   UNL     1       2.114   5.435  20.266  0.00  0.00    +0.000 A 
ATOM      9  C   UNL     1       2.869   5.060  19.147  0.00  0.00    +0.000 A 
ATOM     10  C   UNL     1       3.272   6.002  18.201  0.00  0.00    +0.000 A 
ATOM     11  C   UNL     1       2.915   7.350  18.371  0.00  0.00    +0.000 A 
ATOM     12  C   UNL     1       2.134   7.711  19.487  0.00  0.00    +0.000 A 
ATOM     13  S   UNL     1       1.499   9.249  19.932  0.00  0.00    +0.000 S 
ATOM     14  H   UNL     1      -0.338   8.718  22.957  0.00  0.00    +0.000 HD
ENDROOT
BRANCH  10  15
ATOM     15  N   UNL     1       4.019   5.676  17.046  0.00  0.00    +0.000 N 
ATOM     16  C   UNL     1       5.323   5.220  16.980  0.00  0.00    +0.000 C 
ATOM     17  O   UNL     1       6.071   5.067  17.936  0.00  0.00    +0.000 OA
ATOM     18  H   UNL     1       3.524   5.753  16.170  0.00  0.00    +0.000 HD
BRANCH  16  19
ATOM     19  C   UNL     1       5.782   4.890  15.642  0.00  0.00    +0.000 A 
ATOM     20  C   UNL     1       5.402   3.917  14.728  0.00  0.00    +0.000 A 
ATOM     21  C   UNL     1       6.243   4.038  13.598  0.00  0.00    +0.000 A 
ATOM     22 BR   UNL     1       6.125   2.901  12.111  0.00  0.00    +0.000 Br
ATOM     23  C   UNL     1       7.101   5.079  13.823  0.00  0.00    +0.000 A 
ATOM     24 BR   UNL     1       8.450   5.705  12.702  0.00  0.00    +0.000 Br
ATOM     25  N   UNL     1       6.806   5.604  15.046  0.00  0.00    +0.000 N 
ATOM     26  H   UNL     1       7.277   6.389  15.484  0.00  0.00    +0.000 HD
ENDBRANCH  16  19
ENDBRANCH  10  15
TORSDOF 2
ENDMDL
MODEL 3
REMARK VINA RESULT:      -6.9      5.771      9.466
REMARK  Name = 
REMARK  3 active torsions:
REMARK  status: ('A' for Active; 'I' for Inactive)
REMARK    1  A    between atoms: C_1  and  C_2
REMARK    2  A    between atoms: C_10  and  N_11
REMARK    3  A    between atoms: C_12  and  C_14
REMARK                            x       y       z     vdW  Elec       q    Type
REMARK                         _______ _______ _______ _____ _____    ______ ____
ROOT
ATOM      1  C   UNL     1       6.775   4.395  15.700  0.00  0.00    +0.000 C 
ATOM      2  C   UNL     1       5.933   5.485  16.314  0.00  0.00    +0.000 C 
ATOM      3  O   UNL     1       6.124   6.661  16.028  0.00  0.00    +0.000 OA
ATOM      4  N   UNL     1       4.999   4.981  17.189  0.00  0.00    +0.000 N 
ATOM      5  C   UNL     1       4.079   5.706  17.902  0.00  0.00    +0.000 A 
ATOM      6  N   UNL     1       3.451   5.170  18.919  0.00  0.00    +0.000 NA
ATOM      7  C   UNL     1       2.632   6.119  19.507  0.00  0.00    +0.000 A 
ATOM      8  C   UNL     1       1.873   5.941  20.675  0.00  0.00    +0.000 A 
ATOM      9  C   UNL     1       1.098   6.996  21.175  0.00  0.00    +0.000 A 
ATOM     10  C   UNL     1       1.049   8.227  20.522  0.00  0.00    +0.000 A 
ATOM     11  C   UNL     1       1.791   8.415  19.344  0.00  0.00    +0.000 A 
ATOM     12  C   UNL     1       2.587   7.356  18.866  0.00  0.00    +0.000 A 
ATOM     13  S   UNL     1       3.638   7.300  17.502  0.00  0.00    +0.000 S 
ATOM     14  H   UNL     1       5.070   4.021  17.494  0.00  0.00    +0.000 HD
ENDROOT
BRANCH  10  15
ATOM     15  N   UNL     1       0.298   9.329  20.991  0.00  0.00    +0.000 N 
ATOM     16  C   UNL     1       0.393   9.958  22.219  0.00  0.00    +0.000 C 
ATOM     17  O   UNL     1       1.131   9.621  23.135  0.00  0.00    +0.000 OA
ATOM     18  H   UNL     1      -0.359   9.722  20.333  0.00  0.00    +0.000 HD
BRANCH  16  19
ATOM     19  C   UNL     1      -0.460  11.124  22.369  0.00  0.00    +0.000 A 
ATOM     20  C   UNL     1      -0.371  12.426  21.895  0.00  0.00    +0.000 A 
ATOM     21  C   UNL     1      -1.473  13.146  22.409  0.00  0.00    +0.000 A 
ATOM     22 BR   UNL     1      -1.752  14.968  22.065  0.00  0.00    +0.000 Br
ATOM     23  C   UNL     1      -2.222  12.286  23.165  0.00  0.00    +0.000 A 
ATOM     24 BR   UNL     1      -3.781  12.662  24.111  0.00  0.00    +0.000 Br
ATOM     25  N   UNL     1      -1.620  11.063  23.121  0.00  0.00    +0.000 N 
ATOM     26  H   UNL     1      -1.947  10.223  23.588  0.00  0.00    +0.000 HD
ENDBRANCH  16  19
ENDBRANCH  10  15
TORSDOF 2
ENDMDL
MODEL 4
REMARK VINA RESULT:      -6.9      5.511      9.282
REMARK  Name = 
REMARK  3 active torsions:
REMARK  status: ('A' for Active; 'I' for Inactive)
REMARK    1  A    between atoms: C_1  and  C_2
REMARK    2  A    between atoms: C_10  and  N_11
REMARK    3  A    between atoms: C_12  and  C_14
REMARK                            x       y       z     vdW  Elec       q    Type
REMARK                         _______ _______ _______ _____ _____    ______ ____
ROOT
ATOM      1  C   UNL     1       3.668   1.640  18.434  0.00  0.00    +0.000 C 
ATOM      2  C   UNL     1       2.997   2.798  19.128  0.00  0.00    +0.000 C 
ATOM      3  O   UNL     1       2.292   2.615  20.113  0.00  0.00    +0.000 OA
ATOM      4  N   UNL     1       3.275   3.996  18.512  0.00  0.00    +0.000 N 
ATOM      5  C   UNL     1       2.826   5.233  18.900  0.00  0.00    +0.000 A 
ATOM      6  N   UNL     1       2.896   6.254  18.083  0.00  0.00    +0.000 NA
ATOM      7  C   UNL     1       2.322   7.363  18.681  0.00  0.00    +0.000 A 
ATOM      8  C   UNL     1       2.131   8.617  18.078  0.00  0.00    +0.000 A 
ATOM      9  C   UNL     1       1.517   9.653  18.795  0.00  0.00    +0.000 A 
ATOM     10  C   UNL     1       1.101   9.470  20.113  0.00  0.00    +0.000 A 
ATOM     11  C   UNL     1       1.299   8.225  20.735  0.00  0.00    +0.000 A 
ATOM     12  C   UNL     1       1.894   7.184  19.996  0.00  0.00    +0.000 A 
ATOM     13  S   UNL     1       2.213   5.554  20.455  0.00  0.00    +0.000 S 
ATOM     14  H   UNL     1       3.701   3.999  17.596  0.00  0.00    +0.000 HD
ENDROOT
BRANCH  10  15
ATOM     15  N   UNL     1       0.462  10.474  20.875  0.00  0.00    +0.000 N 
ATOM     16  C   UNL     1      -0.745  11.098  20.613  0.00  0.00    +0.000 C 
ATOM     17  O   UNL     1      -1.446  10.905  19.629  0.00  0.00    +0.000 OA
ATOM     18  H   UNL     1       0.929  10.737  21.730  0.00  0.00    +0.000 HD
BRANCH  16  19
ATOM     19  C   UNL     1      -1.178  12.031  21.638  0.00  0.00    +0.000 A 
ATOM     20  C   UNL     1      -0.592  13.158  22.198  0.00  0.00    +0.000 A 
ATOM     21  C   UNL     1      -1.462  13.642  23.201  0.00  0.00    +0.000 A 
ATOM     22 BR   UNL     1      -1.067  15.137  24.261  0.00  0.00    +0.000 Br
ATOM     23  C   UNL     1      -2.562  12.829  23.231  0.00  0.00    +0.000 A 
ATOM     24 BR   UNL     1      -4.039  12.953  24.358  0.00  0.00    +0.000 Br
ATOM     25  N   UNL     1      -2.398  11.872  22.273  0.00  0.00    +0.000 N 
ATOM     26  H   UNL     1      -3.053  11.127  22.060  0.00  0.00    +0.000 HD
ENDBRANCH  16  19
ENDBRANCH  10  15
TORSDOF 2
ENDMDL
MODEL 5
REMARK VINA RESULT:      -6.9      5.925      9.483
REMARK  Name = 
REMARK  3 active torsions:
REMARK  status: ('A' for Active; 'I' for Inactive)
REMARK    1  A    between atoms: C_1  and  C_2
REMARK    2  A    between atoms: C_10  and  N_11
REMARK    3  A    between atoms: C_12  and  C_14
REMARK                            x       y       z     vdW  Elec       q    Type
REMARK                         _______ _______ _______ _____ _____    ______ ____
ROOT
ATOM      1  C   UNL     1       3.902   1.654  18.413  0.00  0.00    +0.000 C 
ATOM      2  C   UNL     1       3.130   2.726  19.142  0.00  0.00    +0.000 C 
ATOM      3  O   UNL     1       2.389   2.440  20.075  0.00  0.00    +0.000 OA
ATOM      4  N   UNL     1       3.366   3.975  18.617  0.00  0.00    +0.000 N 
ATOM      5  C   UNL     1       2.825   5.157  19.056  0.00  0.00    +0.000 A 
ATOM      6  N   UNL     1       2.875   6.232  18.309  0.00  0.00    +0.000 NA
ATOM      7  C   UNL     1       2.207   7.265  18.943  0.00  0.00    +0.000 A 
ATOM      8  C   UNL     1       1.972   8.543  18.410  0.00  0.00    +0.000 A 
ATOM      9  C   UNL     1       1.263   9.494  19.156  0.00  0.00    +0.000 A 
ATOM     10  C   UNL     1       0.795   9.203  20.437  0.00  0.00    +0.000 A 
ATOM     11  C   UNL     1       1.036   7.934  20.990  0.00  0.00    +0.000 A 
ATOM     12  C   UNL     1       1.727   6.977  20.220  0.00  0.00    +0.000 A 
ATOM     13  S   UNL     1       2.119   5.342  20.593  0.00  0.00    +0.000 S 
ATOM     14  H   UNL     1       3.835   4.061  17.726  0.00  0.00    +0.000 HD
ENDROOT
BRANCH  10  15
ATOM     15  N   UNL     1       0.060  10.118  21.225  0.00  0.00    +0.000 N 
ATOM     16  C   UNL     1       0.389  11.425  21.534  0.00  0.00    +0.000 C 
ATOM     17  O   UNL     1       1.418  11.997  21.201  0.00  0.00    +0.000 OA
ATOM     18  H   UNL     1      -0.826   9.782  21.572  0.00  0.00    +0.000 HD
BRANCH  16  19
ATOM     19  C   UNL     1      -0.619  12.138  22.298  0.00  0.00    +0.000 A 
ATOM     20  C   UNL     1      -1.864  11.772  22.791  0.00  0.00    +0.000 A 
ATOM     21  C   UNL     1      -2.428  12.906  23.419  0.00  0.00    +0.000 A 
ATOM     22 BR   UNL     1      -4.132  12.898  24.202  0.00  0.00    +0.000 Br
ATOM     23  C   UNL     1      -1.527  13.932  23.322  0.00  0.00    +0.000 A 
ATOM     24 BR   UNL     1      -1.716  15.676  23.946  0.00  0.00    +0.000 Br
ATOM     25  N   UNL     1      -0.429  13.459  22.665  0.00  0.00    +0.000 N 
ATOM     26  H   UNL     1       0.405  13.993  22.444  0.00  0.00    +0.000 HD
ENDBRANCH  16  19
ENDBRANCH  10  15
TORSDOF 2
ENDMDL
MODEL 6
REMARK VINA RESULT:      -6.8      5.719      9.418
REMARK  Name = 
REMARK  3 active torsions:
REMARK  status: ('A' for Active; 'I' for Inactive)
REMARK    1  A    between atoms: C_1  and  C_2
REMARK    2  A    between atoms: C_10  and  N_11
REMARK    3  A    between atoms: C_12  and  C_14
REMARK                            x       y       z     vdW  Elec       q    Type
REMARK                         _______ _______ _______ _____ _____    ______ ____
ROOT
ATOM      1  C   UNL     1       4.878   3.937  16.875  0.00  0.00    +0.000 C 
ATOM      2  C   UNL     1       3.966   4.714  17.791  0.00  0.00    +0.000 C 
ATOM      3  O   UNL     1       3.402   4.163  18.729  0.00  0.00    +0.000 OA
ATOM      4  N   UNL     1       3.871   6.035  17.420  0.00  0.00    +0.000 N 
ATOM      5  C   UNL     1       3.131   7.005  18.049  0.00  0.00    +0.000 A 
ATOM      6  N   UNL     1       2.870   8.139  17.448  0.00  0.00    +0.000 NA
ATOM      7  C   UNL     1       2.059   8.914  18.259  0.00  0.00    +0.000 A 
ATOM      8  C   UNL     1       1.498  10.156  17.917  0.00  0.00    +0.000 A 
ATOM      9  C   UNL     1       0.676  10.829  18.831  0.00  0.00    +0.000 A 
ATOM     10  C   UNL     1       0.412  10.296  20.092  0.00  0.00    +0.000 A 
ATOM     11  C   UNL     1       0.977   9.062  20.454  0.00  0.00    +0.000 A 
ATOM     12  C   UNL     1       1.782   8.382  19.517  0.00  0.00    +0.000 A 
ATOM     13  S   UNL     1       2.557   6.848  19.643  0.00  0.00    +0.000 S 
ATOM     14  H   UNL     1       4.220   6.326  16.518  0.00  0.00    +0.000 HD
ENDROOT
BRANCH  10  15
ATOM     15  N   UNL     1      -0.424  10.923  21.044  0.00  0.00    +0.000 N 
ATOM     16  C   UNL     1      -0.191  12.101  21.730  0.00  0.00    +0.000 C 
ATOM     17  O   UNL     1       0.823  12.781  21.651  0.00  0.00    +0.000 OA
ATOM     18  H   UNL     1      -1.310  10.471  21.212  0.00  0.00    +0.000 HD
BRANCH  16  19
ATOM     19  C   UNL     1      -1.286  12.532  22.581  0.00  0.00    +0.000 A 
ATOM     20  C   UNL     1      -2.574  12.054  22.776  0.00  0.00    +0.000 A 
ATOM     21  C   UNL     1      -3.216  12.913  23.697  0.00  0.00    +0.000 A 
ATOM     22 BR   UNL     1      -4.997  12.682  24.238  0.00  0.00    +0.000 Br
ATOM     23  C   UNL     1      -2.321  13.881  24.064  0.00  0.00    +0.000 A 
ATOM     24 BR   UNL     1      -2.596  15.302  25.235  0.00  0.00    +0.000 Br
ATOM     25  N   UNL     1      -1.152  13.636  23.406  0.00  0.00    +0.000 N 
ATOM     26  H   UNL     1      -0.303  14.188  23.478  0.00  0.00    +0.000 HD
ENDBRANCH  16  19
ENDBRANCH  10  15
TORSDOF 2
ENDMDL
MODEL 7
REMARK VINA RESULT:      -6.7      5.532      9.477
REMARK  Name = 
REMARK  3 active torsions:
REMARK  status: ('A' for Active; 'I' for Inactive)
REMARK    1  A    between atoms: C_1  and  C_2
REMARK    2  A    between atoms: C_10  and  N_11
REMARK    3  A    between atoms: C_12  and  C_14
REMARK                            x       y       z     vdW  Elec       q    Type
REMARK                         _______ _______ _______ _____ _____    ______ ____
ROOT
ATOM      1  C   UNL     1       6.759   4.310  15.534  0.00  0.00    +0.000 C 
ATOM      2  C   UNL     1       5.925   5.406  16.149  0.00  0.00    +0.000 C 
ATOM      3  O   UNL     1       6.110   6.579  15.846  0.00  0.00    +0.000 OA
ATOM      4  N   UNL     1       5.006   4.910  17.044  0.00  0.00    +0.000 N 
ATOM      5  C   UNL     1       4.096   5.642  17.764  0.00  0.00    +0.000 A 
ATOM      6  N   UNL     1       3.486   5.118  18.797  0.00  0.00    +0.000 NA
ATOM      7  C   UNL     1       2.676   6.071  19.388  0.00  0.00    +0.000 A 
ATOM      8  C   UNL     1       1.936   5.906  20.570  0.00  0.00    +0.000 A 
ATOM      9  C   UNL     1       1.167   6.966  21.070  0.00  0.00    +0.000 A 
ATOM     10  C   UNL     1       1.106   8.189  20.404  0.00  0.00    +0.000 A 
ATOM     11  C   UNL     1       1.829   8.365  19.212  0.00  0.00    +0.000 A 
ATOM     12  C   UNL     1       2.618   7.301  18.733  0.00  0.00    +0.000 A 
ATOM     13  S   UNL     1       3.647   7.231  17.352  0.00  0.00    +0.000 S 
ATOM     14  H   UNL     1       5.083   3.954  17.359  0.00  0.00    +0.000 HD
ENDROOT
BRANCH  10  15
ATOM     15  N   UNL     1       0.361   9.296  20.872  0.00  0.00    +0.000 N 
ATOM     16  C   UNL     1       0.435   9.903  22.113  0.00  0.00    +0.000 C 
ATOM     17  O   UNL     1       1.145   9.540  23.041  0.00  0.00    +0.000 OA
ATOM     18  H   UNL     1      -0.273   9.709  20.205  0.00  0.00    +0.000 HD
BRANCH  16  19
ATOM     19  C   UNL     1      -0.402  11.080  22.261  0.00  0.00    +0.000 A 
ATOM     20  C   UNL     1      -1.433  11.402  23.134  0.00  0.00    +0.000 A 
ATOM     21  C   UNL     1      -1.920  12.678  22.771  0.00  0.00    +0.000 A 
ATOM     22 BR   UNL     1      -3.350  13.513  23.652  0.00  0.00    +0.000 Br
ATOM     23  C   UNL     1      -1.182  13.124  21.709  0.00  0.00    +0.000 A 
ATOM     24 BR   UNL     1      -1.370  14.729  20.785  0.00  0.00    +0.000 Br
ATOM     25  N   UNL     1      -0.254  12.168  21.418  0.00  0.00    +0.000 N 
ATOM     26  H   UNL     1       0.437  12.218  20.677  0.00  0.00    +0.000 HD
ENDBRANCH  16  19
ENDBRANCH  10  15
TORSDOF 2
ENDMDL
MODEL 8
REMARK VINA RESULT:      -6.6      3.262      4.104
REMARK  Name = 
REMARK  3 active torsions:
REMARK  status: ('A' for Active; 'I' for Inactive)
REMARK    1  A    between atoms: C_1  and  C_2
REMARK    2  A    between atoms: C_10  and  N_11
REMARK    3  A    between atoms: C_12  and  C_14
REMARK                            x       y       z     vdW  Elec       q    Type
REMARK                         _______ _______ _______ _____ _____    ______ ____
ROOT
ATOM      1  C   UNL     1      -0.150  18.346  18.594  0.00  0.00    +0.000 C 
ATOM      2  C   UNL     1       0.559  17.040  18.334  0.00  0.00    +0.000 C 
ATOM      3  O   UNL     1       1.642  17.019  17.762  0.00  0.00    +0.000 OA
ATOM      4  N   UNL     1      -0.162  15.964  18.796  0.00  0.00    +0.000 N 
ATOM      5  C   UNL     1       0.208  14.645  18.720  0.00  0.00    +0.000 A 
ATOM      6  N   UNL     1      -0.672  13.694  18.909  0.00  0.00    +0.000 NA
ATOM      7  C   UNL     1      -0.070  12.463  18.715  0.00  0.00    +0.000 A 
ATOM      8  C   UNL     1      -0.715  11.216  18.742  0.00  0.00    +0.000 A 
ATOM      9  C   UNL     1       0.015  10.043  18.510  0.00  0.00    +0.000 A 
ATOM     10  C   UNL     1       1.387  10.084  18.266  0.00  0.00    +0.000 A 
ATOM     11  C   UNL     1       2.050  11.323  18.251  0.00  0.00    +0.000 A 
ATOM     12  C   UNL     1       1.301  12.498  18.460  0.00  0.00    +0.000 A 
ATOM     13  S   UNL     1       1.810  14.143  18.443  0.00  0.00    +0.000 S 
ATOM     14  H   UNL     1      -1.127  16.090  19.066  0.00  0.00    +0.000 HD
ENDROOT
BRANCH  10  15
ATOM     15  N   UNL     1       2.168   8.935  18.009  0.00  0.00    +0.000 N 
ATOM     16  C   UNL     1       2.352   7.835  18.826  0.00  0.00    +0.000 C 
ATOM     17  O   UNL     1       1.890   7.700  19.951  0.00  0.00    +0.000 OA
ATOM     18  H   UNL     1       2.614   8.904  17.104  0.00  0.00    +0.000 HD
BRANCH  16  19
ATOM     19  C   UNL     1       3.147   6.771  18.239  0.00  0.00    +0.000 A 
ATOM     20  C   UNL     1       4.264   6.772  17.414  0.00  0.00    +0.000 A 
ATOM     21  C   UNL     1       4.578   5.427  17.114  0.00  0.00    +0.000 A 
ATOM     22 BR   UNL     1       5.998   4.936  15.993  0.00  0.00    +0.000 Br
ATOM     23  C   UNL     1       3.676   4.630  17.764  0.00  0.00    +0.000 A 
ATOM     24 BR   UNL     1       3.571   2.771  17.736  0.00  0.00    +0.000 Br
ATOM     25  N   UNL     1       2.828   5.442  18.459  0.00  0.00    +0.000 N 
ATOM     26  H   UNL     1       2.053   5.135  19.037  0.00  0.00    +0.000 HD
ENDBRANCH  16  19
ENDBRANCH  10  15
TORSDOF 2
ENDMDL
MODEL 9
REMARK VINA RESULT:      -6.6      1.623      1.653
REMARK  Name = 
REMARK  3 active torsions:
REMARK  status: ('A' for Active; 'I' for Inactive)
REMARK    1  A    between atoms: C_1  and  C_2
REMARK    2  A    between atoms: C_10  and  N_11
REMARK    3  A    between atoms: C_12  and  C_14
REMARK                            x       y       z     vdW  Elec       q    Type
REMARK                         _______ _______ _______ _____ _____    ______ ____
ROOT
ATOM      1  C   UNL     1      -6.290  14.589  20.014  0.00  0.00    +0.000 C 
ATOM      2  C   UNL     1      -5.346  13.486  19.604  0.00  0.00    +0.000 C 
ATOM      3  O   UNL     1      -5.688  12.641  18.785  0.00  0.00    +0.000 OA
ATOM      4  N   UNL     1      -4.140  13.572  20.260  0.00  0.00    +0.000 N 
ATOM      5  C   UNL     1      -3.069  12.728  20.106  0.00  0.00    +0.000 A 
ATOM      6  N   UNL     1      -2.099  12.715  20.985  0.00  0.00    +0.000 NA
ATOM      7  C   UNL     1      -1.179  11.740  20.642  0.00  0.00    +0.000 A 
ATOM      8  C   UNL     1      -0.053  11.369  21.394  0.00  0.00    +0.000 A 
ATOM      9  C   UNL     1       0.790  10.347  20.937  0.00  0.00    +0.000 A 
ATOM     10  C   UNL     1       0.542   9.693  19.731  0.00  0.00    +0.000 A 
ATOM     11  C   UNL     1      -0.573  10.063  18.960  0.00  0.00    +0.000 A 
ATOM     12  C   UNL     1      -1.427  11.074  19.443  0.00  0.00    +0.000 A 
ATOM     13  S   UNL     1      -2.883  11.698  18.764  0.00  0.00    +0.000 S 
ATOM     14  H   UNL     1      -4.049  14.187  21.056  0.00  0.00    +0.000 HD
ENDROOT
BRANCH  10  15
ATOM     15  N   UNL     1       1.349   8.645  19.232  0.00  0.00    +0.000 N 
ATOM     16  C   UNL     1       2.145   8.653  18.101  0.00  0.00    +0.000 C 
ATOM     17  O   UNL     1       2.244   9.579  17.308  0.00  0.00    +0.000 OA
ATOM     18  H   UNL     1       1.370   7.806  19.792  0.00  0.00    +0.000 HD
BRANCH  16  19
ATOM     19  C   UNL     1       2.925   7.444  17.901  0.00  0.00    +0.000 A 
ATOM     20  C   UNL     1       4.197   7.214  17.396  0.00  0.00    +0.000 A 
ATOM     21  C   UNL     1       4.411   5.817  17.391  0.00  0.00    +0.000 A 
ATOM     22 BR   UNL     1       5.988   5.028  16.753  0.00  0.00    +0.000 Br
ATOM     23  C   UNL     1       3.292   5.219  17.903  0.00  0.00    +0.000 A 
ATOM     24 BR   UNL     1       2.977   3.398  18.129  0.00  0.00    +0.000 Br
ATOM     25  N   UNL     1       2.407   6.203  18.230  0.00  0.00    +0.000 N 
ATOM     26  H   UNL     1       1.486   6.064  18.632  0.00  0.00    +0.000 HD
ENDBRANCH  16  19
ENDBRANCH  10  15
TORSDOF 2
ENDMDL
