MODEL 1
REMARK VINA RESULT:      -8.4      0.000      0.000
REMARK  Name = 
REMARK  12 active torsions:
REMARK  status: ('A' for Active; 'I' for Inactive)
REMARK    1  A    between atoms: C_1  and  C_2
REMARK    2  A    between atoms: C_2  and  O_3
REMARK    3  A    between atoms: O_3  and  C_4
REMARK    4  A    between atoms: C_6  and  N_7
REMARK    5  A    between atoms: C_13  and  O_14
REMARK    6  A    between atoms: O_14  and  C_15
REMARK    7  A    between atoms: C_15  and  C_16
REMARK    8  A    between atoms: C_18  and  N_19
REMARK    9  A    between atoms: C_20  and  C_22
REMARK   10  A    between atoms: C_25  and  C_26
REMARK   11  A    between atoms: C_27  and  N_28
REMARK   12  A    between atoms: C_29  and  C_31
REMARK                            x       y       z     vdW  Elec       q    Type
REMARK                         _______ _______ _______ _____ _____    ______ ____
ROOT
ATOM      1  N   UNL     1       0.965   9.033  19.523  0.00  0.00    +0.000 N 
ATOM      2  C   UNL     1       1.837   8.809  18.469  0.00  0.00    +0.000 C 
ATOM      3  O   UNL     1       2.064   9.562  17.531  0.00  0.00    +0.000 OA
ATOM      4  H   UNL     1       0.979   8.373  20.280  0.00  0.00    +0.000 HD
ENDROOT
BRANCH   2   5
ATOM      5  C   UNL     1       2.596   7.527  18.532  0.00  0.00    +0.000 A 
ATOM      6  C   UNL     1       2.555   6.712  19.663  0.00  0.00    +0.000 A 
ATOM      7  C   UNL     1       3.184   5.472  19.635  0.00  0.00    +0.000 A 
ATOM      8  C   UNL     1       3.838   5.022  18.477  0.00  0.00    +0.000 A 
ATOM      9  C   UNL     1       4.459   3.653  18.490  0.00  0.00    +0.000 C 
ATOM     10  C   UNL     1       3.927   5.871  17.359  0.00  0.00    +0.000 A 
ATOM     11  C   UNL     1       3.301   7.119  17.388  0.00  0.00    +0.000 A 
BRANCH  10  12
ATOM     12  N   UNL     1       4.585   5.440  16.194  0.00  0.00    +0.000 N 
ATOM     13  C   UNL     1       5.882   5.804  15.860  0.00  0.00    +0.000 C 
ATOM     14  O   UNL     1       6.578   6.566  16.527  0.00  0.00    +0.000 OA
ATOM     15  H   UNL     1       4.259   4.594  15.739  0.00  0.00    +0.000 HD
BRANCH  13  16
ATOM     16  C   UNL     1       6.374   5.117  14.675  0.00  0.00    +0.000 A 
ATOM     17  C   UNL     1       5.878   4.040  13.960  0.00  0.00    +0.000 A 
ATOM     18  C   UNL     1       6.787   3.799  12.900  0.00  0.00    +0.000 A 
ATOM     19  C   UNL     1       7.777   4.744  13.023  0.00  0.00    +0.000 A 
ATOM     20  O   UNL     1       7.534   5.555  14.084  0.00  0.00    +0.000 OA
ENDBRANCH  13  16
ENDBRANCH  10  12
ENDBRANCH   2   5
BRANCH   1  26
ATOM     21  C   UNL     1       0.095  10.919  20.851  0.00  0.00    +0.000 A 
ATOM     22  C   UNL     1      -0.900  11.906  21.013  0.00  0.00    +0.000 A 
ATOM     23  C   UNL     1      -1.891  12.171  20.045  0.00  0.00    +0.000 A 
ATOM     24  C   UNL     1      -1.799  11.444  18.841  0.00  0.00    +0.000 A 
ATOM     25  C   UNL     1      -0.838  10.441  18.691  0.00  0.00    +0.000 A 
ATOM     26  C   UNL     1       0.100  10.147  19.679  0.00  0.00    +0.000 A 
BRANCH  23  27
ATOM     27  N   UNL     1      -2.912  13.064  20.329  0.00  0.00    +0.000 N 
ATOM     28  C   UNL     1      -2.664  14.467  20.708  0.00  0.00    +0.000 C 
ATOM     29  C   UNL     1      -3.182  14.733  22.128  0.00  0.00    +0.000 C 
ATOM     30  O   UNL     1      -4.575  14.385  22.246  0.00  0.00    +0.000 OA
ATOM     31  C   UNL     1      -4.757  12.988  21.953  0.00  0.00    +0.000 C 
ATOM     32  C   UNL     1      -4.300  12.631  20.527  0.00  0.00    +0.000 C 
ENDBRANCH  23  27
BRANCH  21  33
ATOM     33  O   UNL     1       0.902  10.788  21.955  0.00  0.00    +0.000 OA
BRANCH  33  35
ATOM     34  C   UNL     1      -0.561   9.440  23.301  0.00  0.00    +0.000 C 
ATOM     35  C   UNL     1       0.832   9.582  22.714  0.00  0.00    +0.000 C 
ENDBRANCH  33  35
ENDBRANCH  21  33
BRANCH  24  36
ATOM     36  O   UNL     1      -2.720  11.722  17.857  0.00  0.00    +0.000 OA
BRANCH  36  37
ATOM     37  C   UNL     1      -2.559  11.078  16.593  0.00  0.00    +0.000 C 
ATOM     38  C   UNL     1      -3.946  10.929  15.990  0.00  0.00    +0.000 C 
ENDBRANCH  36  37
ENDBRANCH  24  36
ENDBRANCH   1  26
TORSDOF 9
ENDMDL
MODEL 2
REMARK VINA RESULT:      -7.8      2.399      3.919
REMARK  Name = 
REMARK  12 active torsions:
REMARK  status: ('A' for Active; 'I' for Inactive)
REMARK    1  A    between atoms: C_1  and  C_2
REMARK    2  A    between atoms: C_2  and  O_3
REMARK    3  A    between atoms: O_3  and  C_4
REMARK    4  A    between atoms: C_6  and  N_7
REMARK    5  A    between atoms: C_13  and  O_14
REMARK    6  A    between atoms: O_14  and  C_15
REMARK    7  A    between atoms: C_15  and  C_16
REMARK    8  A    between atoms: C_18  and  N_19
REMARK    9  A    between atoms: C_20  and  C_22
REMARK   10  A    between atoms: C_25  and  C_26
REMARK   11  A    between atoms: C_27  and  N_28
REMARK   12  A    between atoms: C_29  and  C_31
REMARK                            x       y       z     vdW  Elec       q    Type
REMARK                         _______ _______ _______ _____ _____    ______ ____
ROOT
ATOM      1  N   UNL     1       1.073   9.012  19.516  0.00  0.00    +0.000 N 
ATOM      2  C   UNL     1       1.487   8.210  20.567  0.00  0.00    +0.000 C 
ATOM      3  O   UNL     1       1.480   8.497  21.758  0.00  0.00    +0.000 OA
ATOM      4  H   UNL     1       1.026   8.589  18.605  0.00  0.00    +0.000 HD
ENDROOT
BRANCH   2   5
ATOM      5  C   UNL     1       1.946   6.844  20.184  0.00  0.00    +0.000 A 
ATOM      6  C   UNL     1       1.533   5.713  20.888  0.00  0.00    +0.000 A 
ATOM      7  C   UNL     1       1.892   4.452  20.427  0.00  0.00    +0.000 A 
ATOM      8  C   UNL     1       2.644   4.302  19.250  0.00  0.00    +0.000 A 
ATOM      9  C   UNL     1       2.962   2.912  18.774  0.00  0.00    +0.000 C 
ATOM     10  C   UNL     1       3.108   5.446  18.576  0.00  0.00    +0.000 A 
ATOM     11  C   UNL     1       2.753   6.714  19.041  0.00  0.00    +0.000 A 
BRANCH  10  12
ATOM     12  N   UNL     1       3.869   5.314  17.401  0.00  0.00    +0.000 N 
ATOM     13  C   UNL     1       5.255   5.248  17.382  0.00  0.00    +0.000 C 
ATOM     14  O   UNL     1       5.963   5.330  18.383  0.00  0.00    +0.000 OA
ATOM     15  H   UNL     1       3.422   4.931  16.575  0.00  0.00    +0.000 HD
BRANCH  13  16
ATOM     16  C   UNL     1       5.790   4.978  16.056  0.00  0.00    +0.000 A 
ATOM     17  C   UNL     1       5.375   4.121  15.051  0.00  0.00    +0.000 A 
ATOM     18  C   UNL     1       6.291   4.273  13.980  0.00  0.00    +0.000 A 
ATOM     19  C   UNL     1       7.203   5.216  14.388  0.00  0.00    +0.000 A 
ATOM     20  O   UNL     1       6.906   5.660  15.635  0.00  0.00    +0.000 OA
ENDBRANCH  13  16
ENDBRANCH  10  12
ENDBRANCH   2   5
BRANCH   1  26
ATOM     21  C   UNL     1      -0.398  10.853  18.792  0.00  0.00    +0.000 A 
ATOM     22  C   UNL     1      -0.674  12.237  18.808  0.00  0.00    +0.000 A 
ATOM     23  C   UNL     1       0.028  13.156  19.616  0.00  0.00    +0.000 A 
ATOM     24  C   UNL     1       0.992  12.612  20.488  0.00  0.00    +0.000 A 
ATOM     25  C   UNL     1       1.294  11.249  20.450  0.00  0.00    +0.000 A 
ATOM     26  C   UNL     1       0.634  10.358  19.604  0.00  0.00    +0.000 A 
BRANCH  23  27
ATOM     27  N   UNL     1      -0.211  14.514  19.482  0.00  0.00    +0.000 N 
ATOM     28  C   UNL     1       0.585  15.383  18.597  0.00  0.00    +0.000 C 
ATOM     29  C   UNL     1       1.314  16.455  19.419  0.00  0.00    +0.000 C 
ATOM     30  O   UNL     1       0.388  17.212  20.221  0.00  0.00    +0.000 OA
ATOM     31  C   UNL     1      -0.302  16.337  21.131  0.00  0.00    +0.000 C 
ATOM     32  C   UNL     1      -1.100  15.247  20.392  0.00  0.00    +0.000 C 
ENDBRANCH  23  27
BRANCH  21  33
ATOM     33  O   UNL     1      -1.155  10.169  17.873  0.00  0.00    +0.000 OA
BRANCH  33  35
ATOM     34  C   UNL     1      -3.387   9.988  17.005  0.00  0.00    +0.000 C 
ATOM     35  C   UNL     1      -2.165  10.876  17.156  0.00  0.00    +0.000 C 
ENDBRANCH  33  35
ENDBRANCH  21  33
BRANCH  24  36
ATOM     36  O   UNL     1       1.653  13.480  21.328  0.00  0.00    +0.000 OA
BRANCH  36  37
ATOM     37  C   UNL     1       3.017  13.781  21.034  0.00  0.00    +0.000 C 
ATOM     38  C   UNL     1       3.447  14.876  21.995  0.00  0.00    +0.000 C 
ENDBRANCH  36  37
ENDBRANCH  24  36
ENDBRANCH   1  26
TORSDOF 9
ENDMDL
MODEL 3
REMARK VINA RESULT:      -7.7      1.808      3.259
REMARK  Name = 
REMARK  12 active torsions:
REMARK  status: ('A' for Active; 'I' for Inactive)
REMARK    1  A    between atoms: C_1  and  C_2
REMARK    2  A    between atoms: C_2  and  O_3
REMARK    3  A    between atoms: O_3  and  C_4
REMARK    4  A    between atoms: C_6  and  N_7
REMARK    5  A    between atoms: C_13  and  O_14
REMARK    6  A    between atoms: O_14  and  C_15
REMARK    7  A    between atoms: C_15  and  C_16
REMARK    8  A    between atoms: C_18  and  N_19
REMARK    9  A    between atoms: C_20  and  C_22
REMARK   10  A    between atoms: C_25  and  C_26
REMARK   11  A    between atoms: C_27  and  N_28
REMARK   12  A    between atoms: C_29  and  C_31
REMARK                            x       y       z     vdW  Elec       q    Type
REMARK                         _______ _______ _______ _____ _____    ______ ____
ROOT
ATOM      1  N   UNL     1       1.210   9.360  19.855  0.00  0.00    +0.000 N 
ATOM      2  C   UNL     1       1.890   8.970  18.713  0.00  0.00    +0.000 C 
ATOM      3  O   UNL     1       2.071   9.636  17.701  0.00  0.00    +0.000 OA
ATOM      4  H   UNL     1       1.252   8.744  20.649  0.00  0.00    +0.000 HD
ENDROOT
BRANCH   2   5
ATOM      5  C   UNL     1       2.490   7.606  18.763  0.00  0.00    +0.000 A 
ATOM      6  C   UNL     1       2.286   6.760  19.853  0.00  0.00    +0.000 A 
ATOM      7  C   UNL     1       2.767   5.457  19.807  0.00  0.00    +0.000 A 
ATOM      8  C   UNL     1       3.435   4.975  18.669  0.00  0.00    +0.000 A 
ATOM      9  C   UNL     1       3.891   3.543  18.659  0.00  0.00    +0.000 C 
ATOM     10  C   UNL     1       3.690   5.848  17.597  0.00  0.00    +0.000 A 
ATOM     11  C   UNL     1       3.213   7.159  17.644  0.00  0.00    +0.000 A 
BRANCH  10  12
ATOM     12  N   UNL     1       4.365   5.385  16.453  0.00  0.00    +0.000 N 
ATOM     13  C   UNL     1       5.549   5.933  15.980  0.00  0.00    +0.000 C 
ATOM     14  O   UNL     1       6.114   6.898  16.489  0.00  0.00    +0.000 OA
ATOM     15  H   UNL     1       4.189   4.437  16.138  0.00  0.00    +0.000 HD
BRANCH  13  16
ATOM     16  C   UNL     1       6.110   5.187  14.864  0.00  0.00    +0.000 A 
ATOM     17  C   UNL     1       5.590   4.173  14.077  0.00  0.00    +0.000 A 
ATOM     18  C   UNL     1       6.597   3.822  13.144  0.00  0.00    +0.000 A 
ATOM     19  C   UNL     1       7.666   4.644  13.407  0.00  0.00    +0.000 A 
ATOM     20  O   UNL     1       7.381   5.483  14.436  0.00  0.00    +0.000 OA
ENDBRANCH  13  16
ENDBRANCH  10  12
ENDBRANCH   2   5
BRANCH   1  26
ATOM     21  C   UNL     1      -0.733  10.824  19.456  0.00  0.00    +0.000 A 
ATOM     22  C   UNL     1      -1.292  12.117  19.547  0.00  0.00    +0.000 A 
ATOM     23  C   UNL     1      -0.663  13.185  20.219  0.00  0.00    +0.000 A 
ATOM     24  C   UNL     1       0.543  12.884  20.883  0.00  0.00    +0.000 A 
ATOM     25  C   UNL     1       1.118  11.617  20.765  0.00  0.00    +0.000 A 
ATOM     26  C   UNL     1       0.517  10.583  20.048  0.00  0.00    +0.000 A 
BRANCH  23  27
ATOM     27  N   UNL     1      -1.211  14.457  20.156  0.00  0.00    +0.000 N 
ATOM     28  C   UNL     1      -0.688  15.508  19.265  0.00  0.00    +0.000 C 
ATOM     29  C   UNL     1      -0.170  16.694  20.091  0.00  0.00    +0.000 C 
ATOM     30  O   UNL     1      -1.190  17.198  20.973  0.00  0.00    +0.000 OA
ATOM     31  C   UNL     1      -1.608  16.163  21.882  0.00  0.00    +0.000 C 
ATOM     32  C   UNL     1      -2.183  14.942  21.142  0.00  0.00    +0.000 C 
ENDBRANCH  23  27
BRANCH  21  33
ATOM     33  O   UNL     1      -1.485   9.969  18.689  0.00  0.00    +0.000 OA
BRANCH  33  35
ATOM     34  C   UNL     1      -2.564  10.171  16.552  0.00  0.00    +0.000 C 
ATOM     35  C   UNL     1      -2.647  10.479  18.037  0.00  0.00    +0.000 C 
ENDBRANCH  33  35
ENDBRANCH  21  33
BRANCH  24  36
ATOM     36  O   UNL     1       1.149  13.895  21.593  0.00  0.00    +0.000 OA
BRANCH  36  37
ATOM     37  C   UNL     1       2.558  14.062  21.442  0.00  0.00    +0.000 C 
ATOM     38  C   UNL     1       2.790  14.660  20.065  0.00  0.00    +0.000 C 
ENDBRANCH  36  37
ENDBRANCH  24  36
ENDBRANCH   1  26
TORSDOF 9
ENDMDL
MODEL 4
REMARK VINA RESULT:      -7.7      3.380     10.438
REMARK  Name = 
REMARK  12 active torsions:
REMARK  status: ('A' for Active; 'I' for Inactive)
REMARK    1  A    between atoms: C_1  and  C_2
REMARK    2  A    between atoms: C_2  and  O_3
REMARK    3  A    between atoms: O_3  and  C_4
REMARK    4  A    between atoms: C_6  and  N_7
REMARK    5  A    between atoms: C_13  and  O_14
REMARK    6  A    between atoms: O_14  and  C_15
REMARK    7  A    between atoms: C_15  and  C_16
REMARK    8  A    between atoms: C_18  and  N_19
REMARK    9  A    between atoms: C_20  and  C_22
REMARK   10  A    between atoms: C_25  and  C_26
REMARK   11  A    between atoms: C_27  and  N_28
REMARK   12  A    between atoms: C_29  and  C_31
REMARK                            x       y       z     vdW  Elec       q    Type
REMARK                         _______ _______ _______ _____ _____    ______ ____
ROOT
ATOM      1  N   UNL     1       0.859   9.092  20.470  0.00  0.00    +0.000 N 
ATOM      2  C   UNL     1       0.965   9.671  21.724  0.00  0.00    +0.000 C 
ATOM      3  O   UNL     1       1.783   9.398  22.594  0.00  0.00    +0.000 OA
ATOM      4  H   UNL     1       0.213   9.509  19.823  0.00  0.00    +0.000 HD
ENDROOT
BRANCH   2   5
ATOM      5  C   UNL     1      -0.004  10.770  22.002  0.00  0.00    +0.000 A 
ATOM      6  C   UNL     1      -1.036  10.613  22.927  0.00  0.00    +0.000 A 
ATOM      7  C   UNL     1      -1.845  11.700  23.239  0.00  0.00    +0.000 A 
ATOM      8  C   UNL     1      -1.621  12.957  22.654  0.00  0.00    +0.000 A 
ATOM      9  C   UNL     1      -2.497  14.106  23.066  0.00  0.00    +0.000 C 
ATOM     10  C   UNL     1      -0.617  13.096  21.679  0.00  0.00    +0.000 A 
ATOM     11  C   UNL     1       0.192  12.003  21.360  0.00  0.00    +0.000 A 
BRANCH  10  12
ATOM     12  N   UNL     1      -0.384  14.345  21.077  0.00  0.00    +0.000 N 
ATOM     13  C   UNL     1       0.588  15.238  21.503  0.00  0.00    +0.000 C 
ATOM     14  O   UNL     1       1.324  15.048  22.469  0.00  0.00    +0.000 OA
ATOM     15  H   UNL     1      -0.687  14.485  20.120  0.00  0.00    +0.000 HD
BRANCH  13  16
ATOM     16  C   UNL     1       0.714  16.396  20.631  0.00  0.00    +0.000 A 
ATOM     17  C   UNL     1       1.658  16.734  19.675  0.00  0.00    +0.000 A 
ATOM     18  C   UNL     1       1.273  17.990  19.146  0.00  0.00    +0.000 A 
ATOM     19  C   UNL     1       0.117  18.343  19.799  0.00  0.00    +0.000 A 
ATOM     20  O   UNL     1      -0.240  17.382  20.690  0.00  0.00    +0.000 OA
ENDBRANCH  13  16
ENDBRANCH  10  12
ENDBRANCH   2   5
BRANCH   1  26
ATOM     21  C   UNL     1       2.269   8.064  18.728  0.00  0.00    +0.000 A 
ATOM     22  C   UNL     1       2.875   6.896  18.219  0.00  0.00    +0.000 A 
ATOM     23  C   UNL     1       2.884   5.666  18.909  0.00  0.00    +0.000 A 
ATOM     24  C   UNL     1       2.315   5.668  20.198  0.00  0.00    +0.000 A 
ATOM     25  C   UNL     1       1.682   6.811  20.691  0.00  0.00    +0.000 A 
ATOM     26  C   UNL     1       1.627   8.006  19.975  0.00  0.00    +0.000 A 
BRANCH  23  27
ATOM     27  N   UNL     1       3.385   4.532  18.289  0.00  0.00    +0.000 N 
ATOM     28  C   UNL     1       2.602   3.735  17.328  0.00  0.00    +0.000 C 
ATOM     29  C   UNL     1       2.388   2.313  17.866  0.00  0.00    +0.000 C 
ATOM     30  O   UNL     1       3.644   1.685  18.186  0.00  0.00    +0.000 OA
ATOM     31  C   UNL     1       4.333   2.450  19.191  0.00  0.00    +0.000 C 
ATOM     32  C   UNL     1       4.629   3.886  18.724  0.00  0.00    +0.000 C 
ENDBRANCH  23  27
BRANCH  21  33
ATOM     33  O   UNL     1       2.318   9.118  17.849  0.00  0.00    +0.000 OA
BRANCH  33  35
ATOM     34  C   UNL     1       2.208  11.498  18.155  0.00  0.00    +0.000 C 
ATOM     35  C   UNL     1       1.416  10.207  18.036  0.00  0.00    +0.000 C 
ENDBRANCH  33  35
ENDBRANCH  21  33
BRANCH  24  36
ATOM     36  O   UNL     1       2.360   4.494  20.916  0.00  0.00    +0.000 OA
BRANCH  36  37
ATOM     37  C   UNL     1       1.195   3.670  20.918  0.00  0.00    +0.000 C 
ATOM     38  C   UNL     1       1.533   2.424  21.718  0.00  0.00    +0.000 C 
ENDBRANCH  36  37
ENDBRANCH  24  36
ENDBRANCH   1  26
TORSDOF 9
ENDMDL
MODEL 5
REMARK VINA RESULT:      -7.7      3.512      9.995
REMARK  Name = 
REMARK  12 active torsions:
REMARK  status: ('A' for Active; 'I' for Inactive)
REMARK    1  A    between atoms: C_1  and  C_2
REMARK    2  A    between atoms: C_2  and  O_3
REMARK    3  A    between atoms: O_3  and  C_4
REMARK    4  A    between atoms: C_6  and  N_7
REMARK    5  A    between atoms: C_13  and  O_14
REMARK    6  A    between atoms: O_14  and  C_15
REMARK    7  A    between atoms: C_15  and  C_16
REMARK    8  A    between atoms: C_18  and  N_19
REMARK    9  A    between atoms: C_20  and  C_22
REMARK   10  A    between atoms: C_25  and  C_26
REMARK   11  A    between atoms: C_27  and  N_28
REMARK   12  A    between atoms: C_29  and  C_31
REMARK                            x       y       z     vdW  Elec       q    Type
REMARK                         _______ _______ _______ _____ _____    ______ ____
ROOT
ATOM      1  N   UNL     1       1.212   9.085  20.625  0.00  0.00    +0.000 N 
ATOM      2  C   UNL     1       0.032   9.081  21.350  0.00  0.00    +0.000 C 
ATOM      3  O   UNL     1      -0.624   8.102  21.683  0.00  0.00    +0.000 OA
ATOM      4  H   UNL     1       1.696   9.961  20.536  0.00  0.00    +0.000 HD
ENDROOT
BRANCH   2   5
ATOM      5  C   UNL     1      -0.445  10.422  21.796  0.00  0.00    +0.000 A 
ATOM      6  C   UNL     1      -1.209  10.575  22.953  0.00  0.00    +0.000 A 
ATOM      7  C   UNL     1      -1.535  11.853  23.393  0.00  0.00    +0.000 A 
ATOM      8  C   UNL     1      -1.085  12.990  22.702  0.00  0.00    +0.000 A 
ATOM      9  C   UNL     1      -1.428  14.346  23.252  0.00  0.00    +0.000 C 
ATOM     10  C   UNL     1      -0.365  12.830  21.504  0.00  0.00    +0.000 A 
ATOM     11  C   UNL     1      -0.043  11.547  21.057  0.00  0.00    +0.000 A 
BRANCH  10  12
ATOM     12  N   UNL     1       0.086  13.957  20.795  0.00  0.00    +0.000 N 
ATOM     13  C   UNL     1       1.364  14.484  20.914  0.00  0.00    +0.000 C 
ATOM     14  O   UNL     1       2.224  14.044  21.674  0.00  0.00    +0.000 OA
ATOM     15  H   UNL     1      -0.391  14.212  19.937  0.00  0.00    +0.000 HD
BRANCH  13  16
ATOM     16  C   UNL     1       1.620  15.566  19.975  0.00  0.00    +0.000 A 
ATOM     17  C   UNL     1       1.026  16.806  19.813  0.00  0.00    +0.000 A 
ATOM     18  C   UNL     1       1.682  17.435  18.726  0.00  0.00    +0.000 A 
ATOM     19  C   UNL     1       2.640  16.550  18.293  0.00  0.00    +0.000 A 
ATOM     20  O   UNL     1       2.622  15.421  19.047  0.00  0.00    +0.000 OA
ENDBRANCH  13  16
ENDBRANCH  10  12
ENDBRANCH   2   5
BRANCH   1  26
ATOM     21  C   UNL     1       2.367   7.983  18.746  0.00  0.00    +0.000 A 
ATOM     22  C   UNL     1       2.840   6.782  18.175  0.00  0.00    +0.000 A 
ATOM     23  C   UNL     1       2.837   5.547  18.858  0.00  0.00    +0.000 A 
ATOM     24  C   UNL     1       2.403   5.575  20.198  0.00  0.00    +0.000 A 
ATOM     25  C   UNL     1       1.901   6.753  20.755  0.00  0.00    +0.000 A 
ATOM     26  C   UNL     1       1.853   7.956  20.052  0.00  0.00    +0.000 A 
BRANCH  23  27
ATOM     27  N   UNL     1       3.197   4.389  18.188  0.00  0.00    +0.000 N 
ATOM     28  C   UNL     1       2.240   3.593  17.399  0.00  0.00    +0.000 C 
ATOM     29  C   UNL     1       2.093   2.188  18.000  0.00  0.00    +0.000 C 
ATOM     30  O   UNL     1       3.372   1.535  18.110  0.00  0.00    +0.000 OA
ATOM     31  C   UNL     1       4.244   2.302  18.960  0.00  0.00    +0.000 C 
ATOM     32  C   UNL     1       4.484   3.720  18.413  0.00  0.00    +0.000 C 
ENDBRANCH  23  27
BRANCH  21  33
ATOM     33  O   UNL     1       2.396   9.039  17.869  0.00  0.00    +0.000 OA
BRANCH  33  35
ATOM     34  C   UNL     1       2.117  11.414  18.092  0.00  0.00    +0.000 C 
ATOM     35  C   UNL     1       1.419  10.069  18.006  0.00  0.00    +0.000 C 
ENDBRANCH  33  35
ENDBRANCH  21  33
BRANCH  24  36
ATOM     36  O   UNL     1       2.443   4.395  20.905  0.00  0.00    +0.000 OA
BRANCH  36  37
ATOM     37  C   UNL     1       1.231   3.654  21.032  0.00  0.00    +0.000 C 
ATOM     38  C   UNL     1       1.560   2.390  21.808  0.00  0.00    +0.000 C 
ENDBRANCH  36  37
ENDBRANCH  24  36
ENDBRANCH   1  26
TORSDOF 9
ENDMDL
MODEL 6
REMARK VINA RESULT:      -7.5      4.265      9.121
REMARK  Name = 
REMARK  12 active torsions:
REMARK  status: ('A' for Active; 'I' for Inactive)
REMARK    1  A    between atoms: C_1  and  C_2
REMARK    2  A    between atoms: C_2  and  O_3
REMARK    3  A    between atoms: O_3  and  C_4
REMARK    4  A    between atoms: C_6  and  N_7
REMARK    5  A    between atoms: C_13  and  O_14
REMARK    6  A    between atoms: O_14  and  C_15
REMARK    7  A    between atoms: C_15  and  C_16
REMARK    8  A    between atoms: C_18  and  N_19
REMARK    9  A    between atoms: C_20  and  C_22
REMARK   10  A    between atoms: C_25  and  C_26
REMARK   11  A    between atoms: C_27  and  N_28
REMARK   12  A    between atoms: C_29  and  C_31
REMARK                            x       y       z     vdW  Elec       q    Type
REMARK                         _______ _______ _______ _____ _____    ______ ____
ROOT
ATOM      1  N   UNL     1       1.665   9.913  19.303  0.00  0.00    +0.000 N 
ATOM      2  C   UNL     1       0.643  10.593  18.661  0.00  0.00    +0.000 C 
ATOM      3  O   UNL     1      -0.355  10.104  18.147  0.00  0.00    +0.000 OA
ATOM      4  H   UNL     1       2.356  10.465  19.781  0.00  0.00    +0.000 HD
ENDROOT
BRANCH   2   5
ATOM      5  C   UNL     1       0.776  12.078  18.646  0.00  0.00    +0.000 A 
ATOM      6  C   UNL     1      -0.299  12.908  18.963  0.00  0.00    +0.000 A 
ATOM      7  C   UNL     1      -0.099  14.281  19.049  0.00  0.00    +0.000 A 
ATOM      8  C   UNL     1       1.173  14.839  18.844  0.00  0.00    +0.000 A 
ATOM      9  C   UNL     1       1.338  16.325  18.997  0.00  0.00    +0.000 C 
ATOM     10  C   UNL     1       2.241  14.005  18.467  0.00  0.00    +0.000 A 
ATOM     11  C   UNL     1       2.041  12.626  18.375  0.00  0.00    +0.000 A 
BRANCH  10  12
ATOM     12  N   UNL     1       3.520  14.547  18.250  0.00  0.00    +0.000 N 
ATOM     13  C   UNL     1       4.453  14.752  19.257  0.00  0.00    +0.000 C 
ATOM     14  O   UNL     1       4.249  14.514  20.445  0.00  0.00    +0.000 OA
ATOM     15  H   UNL     1       3.917  14.493  17.319  0.00  0.00    +0.000 HD
BRANCH  13  16
ATOM     16  C   UNL     1       5.742  15.198  18.751  0.00  0.00    +0.000 A 
ATOM     17  C   UNL     1       6.653  14.603  17.894  0.00  0.00    +0.000 A 
ATOM     18  C   UNL     1       7.741  15.501  17.766  0.00  0.00    +0.000 A 
ATOM     19  C   UNL     1       7.431  16.592  18.542  0.00  0.00    +0.000 A 
ATOM     20  O   UNL     1       6.220  16.428  19.133  0.00  0.00    +0.000 OA
ENDBRANCH  13  16
ENDBRANCH  10  12
ENDBRANCH   2   5
BRANCH   1  26
ATOM     21  C   UNL     1       1.443   7.824  20.594  0.00  0.00    +0.000 A 
ATOM     22  C   UNL     1       1.756   6.453  20.709  0.00  0.00    +0.000 A 
ATOM     23  C   UNL     1       2.399   5.719  19.690  0.00  0.00    +0.000 A 
ATOM     24  C   UNL     1       2.655   6.410  18.488  0.00  0.00    +0.000 A 
ATOM     25  C   UNL     1       2.381   7.775  18.384  0.00  0.00    +0.000 A 
ATOM     26  C   UNL     1       1.799   8.505  19.420  0.00  0.00    +0.000 A 
BRANCH  23  27
ATOM     27  N   UNL     1       2.788   4.410  19.924  0.00  0.00    +0.000 N 
ATOM     28  C   UNL     1       4.200   4.007  20.052  0.00  0.00    +0.000 C 
ATOM     29  C   UNL     1       4.575   3.023  18.935  0.00  0.00    +0.000 C 
ATOM     30  O   UNL     1       3.692   1.886  18.927  0.00  0.00    +0.000 OA
ATOM     31  C   UNL     1       2.337   2.319  18.712  0.00  0.00    +0.000 C 
ATOM     32  C   UNL     1       1.856   3.283  19.812  0.00  0.00    +0.000 C 
ENDBRANCH  23  27
BRANCH  21  33
ATOM     33  O   UNL     1       0.890   8.343  21.739  0.00  0.00    +0.000 OA
BRANCH  33  35
ATOM     34  C   UNL     1      -0.567  10.160  22.328  0.00  0.00    +0.000 C 
ATOM     35  C   UNL     1      -0.468   8.778  21.706  0.00  0.00    +0.000 C 
ENDBRANCH  33  35
ENDBRANCH  21  33
BRANCH  24  36
ATOM     36  O   UNL     1       3.232   5.703  17.458  0.00  0.00    +0.000 OA
BRANCH  36  37
ATOM     37  C   UNL     1       4.479   6.170  16.946  0.00  0.00    +0.000 C 
ATOM     38  C   UNL     1       5.005   5.097  16.008  0.00  0.00    +0.000 C 
ENDBRANCH  36  37
ENDBRANCH  24  36
ENDBRANCH   1  26
TORSDOF 9
ENDMDL
MODEL 7
REMARK VINA RESULT:      -7.5      1.845      2.429
REMARK  Name = 
REMARK  12 active torsions:
REMARK  status: ('A' for Active; 'I' for Inactive)
REMARK    1  A    between atoms: C_1  and  C_2
REMARK    2  A    between atoms: C_2  and  O_3
REMARK    3  A    between atoms: O_3  and  C_4
REMARK    4  A    between atoms: C_6  and  N_7
REMARK    5  A    between atoms: C_13  and  O_14
REMARK    6  A    between atoms: O_14  and  C_15
REMARK    7  A    between atoms: C_15  and  C_16
REMARK    8  A    between atoms: C_18  and  N_19
REMARK    9  A    between atoms: C_20  and  C_22
REMARK   10  A    between atoms: C_25  and  C_26
REMARK   11  A    between atoms: C_27  and  N_28
REMARK   12  A    between atoms: C_29  and  C_31
REMARK                            x       y       z     vdW  Elec       q    Type
REMARK                         _______ _______ _______ _____ _____    ______ ____
ROOT
ATOM      1  N   UNL     1       0.854  10.233  20.138  0.00  0.00    +0.000 N 
ATOM      2  C   UNL     1       1.154   9.523  18.987  0.00  0.00    +0.000 C 
ATOM      3  O   UNL     1       0.927   9.863  17.833  0.00  0.00    +0.000 OA
ATOM      4  H   UNL     1       1.213   9.877  21.006  0.00  0.00    +0.000 HD
ENDROOT
BRANCH   2   5
ATOM      5  C   UNL     1       1.866   8.231  19.204  0.00  0.00    +0.000 A 
ATOM      6  C   UNL     1       1.719   7.507  20.387  0.00  0.00    +0.000 A 
ATOM      7  C   UNL     1       2.309   6.254  20.500  0.00  0.00    +0.000 A 
ATOM      8  C   UNL     1       3.032   5.699  19.431  0.00  0.00    +0.000 A 
ATOM      9  C   UNL     1       3.607   4.320  19.594  0.00  0.00    +0.000 C 
ATOM     10  C   UNL     1       3.228   6.456  18.262  0.00  0.00    +0.000 A 
ATOM     11  C   UNL     1       2.640   7.718  18.149  0.00  0.00    +0.000 A 
BRANCH  10  12
ATOM     12  N   UNL     1       3.955   5.919  17.186  0.00  0.00    +0.000 N 
ATOM     13  C   UNL     1       5.282   6.229  16.919  0.00  0.00    +0.000 C 
ATOM     14  O   UNL     1       5.949   7.027  17.573  0.00  0.00    +0.000 OA
ATOM     15  H   UNL     1       3.641   5.046  16.776  0.00  0.00    +0.000 HD
BRANCH  13  16
ATOM     16  C   UNL     1       5.839   5.439  15.832  0.00  0.00    +0.000 A 
ATOM     17  C   UNL     1       5.340   4.355  15.129  0.00  0.00    +0.000 A 
ATOM     18  C   UNL     1       6.331   3.989  14.184  0.00  0.00    +0.000 A 
ATOM     19  C   UNL     1       7.369   4.872  14.357  0.00  0.00    +0.000 A 
ATOM     20  O   UNL     1       7.081   5.762  15.340  0.00  0.00    +0.000 OA
ENDBRANCH  13  16
ENDBRANCH  10  12
ENDBRANCH   2   5
BRANCH   1  26
ATOM     21  C   UNL     1       0.762  12.641  20.658  0.00  0.00    +0.000 A 
ATOM     22  C   UNL     1      -0.034  13.788  20.866  0.00  0.00    +0.000 A 
ATOM     23  C   UNL     1      -1.425  13.816  20.633  0.00  0.00    +0.000 A 
ATOM     24  C   UNL     1      -1.993  12.644  20.095  0.00  0.00    +0.000 A 
ATOM     25  C   UNL     1      -1.216  11.496  19.921  0.00  0.00    +0.000 A 
ATOM     26  C   UNL     1       0.147  11.461  20.211  0.00  0.00    +0.000 A 
BRANCH  23  27
ATOM     27  N   UNL     1      -2.160  14.937  20.983  0.00  0.00    +0.000 N 
ATOM     28  C   UNL     1      -1.924  16.265  20.389  0.00  0.00    +0.000 C 
ATOM     29  C   UNL     1      -1.483  17.261  21.472  0.00  0.00    +0.000 C 
ATOM     30  O   UNL     1      -2.441  17.317  22.546  0.00  0.00    +0.000 OA
ATOM     31  C   UNL     1      -2.574  16.019  23.153  0.00  0.00    +0.000 C 
ATOM     32  C   UNL     1      -3.054  14.957  22.148  0.00  0.00    +0.000 C 
ENDBRANCH  23  27
BRANCH  21  33
ATOM     33  O   UNL     1       2.072  12.827  21.024  0.00  0.00    +0.000 OA
BRANCH  33  35
ATOM     34  C   UNL     1       2.938  13.577  18.913  0.00  0.00    +0.000 C 
ATOM     35  C   UNL     1       2.816  13.871  20.398  0.00  0.00    +0.000 C 
ENDBRANCH  33  35
ENDBRANCH  21  33
BRANCH  24  36
ATOM     36  O   UNL     1      -3.339  12.662  19.806  0.00  0.00    +0.000 OA
BRANCH  36  37
ATOM     37  C   UNL     1      -3.814  11.777  18.793  0.00  0.00    +0.000 C 
ATOM     38  C   UNL     1      -5.330  11.763  18.890  0.00  0.00    +0.000 C 
ENDBRANCH  36  37
ENDBRANCH  24  36
ENDBRANCH   1  26
TORSDOF 9
ENDMDL
MODEL 8
REMARK VINA RESULT:      -7.4      1.108      1.529
REMARK  Name = 
REMARK  12 active torsions:
REMARK  status: ('A' for Active; 'I' for Inactive)
REMARK    1  A    between atoms: C_1  and  C_2
REMARK    2  A    between atoms: C_2  and  O_3
REMARK    3  A    between atoms: O_3  and  C_4
REMARK    4  A    between atoms: C_6  and  N_7
REMARK    5  A    between atoms: C_13  and  O_14
REMARK    6  A    between atoms: O_14  and  C_15
REMARK    7  A    between atoms: C_15  and  C_16
REMARK    8  A    between atoms: C_18  and  N_19
REMARK    9  A    between atoms: C_20  and  C_22
REMARK   10  A    between atoms: C_25  and  C_26
REMARK   11  A    between atoms: C_27  and  N_28
REMARK   12  A    between atoms: C_29  and  C_31
REMARK                            x       y       z     vdW  Elec       q    Type
REMARK                         _______ _______ _______ _____ _____    ______ ____
ROOT
ATOM      1  N   UNL     1       0.877   9.347  19.496  0.00  0.00    +0.000 N 
ATOM      2  C   UNL     1       1.715   9.055  18.432  0.00  0.00    +0.000 C 
ATOM      3  O   UNL     1       1.904   9.741  17.435  0.00  0.00    +0.000 OA
ATOM      4  H   UNL     1       0.923   8.742  20.297  0.00  0.00    +0.000 HD
ENDROOT
BRANCH   2   5
ATOM      5  C   UNL     1       2.490   7.787  18.560  0.00  0.00    +0.000 A 
ATOM      6  C   UNL     1       2.495   7.054  19.746  0.00  0.00    +0.000 A 
ATOM      7  C   UNL     1       3.135   5.821  19.785  0.00  0.00    +0.000 A 
ATOM      8  C   UNL     1       3.756   5.295  18.640  0.00  0.00    +0.000 A 
ATOM      9  C   UNL     1       4.391   3.936  18.730  0.00  0.00    +0.000 C 
ATOM     10  C   UNL     1       3.799   6.063  17.463  0.00  0.00    +0.000 A 
ATOM     11  C   UNL     1       3.162   7.305  17.424  0.00  0.00    +0.000 A 
BRANCH  10  12
ATOM     12  N   UNL     1       4.424   5.556  16.310  0.00  0.00    +0.000 N 
ATOM     13  C   UNL     1       5.724   5.867  15.936  0.00  0.00    +0.000 C 
ATOM     14  O   UNL     1       6.453   6.640  16.552  0.00  0.00    +0.000 OA
ATOM     15  H   UNL     1       4.067   4.698  15.904  0.00  0.00    +0.000 HD
BRANCH  13  16
ATOM     16  C   UNL     1       6.175   5.108  14.780  0.00  0.00    +0.000 A 
ATOM     17  C   UNL     1       7.353   5.149  14.051  0.00  0.00    +0.000 A 
ATOM     18  C   UNL     1       7.230   4.184  13.020  0.00  0.00    +0.000 A 
ATOM     19  C   UNL     1       5.994   3.606  13.183  0.00  0.00    +0.000 A 
ATOM     20  O   UNL     1       5.351   4.146  14.249  0.00  0.00    +0.000 OA
ENDBRANCH  13  16
ENDBRANCH  10  12
ENDBRANCH   2   5
BRANCH   1  26
ATOM     21  C   UNL     1       0.344  11.593  20.360  0.00  0.00    +0.000 A 
ATOM     22  C   UNL     1      -0.630  12.594  20.563  0.00  0.00    +0.000 A 
ATOM     23  C   UNL     1      -1.933  12.524  20.028  0.00  0.00    +0.000 A 
ATOM     24  C   UNL     1      -2.208  11.422  19.194  0.00  0.00    +0.000 A 
ATOM     25  C   UNL     1      -1.260  10.412  19.019  0.00  0.00    +0.000 A 
ATOM     26  C   UNL     1       0.006  10.462  19.602  0.00  0.00    +0.000 A 
BRANCH  23  27
ATOM     27  N   UNL     1      -2.874  13.480  20.377  0.00  0.00    +0.000 N 
ATOM     28  C   UNL     1      -2.526  14.889  20.629  0.00  0.00    +0.000 C 
ATOM     29  C   UNL     1      -2.850  15.265  22.082  0.00  0.00    +0.000 C 
ATOM     30  O   UNL     1      -4.229  14.990  22.393  0.00  0.00    +0.000 OA
ATOM     31  C   UNL     1      -4.501  13.588  22.218  0.00  0.00    +0.000 C 
ATOM     32  C   UNL     1      -4.242  13.125  20.773  0.00  0.00    +0.000 C 
ENDBRANCH  23  27
BRANCH  21  33
ATOM     33  O   UNL     1       1.511  11.839  21.040  0.00  0.00    +0.000 OA
BRANCH  33  35
ATOM     34  C   UNL     1       2.589  13.333  19.498  0.00  0.00    +0.000 C 
ATOM     35  C   UNL     1       2.112  13.128  20.925  0.00  0.00    +0.000 C 
ENDBRANCH  33  35
ENDBRANCH  21  33
BRANCH  24  36
ATOM     36  O   UNL     1      -3.455  11.358  18.613  0.00  0.00    +0.000 OA
BRANCH  36  37
ATOM     37  C   UNL     1      -3.683  10.342  17.637  0.00  0.00    +0.000 C 
ATOM     38  C   UNL     1      -3.845  11.039  16.298  0.00  0.00    +0.000 C 
ENDBRANCH  36  37
ENDBRANCH  24  36
ENDBRANCH   1  26
TORSDOF 9
ENDMDL
MODEL 9
REMARK VINA RESULT:      -7.3      2.284      3.712
REMARK  Name = 
REMARK  12 active torsions:
REMARK  status: ('A' for Active; 'I' for Inactive)
REMARK    1  A    between atoms: C_1  and  C_2
REMARK    2  A    between atoms: C_2  and  O_3
REMARK    3  A    between atoms: O_3  and  C_4
REMARK    4  A    between atoms: C_6  and  N_7
REMARK    5  A    between atoms: C_13  and  O_14
REMARK    6  A    between atoms: O_14  and  C_15
REMARK    7  A    between atoms: C_15  and  C_16
REMARK    8  A    between atoms: C_18  and  N_19
REMARK    9  A    between atoms: C_20  and  C_22
REMARK   10  A    between atoms: C_25  and  C_26
REMARK   11  A    between atoms: C_27  and  N_28
REMARK   12  A    between atoms: C_29  and  C_31
REMARK                            x       y       z     vdW  Elec       q    Type
REMARK                         _______ _______ _______ _____ _____    ______ ____
ROOT
ATOM      1  N   UNL     1       0.872  10.130  20.089  0.00  0.00    +0.000 N 
ATOM      2  C   UNL     1       1.568   9.644  18.994  0.00  0.00    +0.000 C 
ATOM      3  O   UNL     1       1.837  10.251  17.965  0.00  0.00    +0.000 OA
ATOM      4  H   UNL     1       0.837   9.549  20.908  0.00  0.00    +0.000 HD
ENDROOT
BRANCH   2   5
ATOM      5  C   UNL     1       2.067   8.245  19.126  0.00  0.00    +0.000 A 
ATOM      6  C   UNL     1       1.734   7.454  20.226  0.00  0.00    +0.000 A 
ATOM      7  C   UNL     1       2.125   6.121  20.253  0.00  0.00    +0.000 A 
ATOM      8  C   UNL     1       2.830   5.555  19.177  0.00  0.00    +0.000 A 
ATOM      9  C   UNL     1       3.185   4.096  19.241  0.00  0.00    +0.000 C 
ATOM     10  C   UNL     1       3.215   6.370  18.098  0.00  0.00    +0.000 A 
ATOM     11  C   UNL     1       2.828   7.712  18.073  0.00  0.00    +0.000 A 
BRANCH  10  12
ATOM     12  N   UNL     1       3.929   5.823  17.018  0.00  0.00    +0.000 N 
ATOM     13  C   UNL     1       5.268   6.085  16.764  0.00  0.00    +0.000 C 
ATOM     14  O   UNL     1       5.961   6.846  17.435  0.00  0.00    +0.000 OA
ATOM     15  H   UNL     1       3.584   4.969  16.592  0.00  0.00    +0.000 HD
BRANCH  13  16
ATOM     16  C   UNL     1       5.801   5.292  15.668  0.00  0.00    +0.000 A 
ATOM     17  C   UNL     1       5.374   4.106  15.093  0.00  0.00    +0.000 A 
ATOM     18  C   UNL     1       6.295   3.795  14.062  0.00  0.00    +0.000 A 
ATOM     19  C   UNL     1       7.223   4.809  14.060  0.00  0.00    +0.000 A 
ATOM     20  O   UNL     1       6.930   5.726  15.017  0.00  0.00    +0.000 OA
ENDBRANCH  13  16
ENDBRANCH  10  12
ENDBRANCH   2   5
BRANCH   1  26
ATOM     21  C   UNL     1      -0.953  11.701  19.560  0.00  0.00    +0.000 A 
ATOM     22  C   UNL     1      -1.424  13.031  19.570  0.00  0.00    +0.000 A 
ATOM     23  C   UNL     1      -0.741  14.087  20.210  0.00  0.00    +0.000 A 
ATOM     24  C   UNL     1       0.423  13.738  20.924  0.00  0.00    +0.000 A 
ATOM     25  C   UNL     1       0.911  12.431  20.886  0.00  0.00    +0.000 A 
ATOM     26  C   UNL     1       0.260  11.406  20.201  0.00  0.00    +0.000 A 
BRANCH  23  27
ATOM     27  N   UNL     1      -1.197  15.388  20.068  0.00  0.00    +0.000 N 
ATOM     28  C   UNL     1      -0.644  16.325  19.074  0.00  0.00    +0.000 C 
ATOM     29  C   UNL     1       0.000  17.528  19.778  0.00  0.00    +0.000 C 
ATOM     30  O   UNL     1      -0.937  18.175  20.660  0.00  0.00    +0.000 OA
ATOM     31  C   UNL     1      -1.383  17.248  21.666  0.00  0.00    +0.000 C 
ATOM     32  C   UNL     1      -2.082  16.021  21.054  0.00  0.00    +0.000 C 
ENDBRANCH  23  27
BRANCH  21  33
ATOM     33  O   UNL     1      -1.741  10.862  18.811  0.00  0.00    +0.000 OA
BRANCH  33  35
ATOM     34  C   UNL     1      -3.728  10.478  17.517  0.00  0.00    +0.000 C 
ATOM     35  C   UNL     1      -2.578  11.427  17.804  0.00  0.00    +0.000 C 
ENDBRANCH  33  35
ENDBRANCH  21  33
BRANCH  24  36
ATOM     36  O   UNL     1       1.078  14.740  21.604  0.00  0.00    +0.000 OA
BRANCH  36  37
ATOM     37  C   UNL     1       2.364  15.136  21.129  0.00  0.00    +0.000 C 
ATOM     38  C   UNL     1       3.186  15.527  22.345  0.00  0.00    +0.000 C 
ENDBRANCH  36  37
ENDBRANCH  24  36
ENDBRANCH   1  26
TORSDOF 9
ENDMDL
