MODEL 1
REMARK VINA RESULT:      -7.0      0.000      0.000
REMARK  Name = 
REMARK  2 active torsions:
REMARK  status: ('A' for Active; 'I' for Inactive)
REMARK    1  A    between atoms: C_1  and  N_2
REMARK    2  A    between atoms: C_4  and  C_5
REMARK                            x       y       z     vdW  Elec       q    Type
REMARK                         _______ _______ _______ _____ _____    ______ ____
ROOT
ATOM      1  C   UNL     1       4.742   6.582  16.592  0.00  0.00    +0.000 C 
ATOM      2  N   UNL     1       4.160   5.642  17.524  0.00  0.00    +0.000 N 
ATOM      3  N   UNL     1       4.580   4.348  17.516  0.00  0.00    +0.000 NA
ATOM      4  C   UNL     1       3.868   3.754  18.501  0.00  0.00    +0.000 A 
ATOM      5  C   UNL     1       3.014   4.692  19.125  0.00  0.00    +0.000 A 
ATOM      6  C   UNL     1       3.223   5.896  18.482  0.00  0.00    +0.000 A 
ATOM      7  C   UNL     1       2.546   7.126  18.864  0.00  0.00    +0.000 A 
ATOM      8  N   UNL     1       2.610   8.185  18.042  0.00  0.00    +0.000 NA
ATOM      9  C   UNL     1       1.942   9.268  18.456  0.00  0.00    +0.000 A 
ATOM     10  N   UNL     1       1.964  10.392  17.654  0.00  0.00    +0.000 N 
ATOM     11  N   UNL     1       1.210   9.350  19.574  0.00  0.00    +0.000 NA
ATOM     12  C   UNL     1       1.180   8.263  20.367  0.00  0.00    +0.000 A 
ATOM     13  C   UNL     1       1.834   7.098  20.059  0.00  0.00    +0.000 A 
ATOM     14  C   UNL     1       1.876   5.904  20.981  0.00  0.00    +0.000 C 
ATOM     15  C   UNL     1       2.033   4.559  20.238  0.00  0.00    +0.000 C 
ATOM     16  H   UNL     1       2.114  10.134  16.691  0.00  0.00    +0.000 HD
ATOM     17  H   UNL     1       1.155  10.962  17.861  0.00  0.00    +0.000 HD
ENDROOT
BRANCH   4  18
ATOM     18  C   UNL     1       4.016   2.329  18.840  0.00  0.00    +0.000 C 
ATOM     19  N   UNL     1       4.900   2.062  19.842  0.00  0.00    +0.000 N 
ATOM     20  O   UNL     1       3.395   1.425  18.286  0.00  0.00    +0.000 OA
ATOM     21  H   UNL     1       5.387   2.832  20.284  0.00  0.00    +0.000 HD
ATOM     22  H   UNL     1       5.038   1.108  20.138  0.00  0.00    +0.000 HD
ENDBRANCH   4  18
TORSDOF 1
ENDMDL
MODEL 2
REMARK VINA RESULT:      -7.0      2.437      4.457
REMARK  Name = 
REMARK  2 active torsions:
REMARK  status: ('A' for Active; 'I' for Inactive)
REMARK    1  A    between atoms: C_1  and  N_2
REMARK    2  A    between atoms: C_4  and  C_5
REMARK                            x       y       z     vdW  Elec       q    Type
REMARK                         _______ _______ _______ _____ _____    ______ ____
ROOT
ATOM      1  C   UNL     1       2.801   7.456  18.820  0.00  0.00    +0.000 C 
ATOM      2  N   UNL     1       2.726   6.016  18.714  0.00  0.00    +0.000 N 
ATOM      3  N   UNL     1       1.626   5.369  19.186  0.00  0.00    +0.000 NA
ATOM      4  C   UNL     1       1.860   4.064  18.918  0.00  0.00    +0.000 A 
ATOM      5  C   UNL     1       3.105   3.910  18.268  0.00  0.00    +0.000 A 
ATOM      6  C   UNL     1       3.639   5.178  18.146  0.00  0.00    +0.000 A 
ATOM      7  C   UNL     1       4.911   5.442  17.490  0.00  0.00    +0.000 A 
ATOM      8  N   UNL     1       5.476   6.651  17.632  0.00  0.00    +0.000 NA
ATOM      9  C   UNL     1       6.656   6.804  17.018  0.00  0.00    +0.000 A 
ATOM     10  N   UNL     1       7.293   8.023  17.127  0.00  0.00    +0.000 N 
ATOM     11  N   UNL     1       7.303   5.854  16.329  0.00  0.00    +0.000 NA
ATOM     12  C   UNL     1       6.694   4.661  16.213  0.00  0.00    +0.000 A 
ATOM     13  C   UNL     1       5.479   4.385  16.785  0.00  0.00    +0.000 A 
ATOM     14  C   UNL     1       4.749   3.079  16.590  0.00  0.00    +0.000 C 
ATOM     15  C   UNL     1       3.828   2.705  17.772  0.00  0.00    +0.000 C 
ATOM     16  H   UNL     1       7.014   8.492  17.976  0.00  0.00    +0.000 HD
ATOM     17  H   UNL     1       8.283   7.895  16.972  0.00  0.00    +0.000 HD
ENDROOT
BRANCH   4  18
ATOM     18  C   UNL     1       0.906   2.999  19.267  0.00  0.00    +0.000 C 
ATOM     19  N   UNL     1       0.633   2.878  20.596  0.00  0.00    +0.000 N 
ATOM     20  O   UNL     1       0.369   2.263  18.442  0.00  0.00    +0.000 OA
ATOM     21  H   UNL     1       1.086   3.508  21.248  0.00  0.00    +0.000 HD
ATOM     22  H   UNL     1      -0.025   2.180  20.905  0.00  0.00    +0.000 HD
ENDBRANCH   4  18
TORSDOF 1
ENDMDL
MODEL 3
REMARK VINA RESULT:      -6.8      1.908      3.091
REMARK  Name = 
REMARK  2 active torsions:
REMARK  status: ('A' for Active; 'I' for Inactive)
REMARK    1  A    between atoms: C_1  and  N_2
REMARK    2  A    between atoms: C_4  and  C_5
REMARK                            x       y       z     vdW  Elec       q    Type
REMARK                         _______ _______ _______ _____ _____    ______ ____
ROOT
ATOM      1  C   UNL     1       2.144   4.555  21.294  0.00  0.00    +0.000 C 
ATOM      2  N   UNL     1       2.909   4.975  20.141  0.00  0.00    +0.000 N 
ATOM      3  N   UNL     1       3.773   4.099  19.559  0.00  0.00    +0.000 NA
ATOM      4  C   UNL     1       4.300   4.784  18.518  0.00  0.00    +0.000 A 
ATOM      5  C   UNL     1       3.748   6.084  18.453  0.00  0.00    +0.000 A 
ATOM      6  C   UNL     1       2.856   6.180  19.504  0.00  0.00    +0.000 A 
ATOM      7  C   UNL     1       2.053   7.367  19.755  0.00  0.00    +0.000 A 
ATOM      8  N   UNL     1       1.405   7.477  20.926  0.00  0.00    +0.000 NA
ATOM      9  C   UNL     1       0.710   8.609  21.087  0.00  0.00    +0.000 A 
ATOM     10  N   UNL     1       0.023   8.787  22.270  0.00  0.00    +0.000 N 
ATOM     11  N   UNL     1       0.650   9.617  20.207  0.00  0.00    +0.000 NA
ATOM     12  C   UNL     1       1.314   9.457  19.048  0.00  0.00    +0.000 A 
ATOM     13  C   UNL     1       2.051   8.338  18.758  0.00  0.00    +0.000 A 
ATOM     14  C   UNL     1       2.728   8.113  17.429  0.00  0.00    +0.000 C 
ATOM     15  C   UNL     1       3.986   7.222  17.522  0.00  0.00    +0.000 C 
ATOM     16  H   UNL     1       0.458   8.262  23.013  0.00  0.00    +0.000 HD
ATOM     17  H   UNL     1      -0.121   9.776  22.425  0.00  0.00    +0.000 HD
ENDROOT
BRANCH   4  18
ATOM     18  C   UNL     1       5.295   4.198  17.605  0.00  0.00    +0.000 C 
ATOM     19  N   UNL     1       6.566   4.146  18.091  0.00  0.00    +0.000 N 
ATOM     20  O   UNL     1       5.028   3.770  16.484  0.00  0.00    +0.000 OA
ATOM     21  H   UNL     1       6.749   4.499  19.023  0.00  0.00    +0.000 HD
ATOM     22  H   UNL     1       7.296   3.742  17.526  0.00  0.00    +0.000 HD
ENDBRANCH   4  18
TORSDOF 1
ENDMDL
MODEL 4
REMARK VINA RESULT:      -6.8      2.704      4.377
REMARK  Name = 
REMARK  2 active torsions:
REMARK  status: ('A' for Active; 'I' for Inactive)
REMARK    1  A    between atoms: C_1  and  N_2
REMARK    2  A    between atoms: C_4  and  C_5
REMARK                            x       y       z     vdW  Elec       q    Type
REMARK                         _______ _______ _______ _____ _____    ______ ____
ROOT
ATOM      1  C   UNL     1       3.880   1.956  17.718  0.00  0.00    +0.000 C 
ATOM      2  N   UNL     1       4.479   3.167  17.204  0.00  0.00    +0.000 N 
ATOM      3  N   UNL     1       5.350   3.090  16.162  0.00  0.00    +0.000 NA
ATOM      4  C   UNL     1       5.703   4.373  15.918  0.00  0.00    +0.000 A 
ATOM      5  C   UNL     1       5.035   5.244  16.809  0.00  0.00    +0.000 A 
ATOM      6  C   UNL     1       4.254   4.446  17.621  0.00  0.00    +0.000 A 
ATOM      7  C   UNL     1       3.380   4.982  18.654  0.00  0.00    +0.000 A 
ATOM      8  N   UNL     1       2.852   4.142  19.558  0.00  0.00    +0.000 NA
ATOM      9  C   UNL     1       2.080   4.717  20.488  0.00  0.00    +0.000 A 
ATOM     10  N   UNL     1       1.508   3.910  21.449  0.00  0.00    +0.000 N 
ATOM     11  N   UNL     1       1.840   6.031  20.594  0.00  0.00    +0.000 NA
ATOM     12  C   UNL     1       2.390   6.831  19.663  0.00  0.00    +0.000 A 
ATOM     13  C   UNL     1       3.188   6.360  18.652  0.00  0.00    +0.000 A 
ATOM     14  C   UNL     1       3.739   7.237  17.555  0.00  0.00    +0.000 C 
ATOM     15  C   UNL     1       5.073   6.725  16.969  0.00  0.00    +0.000 C 
ATOM     16  H   UNL     1       2.064   3.079  21.588  0.00  0.00    +0.000 HD
ATOM     17  H   UNL     1       1.296   4.467  22.266  0.00  0.00    +0.000 HD
ENDROOT
BRANCH   4  18
ATOM     18  C   UNL     1       6.644   4.749  14.851  0.00  0.00    +0.000 C 
ATOM     19  N   UNL     1       6.405   4.174  13.639  0.00  0.00    +0.000 N 
ATOM     20  O   UNL     1       7.580   5.530  15.006  0.00  0.00    +0.000 OA
ATOM     21  H   UNL     1       5.618   3.542  13.543  0.00  0.00    +0.000 HD
ATOM     22  H   UNL     1       7.000   4.400  12.858  0.00  0.00    +0.000 HD
ENDBRANCH   4  18
TORSDOF 1
ENDMDL
MODEL 5
REMARK VINA RESULT:      -6.7      2.413      5.325
REMARK  Name = 
REMARK  2 active torsions:
REMARK  status: ('A' for Active; 'I' for Inactive)
REMARK    1  A    between atoms: C_1  and  N_2
REMARK    2  A    between atoms: C_4  and  C_5
REMARK                            x       y       z     vdW  Elec       q    Type
REMARK                         _______ _______ _______ _____ _____    ______ ____
ROOT
ATOM      1  C   UNL     1       4.643   5.547  16.779  0.00  0.00    +0.000 C 
ATOM      2  N   UNL     1       3.769   6.383  17.570  0.00  0.00    +0.000 N 
ATOM      3  N   UNL     1       3.450   7.627  17.121  0.00  0.00    +0.000 NA
ATOM      4  C   UNL     1       2.617   8.125  18.064  0.00  0.00    +0.000 A 
ATOM      5  C   UNL     1       2.415   7.177  19.092  0.00  0.00    +0.000 A 
ATOM      6  C   UNL     1       3.162   6.067  18.750  0.00  0.00    +0.000 A 
ATOM      7  C   UNL     1       3.187   4.851  19.550  0.00  0.00    +0.000 A 
ATOM      8  N   UNL     1       4.121   3.922  19.290  0.00  0.00    +0.000 NA
ATOM      9  C   UNL     1       4.090   2.847  20.086  0.00  0.00    +0.000 A 
ATOM     10  N   UNL     1       5.025   1.854  19.874  0.00  0.00    +0.000 N 
ATOM     11  N   UNL     1       3.246   2.660  21.109  0.00  0.00    +0.000 NA
ATOM     12  C   UNL     1       2.327   3.619  21.327  0.00  0.00    +0.000 A 
ATOM     13  C   UNL     1       2.248   4.761  20.573  0.00  0.00    +0.000 A 
ATOM     14  C   UNL     1       1.169   5.800  20.754  0.00  0.00    +0.000 C 
ATOM     15  C   UNL     1       1.611   7.223  20.345  0.00  0.00    +0.000 C 
ATOM     16  H   UNL     1       5.854   2.237  19.446  0.00  0.00    +0.000 HD
ATOM     17  H   UNL     1       5.146   1.326  20.727  0.00  0.00    +0.000 HD
ENDROOT
BRANCH   4  18
ATOM     18  C   UNL     1       2.024   9.469  17.970  0.00  0.00    +0.000 C 
ATOM     19  N   UNL     1       0.681   9.494  17.738  0.00  0.00    +0.000 N 
ATOM     20  O   UNL     1       2.663  10.511  18.097  0.00  0.00    +0.000 OA
ATOM     21  H   UNL     1       0.183   8.616  17.648  0.00  0.00    +0.000 HD
ATOM     22  H   UNL     1       0.206  10.381  17.679  0.00  0.00    +0.000 HD
ENDBRANCH   4  18
TORSDOF 1
ENDMDL
MODEL 6
REMARK VINA RESULT:      -6.6      2.777      5.832
REMARK  Name = 
REMARK  2 active torsions:
REMARK  status: ('A' for Active; 'I' for Inactive)
REMARK    1  A    between atoms: C_1  and  N_2
REMARK    2  A    between atoms: C_4  and  C_5
REMARK                            x       y       z     vdW  Elec       q    Type
REMARK                         _______ _______ _______ _____ _____    ______ ____
ROOT
ATOM      1  C   UNL     1       1.976   4.400  21.220  0.00  0.00    +0.000 C 
ATOM      2  N   UNL     1       2.002   5.662  20.513  0.00  0.00    +0.000 N 
ATOM      3  N   UNL     1       1.398   6.748  21.066  0.00  0.00    +0.000 NA
ATOM      4  C   UNL     1       1.620   7.747  20.180  0.00  0.00    +0.000 A 
ATOM      5  C   UNL     1       2.375   7.273  19.084  0.00  0.00    +0.000 A 
ATOM      6  C   UNL     1       2.611   5.933  19.323  0.00  0.00    +0.000 A 
ATOM      7  C   UNL     1       3.395   5.094  18.429  0.00  0.00    +0.000 A 
ATOM      8  N   UNL     1       3.367   3.763  18.598  0.00  0.00    +0.000 NA
ATOM      9  C   UNL     1       4.096   3.063  17.719  0.00  0.00    +0.000 A 
ATOM     10  N   UNL     1       4.108   1.688  17.834  0.00  0.00    +0.000 N 
ATOM     11  N   UNL     1       4.793   3.581  16.700  0.00  0.00    +0.000 NA
ATOM     12  C   UNL     1       4.792   4.921  16.576  0.00  0.00    +0.000 A 
ATOM     13  C   UNL     1       4.096   5.747  17.419  0.00  0.00    +0.000 A 
ATOM     14  C   UNL     1       4.156   7.253  17.341  0.00  0.00    +0.000 C 
ATOM     15  C   UNL     1       2.875   7.947  17.853  0.00  0.00    +0.000 C 
ATOM     16  H   UNL     1       3.262   1.364  18.277  0.00  0.00    +0.000 HD
ATOM     17  H   UNL     1       4.349   1.283  16.940  0.00  0.00    +0.000 HD
ENDROOT
BRANCH   4  18
ATOM     18  C   UNL     1       1.130   9.118  20.392  0.00  0.00    +0.000 C 
ATOM     19  N   UNL     1       1.165   9.553  21.683  0.00  0.00    +0.000 N 
ATOM     20  O   UNL     1       0.725   9.848  19.490  0.00  0.00    +0.000 OA
ATOM     21  H   UNL     1       1.515   8.929  22.400  0.00  0.00    +0.000 HD
ATOM     22  H   UNL     1       0.860  10.489  21.898  0.00  0.00    +0.000 HD
ENDBRANCH   4  18
TORSDOF 1
ENDMDL
MODEL 7
REMARK VINA RESULT:      -6.5      3.296      4.881
REMARK  Name = 
REMARK  2 active torsions:
REMARK  status: ('A' for Active; 'I' for Inactive)
REMARK    1  A    between atoms: C_1  and  N_2
REMARK    2  A    between atoms: C_4  and  C_5
REMARK                            x       y       z     vdW  Elec       q    Type
REMARK                         _______ _______ _______ _____ _____    ______ ____
ROOT
ATOM      1  C   UNL     1       4.315   1.299  17.702  0.00  0.00    +0.000 C 
ATOM      2  N   UNL     1       3.645   2.443  18.278  0.00  0.00    +0.000 N 
ATOM      3  N   UNL     1       2.832   2.267  19.355  0.00  0.00    +0.000 NA
ATOM      4  C   UNL     1       2.389   3.511  19.652  0.00  0.00    +0.000 A 
ATOM      5  C   UNL     1       2.942   4.457  18.759  0.00  0.00    +0.000 A 
ATOM      6  C   UNL     1       3.747   3.746  17.889  0.00  0.00    +0.000 A 
ATOM      7  C   UNL     1       4.525   4.378  16.835  0.00  0.00    +0.000 A 
ATOM      8  N   UNL     1       5.077   3.608  15.884  0.00  0.00    +0.000 NA
ATOM      9  C   UNL     1       5.755   4.269  14.938  0.00  0.00    +0.000 A 
ATOM     10  N   UNL     1       6.345   3.536  13.929  0.00  0.00    +0.000 N 
ATOM     11  N   UNL     1       5.884   5.600  14.860  0.00  0.00    +0.000 NA
ATOM     12  C   UNL     1       5.316   6.328  15.838  0.00  0.00    +0.000 A 
ATOM     13  C   UNL     1       4.606   5.767  16.869  0.00  0.00    +0.000 A 
ATOM     14  C   UNL     1       4.038   6.567  18.015  0.00  0.00    +0.000 C 
ATOM     15  C   UNL     1       2.778   5.933  18.644  0.00  0.00    +0.000 C 
ATOM     16  H   UNL     1       5.852   2.667  13.790  0.00  0.00    +0.000 HD
ATOM     17  H   UNL     1       6.474   4.129  13.120  0.00  0.00    +0.000 HD
ENDROOT
BRANCH   4  18
ATOM     18  C   UNL     1       1.472   3.781  20.770  0.00  0.00    +0.000 C 
ATOM     19  N   UNL     1       1.789   3.161  21.942  0.00  0.00    +0.000 N 
ATOM     20  O   UNL     1       0.489   4.514  20.689  0.00  0.00    +0.000 OA
ATOM     21  H   UNL     1       2.612   2.571  21.976  0.00  0.00    +0.000 HD
ATOM     22  H   UNL     1       1.213   3.315  22.755  0.00  0.00    +0.000 HD
ENDBRANCH   4  18
TORSDOF 1
ENDMDL
MODEL 8
REMARK VINA RESULT:      -6.5      3.157      5.284
REMARK  Name = 
REMARK  2 active torsions:
REMARK  status: ('A' for Active; 'I' for Inactive)
REMARK    1  A    between atoms: C_1  and  N_2
REMARK    2  A    between atoms: C_4  and  C_5
REMARK                            x       y       z     vdW  Elec       q    Type
REMARK                         _______ _______ _______ _____ _____    ______ ____
ROOT
ATOM      1  C   UNL     1       2.832   2.151  16.823  0.00  0.00    +0.000 C 
ATOM      2  N   UNL     1       3.137   3.091  17.878  0.00  0.00    +0.000 N 
ATOM      3  N   UNL     1       2.335   3.143  18.977  0.00  0.00    +0.000 NA
ATOM      4  C   UNL     1       2.898   4.090  19.762  0.00  0.00    +0.000 A 
ATOM      5  C   UNL     1       4.059   4.614  19.148  0.00  0.00    +0.000 A 
ATOM      6  C   UNL     1       4.191   3.953  17.942  0.00  0.00    +0.000 A 
ATOM      7  C   UNL     1       5.297   4.192  17.026  0.00  0.00    +0.000 A 
ATOM      8  N   UNL     1       5.223   3.704  15.778  0.00  0.00    +0.000 NA
ATOM      9  C   UNL     1       6.269   3.988  14.993  0.00  0.00    +0.000 A 
ATOM     10  N   UNL     1       6.255   3.518  13.695  0.00  0.00    +0.000 N 
ATOM     11  N   UNL     1       7.327   4.730  15.345  0.00  0.00    +0.000 NA
ATOM     12  C   UNL     1       7.356   5.194  16.608  0.00  0.00    +0.000 A 
ATOM     13  C   UNL     1       6.352   4.960  17.511  0.00  0.00    +0.000 A 
ATOM     14  C   UNL     1       6.414   5.403  18.952  0.00  0.00    +0.000 C 
ATOM     15  C   UNL     1       5.025   5.663  19.577  0.00  0.00    +0.000 C 
ATOM     16  H   UNL     1       5.306   3.392  13.377  0.00  0.00    +0.000 HD
ATOM     17  H   UNL     1       6.862   4.094  13.128  0.00  0.00    +0.000 HD
ENDROOT
BRANCH   4  18
ATOM     18  C   UNL     1       2.342   4.469  21.071  0.00  0.00    +0.000 C 
ATOM     19  N   UNL     1       1.907   5.756  21.164  0.00  0.00    +0.000 N 
ATOM     20  O   UNL     1       2.253   3.701  22.026  0.00  0.00    +0.000 OA
ATOM     21  H   UNL     1       1.986   6.360  20.354  0.00  0.00    +0.000 HD
ATOM     22  H   UNL     1       1.499   6.079  22.028  0.00  0.00    +0.000 HD
ENDBRANCH   4  18
TORSDOF 1
ENDMDL
MODEL 9
REMARK VINA RESULT:      -6.4      2.411      5.224
REMARK  Name = 
REMARK  2 active torsions:
REMARK  status: ('A' for Active; 'I' for Inactive)
REMARK    1  A    between atoms: C_1  and  N_2
REMARK    2  A    between atoms: C_4  and  C_5
REMARK                            x       y       z     vdW  Elec       q    Type
REMARK                         _______ _______ _______ _____ _____    ______ ____
ROOT
ATOM      1  C   UNL     1       3.567   7.694  17.343  0.00  0.00    +0.000 C 
ATOM      2  N   UNL     1       2.856   7.312  18.543  0.00  0.00    +0.000 N 
ATOM      3  N   UNL     1       2.240   8.271  19.286  0.00  0.00    +0.000 NA
ATOM      4  C   UNL     1       1.664   7.593  20.305  0.00  0.00    +0.000 A 
ATOM      5  C   UNL     1       1.917   6.208  20.179  0.00  0.00    +0.000 A 
ATOM      6  C   UNL     1       2.681   6.054  19.039  0.00  0.00    +0.000 A 
ATOM      7  C   UNL     1       3.119   4.756  18.548  0.00  0.00    +0.000 A 
ATOM      8  N   UNL     1       4.057   4.708  17.589  0.00  0.00    +0.000 NA
ATOM      9  C   UNL     1       4.421   3.476  17.210  0.00  0.00    +0.000 A 
ATOM     10  N   UNL     1       5.384   3.355  16.230  0.00  0.00    +0.000 N 
ATOM     11  N   UNL     1       3.956   2.333  17.732  0.00  0.00    +0.000 NA
ATOM     12  C   UNL     1       3.016   2.435  18.688  0.00  0.00    +0.000 A 
ATOM     13  C   UNL     1       2.550   3.639  19.152  0.00  0.00    +0.000 A 
ATOM     14  C   UNL     1       1.436   3.763  20.161  0.00  0.00    +0.000 C 
ATOM     15  C   UNL     1       1.525   5.043  21.021  0.00  0.00    +0.000 C 
ATOM     16  H   UNL     1       5.984   4.167  16.222  0.00  0.00    +0.000 HD
ATOM     17  H   UNL     1       5.829   2.452  16.312  0.00  0.00    +0.000 HD
ENDROOT
BRANCH   4  18
ATOM     18  C   UNL     1       0.881   8.257  21.359  0.00  0.00    +0.000 C 
ATOM     19  N   UNL     1       1.617   8.915  22.298  0.00  0.00    +0.000 N 
ATOM     20  O   UNL     1      -0.347   8.247  21.411  0.00  0.00    +0.000 OA
ATOM     21  H   UNL     1       2.627   8.912  22.220  0.00  0.00    +0.000 HD
ATOM     22  H   UNL     1       1.145   9.408  23.041  0.00  0.00    +0.000 HD
ENDBRANCH   4  18
TORSDOF 1
ENDMDL
