MODEL 1
REMARK VINA RESULT:      -7.1      0.000      0.000
REMARK  Name = 
REMARK  11 active torsions:
REMARK  status: ('A' for Active; 'I' for Inactive)
REMARK    1  A    between atoms: C_1  and  N_2
REMARK    2  A    between atoms: N_2  and  C_3
REMARK    3  A    between atoms: N_2  and  C_4
REMARK    4  A    between atoms: C_7  and  C_8
REMARK    5  A    between atoms: C_8  and  N_9
REMARK    6  A    between atoms: N_12  and  C_13
REMARK    7  A    between atoms: C_13  and  C_14
REMARK    8  A    between atoms: C_14  and  C_15
REMARK    9  A    between atoms: C_15  and  C_16
REMARK   10  A    between atoms: C_16  and  C_17
REMARK   11  A    between atoms: N_19  and  O_20
REMARK                            x       y       z     vdW  Elec       q    Type
REMARK                         _______ _______ _______ _____ _____    ______ ____
ROOT
ATOM      1  N   UNL     1       7.069   7.287  16.801  0.00  0.00    +0.000 N 
ATOM      2  C   UNL     1       7.861   7.621  17.865  0.00  0.00    +0.000 C 
ATOM      3  O   UNL     1       8.241   6.818  18.709  0.00  0.00    +0.000 OA
ATOM      4  N   UNL     1       8.167   8.955  17.888  0.00  0.00    +0.000 N 
ATOM      5  H   UNL     1       7.116   7.884  15.991  0.00  0.00    +0.000 HD
ATOM      6  H   UNL     1       7.656   9.568  17.269  0.00  0.00    +0.000 HD
ENDROOT
BRANCH   1   7
ATOM      7  C   UNL     1       6.750   5.896  16.565  0.00  0.00    +0.000 C 
BRANCH   7  11
ATOM      8  C   UNL     1       3.006   4.742  18.504  0.00  0.00    +0.000 A 
ATOM      9  C   UNL     1       3.998   3.801  18.178  0.00  0.00    +0.000 A 
ATOM     10  C   UNL     1       5.194   4.161  17.538  0.00  0.00    +0.000 A 
ATOM     11  C   UNL     1       5.452   5.493  17.210  0.00  0.00    +0.000 A 
ATOM     12  C   UNL     1       4.499   6.452  17.558  0.00  0.00    +0.000 A 
ATOM     13  C   UNL     1       3.304   6.079  18.191  0.00  0.00    +0.000 A 
BRANCH   8  15
ATOM     14  C   UNL     1       1.524   4.830  20.484  0.00  0.00    +0.000 C 
ATOM     15  N   UNL     1       1.807   4.382  19.124  0.00  0.00    +0.000 N 
ATOM     16  C   UNL     1       1.128   3.168  18.679  0.00  0.00    +0.000 C 
ENDBRANCH   8  15
ENDBRANCH   7  11
ENDBRANCH   1   7
BRANCH   4  17
ATOM     17  C   UNL     1       8.917   9.545  18.978  0.00  0.00    +0.000 C 
BRANCH  17  18
ATOM     18  C   UNL     1       9.204  11.029  18.751  0.00  0.00    +0.000 C 
BRANCH  18  19
ATOM     19  C   UNL     1      10.305  11.279  17.711  0.00  0.00    +0.000 C 
BRANCH  19  20
ATOM     20  C   UNL     1      11.320  12.323  18.179  0.00  0.00    +0.000 C 
BRANCH  20  21
ATOM     21  C   UNL     1      10.982  13.725  17.712  0.00  0.00    +0.000 C 
ATOM     22  O   UNL     1      10.479  14.591  18.424  0.00  0.00    +0.000 OA
ATOM     23  N   UNL     1      11.322  13.970  16.404  0.00  0.00    +0.000 N 
ATOM     24  H   UNL     1      11.555  13.250  15.728  0.00  0.00    +0.000 HD
BRANCH  23  25
ATOM     25  O   UNL     1      10.932  15.226  15.888  0.00  0.00    +0.000 OA
ATOM     26  H   UNL     1      10.213  15.492  16.504  0.00  0.00    +0.000 HD
ENDBRANCH  23  25
ENDBRANCH  20  21
ENDBRANCH  19  20
ENDBRANCH  18  19
ENDBRANCH  17  18
ENDBRANCH   4  17
TORSDOF 9
ENDMDL
MODEL 2
REMARK VINA RESULT:      -7.0      0.960      1.316
REMARK  Name = 
REMARK  11 active torsions:
REMARK  status: ('A' for Active; 'I' for Inactive)
REMARK    1  A    between atoms: C_1  and  N_2
REMARK    2  A    between atoms: N_2  and  C_3
REMARK    3  A    between atoms: N_2  and  C_4
REMARK    4  A    between atoms: C_7  and  C_8
REMARK    5  A    between atoms: C_8  and  N_9
REMARK    6  A    between atoms: N_12  and  C_13
REMARK    7  A    between atoms: C_13  and  C_14
REMARK    8  A    between atoms: C_14  and  C_15
REMARK    9  A    between atoms: C_15  and  C_16
REMARK   10  A    between atoms: C_16  and  C_17
REMARK   11  A    between atoms: N_19  and  O_20
REMARK                            x       y       z     vdW  Elec       q    Type
REMARK                         _______ _______ _______ _____ _____    ______ ____
ROOT
ATOM      1  N   UNL     1       6.571   6.856  16.747  0.00  0.00    +0.000 N 
ATOM      2  C   UNL     1       7.477   7.333  17.653  0.00  0.00    +0.000 C 
ATOM      3  O   UNL     1       8.024   6.636  18.500  0.00  0.00    +0.000 OA
ATOM      4  N   UNL     1       7.691   8.678  17.519  0.00  0.00    +0.000 N 
ATOM      5  H   UNL     1       6.465   7.376  15.890  0.00  0.00    +0.000 HD
ATOM      6  H   UNL     1       7.058   9.200  16.930  0.00  0.00    +0.000 HD
ENDROOT
BRANCH   1   7
ATOM      7  C   UNL     1       6.320   5.434  16.678  0.00  0.00    +0.000 C 
BRANCH   7  11
ATOM      8  C   UNL     1       2.997   4.158  19.216  0.00  0.00    +0.000 A 
ATOM      9  C   UNL     1       2.817   5.050  18.145  0.00  0.00    +0.000 A 
ATOM     10  C   UNL     1       3.883   5.480  17.338  0.00  0.00    +0.000 A 
ATOM     11  C   UNL     1       5.179   5.015  17.566  0.00  0.00    +0.000 A 
ATOM     12  C   UNL     1       5.377   4.098  18.599  0.00  0.00    +0.000 A 
ATOM     13  C   UNL     1       4.305   3.682  19.403  0.00  0.00    +0.000 A 
BRANCH   8  15
ATOM     14  C   UNL     1       2.123   3.657  21.477  0.00  0.00    +0.000 C 
ATOM     15  N   UNL     1       1.940   3.744  20.031  0.00  0.00    +0.000 N 
ATOM     16  C   UNL     1       0.898   2.903  19.449  0.00  0.00    +0.000 C 
ENDBRANCH   8  15
ENDBRANCH   7  11
ENDBRANCH   1   7
BRANCH   4  17
ATOM     17  C   UNL     1       8.541   9.409  18.436  0.00  0.00    +0.000 C 
BRANCH  17  18
ATOM     18  C   UNL     1       9.215  10.610  17.773  0.00  0.00    +0.000 C 
BRANCH  18  19
ATOM     19  C   UNL     1      10.111  11.406  18.732  0.00  0.00    +0.000 C 
BRANCH  19  20
ATOM     20  C   UNL     1      11.487  11.699  18.135  0.00  0.00    +0.000 C 
BRANCH  20  21
ATOM     21  C   UNL     1      11.649  13.144  17.706  0.00  0.00    +0.000 C 
ATOM     22  O   UNL     1      12.333  13.972  18.304  0.00  0.00    +0.000 OA
ATOM     23  N   UNL     1      10.980  13.457  16.548  0.00  0.00    +0.000 N 
ATOM     24  H   UNL     1      10.259  12.879  16.130  0.00  0.00    +0.000 HD
BRANCH  23  25
ATOM     25  O   UNL     1      11.012  14.816  16.164  0.00  0.00    +0.000 OA
ATOM     26  H   UNL     1      11.393  14.769  15.258  0.00  0.00    +0.000 HD
ENDBRANCH  23  25
ENDBRANCH  20  21
ENDBRANCH  19  20
ENDBRANCH  18  19
ENDBRANCH  17  18
ENDBRANCH   4  17
TORSDOF 9
ENDMDL
MODEL 3
REMARK VINA RESULT:      -6.9      1.280      1.762
REMARK  Name = 
REMARK  11 active torsions:
REMARK  status: ('A' for Active; 'I' for Inactive)
REMARK    1  A    between atoms: C_1  and  N_2
REMARK    2  A    between atoms: N_2  and  C_3
REMARK    3  A    between atoms: N_2  and  C_4
REMARK    4  A    between atoms: C_7  and  C_8
REMARK    5  A    between atoms: C_8  and  N_9
REMARK    6  A    between atoms: N_12  and  C_13
REMARK    7  A    between atoms: C_13  and  C_14
REMARK    8  A    between atoms: C_14  and  C_15
REMARK    9  A    between atoms: C_15  and  C_16
REMARK   10  A    between atoms: C_16  and  C_17
REMARK   11  A    between atoms: N_19  and  O_20
REMARK                            x       y       z     vdW  Elec       q    Type
REMARK                         _______ _______ _______ _____ _____    ______ ____
ROOT
ATOM      1  N   UNL     1       6.275   6.653  16.385  0.00  0.00    +0.000 N 
ATOM      2  C   UNL     1       7.193   6.878  17.373  0.00  0.00    +0.000 C 
ATOM      3  O   UNL     1       7.618   6.003  18.118  0.00  0.00    +0.000 OA
ATOM      4  N   UNL     1       7.571   8.191  17.444  0.00  0.00    +0.000 N 
ATOM      5  H   UNL     1       6.267   7.300  15.613  0.00  0.00    +0.000 HD
ATOM      6  H   UNL     1       7.030   8.867  16.925  0.00  0.00    +0.000 HD
ENDROOT
BRANCH   1   7
ATOM      7  C   UNL     1       5.859   5.297  16.100  0.00  0.00    +0.000 C 
BRANCH   7  11
ATOM      8  C   UNL     1       2.372   4.078  18.437  0.00  0.00    +0.000 A 
ATOM      9  C   UNL     1       2.612   5.422  18.102  0.00  0.00    +0.000 A 
ATOM     10  C   UNL     1       3.740   5.823  17.369  0.00  0.00    +0.000 A 
ATOM     11  C   UNL     1       4.671   4.882  16.925  0.00  0.00    +0.000 A 
ATOM     12  C   UNL     1       4.434   3.537  17.212  0.00  0.00    +0.000 A 
ATOM     13  C   UNL     1       3.307   3.149  17.952  0.00  0.00    +0.000 A 
BRANCH   8  15
ATOM     14  C   UNL     1       1.075   4.174  20.544  0.00  0.00    +0.000 C 
ATOM     15  N   UNL     1       1.259   3.679  19.183  0.00  0.00    +0.000 N 
ATOM     16  C   UNL     1       0.617   2.409  18.854  0.00  0.00    +0.000 C 
ENDBRANCH   8  15
ENDBRANCH   7  11
ENDBRANCH   1   7
BRANCH   4  17
ATOM     17  C   UNL     1       8.464   8.671  18.479  0.00  0.00    +0.000 C 
BRANCH  17  18
ATOM     18  C   UNL     1       8.744  10.168  18.357  0.00  0.00    +0.000 C 
BRANCH  18  19
ATOM     19  C   UNL     1       9.673  10.701  19.457  0.00  0.00    +0.000 C 
BRANCH  19  20
ATOM     20  C   UNL     1      10.907  11.401  18.888  0.00  0.00    +0.000 C 
BRANCH  20  21
ATOM     21  C   UNL     1      10.581  12.721  18.218  0.00  0.00    +0.000 C 
ATOM     22  O   UNL     1      10.823  12.980  17.041  0.00  0.00    +0.000 OA
ATOM     23  N   UNL     1       9.947  13.619  19.042  0.00  0.00    +0.000 N 
ATOM     24  H   UNL     1       9.899  13.534  20.052  0.00  0.00    +0.000 HD
BRANCH  23  25
ATOM     25  O   UNL     1       9.717  14.902  18.498  0.00  0.00    +0.000 OA
ATOM     26  H   UNL     1       9.266  15.366  19.239  0.00  0.00    +0.000 HD
ENDBRANCH  23  25
ENDBRANCH  20  21
ENDBRANCH  19  20
ENDBRANCH  18  19
ENDBRANCH  17  18
ENDBRANCH   4  17
TORSDOF 9
ENDMDL
MODEL 4
REMARK VINA RESULT:      -6.8      1.932      2.629
REMARK  Name = 
REMARK  11 active torsions:
REMARK  status: ('A' for Active; 'I' for Inactive)
REMARK    1  A    between atoms: C_1  and  N_2
REMARK    2  A    between atoms: N_2  and  C_3
REMARK    3  A    between atoms: N_2  and  C_4
REMARK    4  A    between atoms: C_7  and  C_8
REMARK    5  A    between atoms: C_8  and  N_9
REMARK    6  A    between atoms: N_12  and  C_13
REMARK    7  A    between atoms: C_13  and  C_14
REMARK    8  A    between atoms: C_14  and  C_15
REMARK    9  A    between atoms: C_15  and  C_16
REMARK   10  A    between atoms: C_16  and  C_17
REMARK   11  A    between atoms: N_19  and  O_20
REMARK                            x       y       z     vdW  Elec       q    Type
REMARK                         _______ _______ _______ _____ _____    ______ ____
ROOT
ATOM      1  N   UNL     1       8.609   8.681  18.576  0.00  0.00    +0.000 N 
ATOM      2  C   UNL     1       8.888   9.997  18.820  0.00  0.00    +0.000 C 
ATOM      3  O   UNL     1       8.646  10.901  18.030  0.00  0.00    +0.000 OA
ATOM      4  N   UNL     1       9.483  10.186  20.038  0.00  0.00    +0.000 N 
ATOM      5  H   UNL     1       8.489   8.083  19.378  0.00  0.00    +0.000 HD
ATOM      6  H   UNL     1       9.817   9.372  20.533  0.00  0.00    +0.000 HD
ENDROOT
BRANCH   1   7
ATOM      7  C   UNL     1       7.875   8.322  17.383  0.00  0.00    +0.000 C 
BRANCH   7  11
ATOM      8  C   UNL     1       5.271   4.876  18.055  0.00  0.00    +0.000 A 
ATOM      9  C   UNL     1       6.471   5.053  18.765  0.00  0.00    +0.000 A 
ATOM     10  C   UNL     1       7.322   6.147  18.540  0.00  0.00    +0.000 A 
ATOM     11  C   UNL     1       6.992   7.123  17.598  0.00  0.00    +0.000 A 
ATOM     12  C   UNL     1       5.786   6.989  16.908  0.00  0.00    +0.000 A 
ATOM     13  C   UNL     1       4.948   5.888  17.136  0.00  0.00    +0.000 A 
BRANCH   8  15
ATOM     14  C   UNL     1       3.153   3.691  17.568  0.00  0.00    +0.000 C 
ATOM     15  N   UNL     1       4.433   3.778  18.264  0.00  0.00    +0.000 N 
ATOM     16  C   UNL     1       4.547   3.043  19.521  0.00  0.00    +0.000 C 
ENDBRANCH   8  15
ENDBRANCH   7  11
ENDBRANCH   1   7
BRANCH   4  17
ATOM     17  C   UNL     1       9.950  11.491  20.462  0.00  0.00    +0.000 C 
BRANCH  17  18
ATOM     18  C   UNL     1      11.349  11.807  19.933  0.00  0.00    +0.000 C 
BRANCH  18  19
ATOM     19  C   UNL     1      11.595  13.309  19.735  0.00  0.00    +0.000 C 
BRANCH  19  20
ATOM     20  C   UNL     1      10.438  13.997  19.010  0.00  0.00    +0.000 C 
BRANCH  20  21
ATOM     21  C   UNL     1      10.721  14.232  17.539  0.00  0.00    +0.000 C 
ATOM     22  O   UNL     1      11.159  13.377  16.772  0.00  0.00    +0.000 OA
ATOM     23  N   UNL     1      10.409  15.499  17.111  0.00  0.00    +0.000 N 
ATOM     24  H   UNL     1      10.234  16.285  17.727  0.00  0.00    +0.000 HD
BRANCH  23  25
ATOM     25  O   UNL     1      10.753  15.802  15.773  0.00  0.00    +0.000 OA
ATOM     26  H   UNL     1      11.715  15.596  15.753  0.00  0.00    +0.000 HD
ENDBRANCH  23  25
ENDBRANCH  20  21
ENDBRANCH  19  20
ENDBRANCH  18  19
ENDBRANCH  17  18
ENDBRANCH   4  17
TORSDOF 9
ENDMDL
MODEL 5
REMARK VINA RESULT:      -6.8      1.333      1.649
REMARK  Name = 
REMARK  11 active torsions:
REMARK  status: ('A' for Active; 'I' for Inactive)
REMARK    1  A    between atoms: C_1  and  N_2
REMARK    2  A    between atoms: N_2  and  C_3
REMARK    3  A    between atoms: N_2  and  C_4
REMARK    4  A    between atoms: C_7  and  C_8
REMARK    5  A    between atoms: C_8  and  N_9
REMARK    6  A    between atoms: N_12  and  C_13
REMARK    7  A    between atoms: C_13  and  C_14
REMARK    8  A    between atoms: C_14  and  C_15
REMARK    9  A    between atoms: C_15  and  C_16
REMARK   10  A    between atoms: C_16  and  C_17
REMARK   11  A    between atoms: N_19  and  O_20
REMARK                            x       y       z     vdW  Elec       q    Type
REMARK                         _______ _______ _______ _____ _____    ______ ____
ROOT
ATOM      1  N   UNL     1       7.562   5.792  17.328  0.00  0.00    +0.000 N 
ATOM      2  C   UNL     1       7.373   7.146  17.299  0.00  0.00    +0.000 C 
ATOM      3  O   UNL     1       6.530   7.700  16.604  0.00  0.00    +0.000 OA
ATOM      4  N   UNL     1       8.243   7.811  18.120  0.00  0.00    +0.000 N 
ATOM      5  H   UNL     1       7.983   5.407  18.159  0.00  0.00    +0.000 HD
ATOM      6  H   UNL     1       9.023   7.294  18.501  0.00  0.00    +0.000 HD
ENDROOT
BRANCH   1   7
ATOM      7  C   UNL     1       6.648   4.934  16.606  0.00  0.00    +0.000 C 
BRANCH   7  11
ATOM      8  C   UNL     1       3.225   3.764  19.060  0.00  0.00    +0.000 A 
ATOM      9  C   UNL     1       4.431   4.212  19.628  0.00  0.00    +0.000 A 
ATOM     10  C   UNL     1       5.541   4.570  18.846  0.00  0.00    +0.000 A 
ATOM     11  C   UNL     1       5.480   4.508  17.453  0.00  0.00    +0.000 A 
ATOM     12  C   UNL     1       4.280   4.104  16.865  0.00  0.00    +0.000 A 
ATOM     13  C   UNL     1       3.180   3.741  17.656  0.00  0.00    +0.000 A 
BRANCH   8  15
ATOM     14  C   UNL     1       0.880   2.985  19.194  0.00  0.00    +0.000 C 
ATOM     15  N   UNL     1       2.126   3.389  19.837  0.00  0.00    +0.000 N 
ATOM     16  C   UNL     1       2.024   3.909  21.198  0.00  0.00    +0.000 C 
ENDBRANCH   8  15
ENDBRANCH   7  11
ENDBRANCH   1   7
BRANCH   4  17
ATOM     17  C   UNL     1       8.284   9.258  18.173  0.00  0.00    +0.000 C 
BRANCH  17  18
ATOM     18  C   UNL     1       9.043   9.775  19.395  0.00  0.00    +0.000 C 
BRANCH  18  19
ATOM     19  C   UNL     1       9.899  11.013  19.096  0.00  0.00    +0.000 C 
BRANCH  19  20
ATOM     20  C   UNL     1       9.433  11.754  17.842  0.00  0.00    +0.000 C 
BRANCH  20  21
ATOM     21  C   UNL     1      10.041  13.137  17.714  0.00  0.00    +0.000 C 
ATOM     22  O   UNL     1      10.037  13.982  18.607  0.00  0.00    +0.000 OA
ATOM     23  N   UNL     1      10.642  13.367  16.500  0.00  0.00    +0.000 N 
ATOM     24  H   UNL     1      10.507  12.791  15.677  0.00  0.00    +0.000 HD
BRANCH  23  25
ATOM     25  O   UNL     1      11.130  14.677  16.291  0.00  0.00    +0.000 OA
ATOM     26  H   UNL     1      10.725  15.173  17.037  0.00  0.00    +0.000 HD
ENDBRANCH  23  25
ENDBRANCH  20  21
ENDBRANCH  19  20
ENDBRANCH  18  19
ENDBRANCH  17  18
ENDBRANCH   4  17
TORSDOF 9
ENDMDL
MODEL 6
REMARK VINA RESULT:      -6.7      1.459      1.748
REMARK  Name = 
REMARK  11 active torsions:
REMARK  status: ('A' for Active; 'I' for Inactive)
REMARK    1  A    between atoms: C_1  and  N_2
REMARK    2  A    between atoms: N_2  and  C_3
REMARK    3  A    between atoms: N_2  and  C_4
REMARK    4  A    between atoms: C_7  and  C_8
REMARK    5  A    between atoms: C_8  and  N_9
REMARK    6  A    between atoms: N_12  and  C_13
REMARK    7  A    between atoms: C_13  and  C_14
REMARK    8  A    between atoms: C_14  and  C_15
REMARK    9  A    between atoms: C_15  and  C_16
REMARK   10  A    between atoms: C_16  and  C_17
REMARK   11  A    between atoms: N_19  and  O_20
REMARK                            x       y       z     vdW  Elec       q    Type
REMARK                         _______ _______ _______ _____ _____    ______ ____
ROOT
ATOM      1  N   UNL     1       7.700   5.691  17.665  0.00  0.00    +0.000 N 
ATOM      2  C   UNL     1       7.396   6.996  17.389  0.00  0.00    +0.000 C 
ATOM      3  O   UNL     1       6.607   7.341  16.517  0.00  0.00    +0.000 OA
ATOM      4  N   UNL     1       8.085   7.871  18.185  0.00  0.00    +0.000 N 
ATOM      5  H   UNL     1       8.038   5.488  18.592  0.00  0.00    +0.000 HD
ATOM      6  H   UNL     1       8.849   7.508  18.735  0.00  0.00    +0.000 HD
ENDROOT
BRANCH   1   7
ATOM      7  C   UNL     1       6.972   4.638  16.993  0.00  0.00    +0.000 C 
BRANCH   7  11
ATOM      8  C   UNL     1       3.135   3.782  18.905  0.00  0.00    +0.000 A 
ATOM      9  C   UNL     1       3.413   3.392  17.584  0.00  0.00    +0.000 A 
ATOM     10  C   UNL     1       4.635   3.681  16.956  0.00  0.00    +0.000 A 
ATOM     11  C   UNL     1       5.642   4.364  17.641  0.00  0.00    +0.000 A 
ATOM     12  C   UNL     1       5.404   4.728  18.967  0.00  0.00    +0.000 A 
ATOM     13  C   UNL     1       4.176   4.441  19.581  0.00  0.00    +0.000 A 
BRANCH   8  15
ATOM     14  C   UNL     1       0.862   2.809  18.794  0.00  0.00    +0.000 C 
ATOM     15  N   UNL     1       1.912   3.512  19.524  0.00  0.00    +0.000 N 
ATOM     16  C   UNL     1       1.483   4.371  20.625  0.00  0.00    +0.000 C 
ENDBRANCH   8  15
ENDBRANCH   7  11
ENDBRANCH   1   7
BRANCH   4  17
ATOM     17  C   UNL     1       7.988   9.305  18.001  0.00  0.00    +0.000 C 
BRANCH  17  18
ATOM     18  C   UNL     1       9.330  10.008  18.198  0.00  0.00    +0.000 C 
BRANCH  18  19
ATOM     19  C   UNL     1       9.351  10.940  19.417  0.00  0.00    +0.000 C 
BRANCH  19  20
ATOM     20  C   UNL     1       9.341  12.417  19.022  0.00  0.00    +0.000 C 
BRANCH  20  21
ATOM     21  C   UNL     1      10.489  12.791  18.106  0.00  0.00    +0.000 C 
ATOM     22  O   UNL     1      11.670  12.537  18.335  0.00  0.00    +0.000 OA
ATOM     23  N   UNL     1      10.094  13.423  16.952  0.00  0.00    +0.000 N 
ATOM     24  H   UNL     1       9.174  13.824  16.805  0.00  0.00    +0.000 HD
BRANCH  23  25
ATOM     25  O   UNL     1      11.134  13.888  16.115  0.00  0.00    +0.000 OA
ATOM     26  H   UNL     1      11.931  13.748  16.674  0.00  0.00    +0.000 HD
ENDBRANCH  23  25
ENDBRANCH  20  21
ENDBRANCH  19  20
ENDBRANCH  18  19
ENDBRANCH  17  18
ENDBRANCH   4  17
TORSDOF 9
ENDMDL
MODEL 7
REMARK VINA RESULT:      -6.6      1.040      1.168
REMARK  Name = 
REMARK  11 active torsions:
REMARK  status: ('A' for Active; 'I' for Inactive)
REMARK    1  A    between atoms: C_1  and  N_2
REMARK    2  A    between atoms: N_2  and  C_3
REMARK    3  A    between atoms: N_2  and  C_4
REMARK    4  A    between atoms: C_7  and  C_8
REMARK    5  A    between atoms: C_8  and  N_9
REMARK    6  A    between atoms: N_12  and  C_13
REMARK    7  A    between atoms: C_13  and  C_14
REMARK    8  A    between atoms: C_14  and  C_15
REMARK    9  A    between atoms: C_15  and  C_16
REMARK   10  A    between atoms: C_16  and  C_17
REMARK   11  A    between atoms: N_19  and  O_20
REMARK                            x       y       z     vdW  Elec       q    Type
REMARK                         _______ _______ _______ _____ _____    ______ ____
ROOT
ATOM      1  N   UNL     1       7.328   7.876  17.123  0.00  0.00    +0.000 N 
ATOM      2  C   UNL     1       8.140   8.599  17.952  0.00  0.00    +0.000 C 
ATOM      3  O   UNL     1       8.773   8.110  18.880  0.00  0.00    +0.000 OA
ATOM      4  N   UNL     1       8.151   9.932  17.640  0.00  0.00    +0.000 N 
ATOM      5  H   UNL     1       7.157   8.257  16.205  0.00  0.00    +0.000 HD
ATOM      6  H   UNL     1       7.455  10.270  16.991  0.00  0.00    +0.000 HD
ENDROOT
BRANCH   1   7
ATOM      7  C   UNL     1       7.295   6.435  17.244  0.00  0.00    +0.000 C 
BRANCH   7  11
ATOM      8  C   UNL     1       3.454   5.066  18.819  0.00  0.00    +0.000 A 
ATOM      9  C   UNL     1       4.647   4.946  19.554  0.00  0.00    +0.000 A 
ATOM     10  C   UNL     1       5.887   5.365  19.046  0.00  0.00    +0.000 A 
ATOM     11  C   UNL     1       5.978   5.941  17.778  0.00  0.00    +0.000 A 
ATOM     12  C   UNL     1       4.802   6.106  17.045  0.00  0.00    +0.000 A 
ATOM     13  C   UNL     1       3.570   5.676  17.559  0.00  0.00    +0.000 A 
BRANCH   8  15
ATOM     14  C   UNL     1       2.046   4.413  20.747  0.00  0.00    +0.000 C 
ATOM     15  N   UNL     1       2.222   4.631  19.315  0.00  0.00    +0.000 N 
ATOM     16  C   UNL     1       1.334   3.889  18.424  0.00  0.00    +0.000 C 
ENDBRANCH   8  15
ENDBRANCH   7  11
ENDBRANCH   1   7
BRANCH   4  17
ATOM     17  C   UNL     1       8.868  10.897  18.447  0.00  0.00    +0.000 C 
BRANCH  17  18
ATOM     18  C   UNL     1      10.321  11.061  18.003  0.00  0.00    +0.000 C 
BRANCH  18  19
ATOM     19  C   UNL     1      10.990  12.319  18.574  0.00  0.00    +0.000 C 
BRANCH  19  20
ATOM     20  C   UNL     1      11.947  12.973  17.578  0.00  0.00    +0.000 C 
BRANCH  20  21
ATOM     21  C   UNL     1      11.693  14.457  17.401  0.00  0.00    +0.000 C 
ATOM     22  O   UNL     1      11.952  15.310  18.247  0.00  0.00    +0.000 OA
ATOM     23  N   UNL     1      11.166  14.786  16.176  0.00  0.00    +0.000 N 
ATOM     24  H   UNL     1      10.759  14.119  15.530  0.00  0.00    +0.000 HD
BRANCH  23  25
ATOM     25  O   UNL     1      10.811  16.143  16.001  0.00  0.00    +0.000 OA
ATOM     26  H   UNL     1      11.687  16.591  16.009  0.00  0.00    +0.000 HD
ENDBRANCH  23  25
ENDBRANCH  20  21
ENDBRANCH  19  20
ENDBRANCH  18  19
ENDBRANCH  17  18
ENDBRANCH   4  17
TORSDOF 9
ENDMDL
MODEL 8
REMARK VINA RESULT:      -6.6      1.664      1.860
REMARK  Name = 
REMARK  11 active torsions:
REMARK  status: ('A' for Active; 'I' for Inactive)
REMARK    1  A    between atoms: C_1  and  N_2
REMARK    2  A    between atoms: N_2  and  C_3
REMARK    3  A    between atoms: N_2  and  C_4
REMARK    4  A    between atoms: C_7  and  C_8
REMARK    5  A    between atoms: C_8  and  N_9
REMARK    6  A    between atoms: N_12  and  C_13
REMARK    7  A    between atoms: C_13  and  C_14
REMARK    8  A    between atoms: C_14  and  C_15
REMARK    9  A    between atoms: C_15  and  C_16
REMARK   10  A    between atoms: C_16  and  C_17
REMARK   11  A    between atoms: N_19  and  O_20
REMARK                            x       y       z     vdW  Elec       q    Type
REMARK                         _______ _______ _______ _____ _____    ______ ____
ROOT
ATOM      1  N   UNL     1       7.789   5.869  18.333  0.00  0.00    +0.000 N 
ATOM      2  C   UNL     1       7.805   7.140  17.828  0.00  0.00    +0.000 C 
ATOM      3  O   UNL     1       7.393   7.434  16.712  0.00  0.00    +0.000 OA
ATOM      4  N   UNL     1       8.348   8.042  18.703  0.00  0.00    +0.000 N 
ATOM      5  H   UNL     1       7.785   5.776  19.337  0.00  0.00    +0.000 HD
ATOM      6  H   UNL     1       8.833   7.682  19.512  0.00  0.00    +0.000 HD
ENDROOT
BRANCH   1   7
ATOM      7  C   UNL     1       7.141   4.817  17.581  0.00  0.00    +0.000 C 
BRANCH   7  11
ATOM      8  C   UNL     1       3.019   4.167  18.881  0.00  0.00    +0.000 A 
ATOM      9  C   UNL     1       3.916   4.961  19.616  0.00  0.00    +0.000 A 
ATOM     10  C   UNL     1       5.247   5.158  19.215  0.00  0.00    +0.000 A 
ATOM     11  C   UNL     1       5.730   4.574  18.043  0.00  0.00    +0.000 A 
ATOM     12  C   UNL     1       4.848   3.813  17.275  0.00  0.00    +0.000 A 
ATOM     13  C   UNL     1       3.522   3.617  17.690  0.00  0.00    +0.000 A 
BRANCH   8  15
ATOM     14  C   UNL     1       1.216   4.541  20.534  0.00  0.00    +0.000 C 
ATOM     15  N   UNL     1       1.699   3.955  19.289  0.00  0.00    +0.000 N 
ATOM     16  C   UNL     1       1.005   2.761  18.811  0.00  0.00    +0.000 C 
ENDBRANCH   8  15
ENDBRANCH   7  11
ENDBRANCH   1   7
BRANCH   4  17
ATOM     17  C   UNL     1       8.550   9.429  18.338  0.00  0.00    +0.000 C 
BRANCH  17  18
ATOM     18  C   UNL     1       9.312  10.207  19.411  0.00  0.00    +0.000 C 
BRANCH  18  19
ATOM     19  C   UNL     1      10.380  11.145  18.833  0.00  0.00    +0.000 C 
BRANCH  19  20
ATOM     20  C   UNL     1      11.144  11.898  19.922  0.00  0.00    +0.000 C 
BRANCH  20  21
ATOM     21  C   UNL     1      11.216  13.391  19.668  0.00  0.00    +0.000 C 
ATOM     22  O   UNL     1      12.258  14.041  19.642  0.00  0.00    +0.000 OA
ATOM     23  N   UNL     1       9.994  13.971  19.431  0.00  0.00    +0.000 N 
ATOM     24  H   UNL     1       9.102  13.530  19.629  0.00  0.00    +0.000 HD
BRANCH  23  25
ATOM     25  O   UNL     1       9.993  15.378  19.294  0.00  0.00    +0.000 OA
ATOM     26  H   UNL     1       9.389  15.659  20.017  0.00  0.00    +0.000 HD
ENDBRANCH  23  25
ENDBRANCH  20  21
ENDBRANCH  19  20
ENDBRANCH  18  19
ENDBRANCH  17  18
ENDBRANCH   4  17
TORSDOF 9
ENDMDL
MODEL 9
REMARK VINA RESULT:      -6.6      5.880      9.171
REMARK  Name = 
REMARK  11 active torsions:
REMARK  status: ('A' for Active; 'I' for Inactive)
REMARK    1  A    between atoms: C_1  and  N_2
REMARK    2  A    between atoms: N_2  and  C_3
REMARK    3  A    between atoms: N_2  and  C_4
REMARK    4  A    between atoms: C_7  and  C_8
REMARK    5  A    between atoms: C_8  and  N_9
REMARK    6  A    between atoms: N_12  and  C_13
REMARK    7  A    between atoms: C_13  and  C_14
REMARK    8  A    between atoms: C_14  and  C_15
REMARK    9  A    between atoms: C_15  and  C_16
REMARK   10  A    between atoms: C_16  and  C_17
REMARK   11  A    between atoms: N_19  and  O_20
REMARK                            x       y       z     vdW  Elec       q    Type
REMARK                         _______ _______ _______ _____ _____    ______ ____
ROOT
ATOM      1  N   UNL     1       4.480   6.004  18.188  0.00  0.00    +0.000 N 
ATOM      2  C   UNL     1       4.091   5.423  19.363  0.00  0.00    +0.000 C 
ATOM      3  O   UNL     1       4.819   4.708  20.042  0.00  0.00    +0.000 OA
ATOM      4  N   UNL     1       2.793   5.716  19.685  0.00  0.00    +0.000 N 
ATOM      5  H   UNL     1       3.987   6.836  17.905  0.00  0.00    +0.000 HD
ATOM      6  H   UNL     1       2.216   6.147  18.977  0.00  0.00    +0.000 HD
ENDROOT
BRANCH   1   7
ATOM      7  C   UNL     1       5.858   5.889  17.764  0.00  0.00    +0.000 C 
BRANCH   7  11
ATOM      8  C   UNL     1       6.211   4.271  13.719  0.00  0.00    +0.000 A 
ATOM      9  C   UNL     1       7.324   4.754  14.428  0.00  0.00    +0.000 A 
ATOM     10  C   UNL     1       7.215   5.293  15.720  0.00  0.00    +0.000 A 
ATOM     11  C   UNL     1       5.977   5.355  16.362  0.00  0.00    +0.000 A 
ATOM     12  C   UNL     1       4.863   4.846  15.694  0.00  0.00    +0.000 A 
ATOM     13  C   UNL     1       4.983   4.316  14.400  0.00  0.00    +0.000 A 
BRANCH   8  15
ATOM     14  C   UNL     1       5.669   2.485  12.092  0.00  0.00    +0.000 C 
ATOM     15  N   UNL     1       6.315   3.751  12.426  0.00  0.00    +0.000 N 
ATOM     16  C   UNL     1       7.463   4.137  11.609  0.00  0.00    +0.000 C 
ENDBRANCH   8  15
ENDBRANCH   7  11
ENDBRANCH   1   7
BRANCH   4  17
ATOM     17  C   UNL     1       2.144   5.128  20.840  0.00  0.00    +0.000 C 
BRANCH  17  18
ATOM     18  C   UNL     1       0.961   4.242  20.454  0.00  0.00    +0.000 C 
BRANCH  18  19
ATOM     19  C   UNL     1       1.267   2.742  20.563  0.00  0.00    +0.000 C 
BRANCH  19  20
ATOM     20  C   UNL     1       1.555   2.107  19.202  0.00  0.00    +0.000 C 
BRANCH  20  21
ATOM     21  C   UNL     1       3.035   1.913  18.942  0.00  0.00    +0.000 C 
ATOM     22  O   UNL     1       3.521   1.686  17.836  0.00  0.00    +0.000 OA
ATOM     23  N   UNL     1       3.817   2.047  20.064  0.00  0.00    +0.000 N 
ATOM     24  H   UNL     1       3.461   2.039  21.013  0.00  0.00    +0.000 HD
BRANCH  23  25
ATOM     25  O   UNL     1       5.193   1.771  19.895  0.00  0.00    +0.000 OA
ATOM     26  H   UNL     1       5.493   2.530  19.346  0.00  0.00    +0.000 HD
ENDBRANCH  23  25
ENDBRANCH  20  21
ENDBRANCH  19  20
ENDBRANCH  18  19
ENDBRANCH  17  18
ENDBRANCH   4  17
TORSDOF 9
ENDMDL
