MODEL 1
REMARK VINA RESULT:      -9.6      0.000      0.000
REMARK  Name = 
REMARK  6 active torsions:
REMARK  status: ('A' for Active; 'I' for Inactive)
REMARK    1  A    between atoms: C_1  and  C_2
REMARK    2  A    between atoms: N_4  and  C_5
REMARK    3  A    between atoms: C_5  and  C_6
REMARK    4  A    between atoms: N_8  and  C_9
REMARK    5  A    between atoms: C_12  and  C_13
REMARK    6  A    between atoms: C_16  and  C_17
REMARK                            x       y       z     vdW  Elec       q    Type
REMARK                         _______ _______ _______ _____ _____    ______ ____
ROOT
ATOM      1  C   UNL     1       2.528   6.835  19.182  0.00  0.00    +0.000 A 
ATOM      2  C   UNL     1       2.008   6.640  20.461  0.00  0.00    +0.000 A 
ATOM      3  C   UNL     1       1.258   7.634  21.098  0.00  0.00    +0.000 A 
ATOM      4  C   UNL     1       0.961   8.854  20.470  0.00  0.00    +0.000 A 
ATOM      5  C   UNL     1       1.493   9.032  19.183  0.00  0.00    +0.000 A 
ATOM      6  F   UNL     1       1.241  10.152  18.488  0.00  0.00    +0.000 F 
ATOM      7  C   UNL     1       2.277   8.059  18.555  0.00  0.00    +0.000 A 
ENDROOT
BRANCH   1  10
ATOM      8  C   UNL     1       5.040   4.451  17.967  0.00  0.00    +0.000 C 
ATOM      9  C   UNL     1       4.720   5.840  18.479  0.00  0.00    +0.000 C 
ATOM     10  N   UNL     1       3.290   5.830  18.545  0.00  0.00    +0.000 N 
ATOM     11  C   UNL     1       2.800   4.788  17.770  0.00  0.00    +0.000 C 
ATOM     12  O   UNL     1       1.643   4.537  17.474  0.00  0.00    +0.000 OA
ATOM     13  O   UNL     1       3.843   4.042  17.286  0.00  0.00    +0.000 OA
BRANCH   8  14
ATOM     14  C   UNL     1       6.218   4.456  16.995  0.00  0.00    +0.000 C 
BRANCH  14  18
ATOM     15  C   UNL     1       6.067   3.769  13.273  0.00  0.00    +0.000 C 
ATOM     16  C   UNL     1       6.543   4.405  14.550  0.00  0.00    +0.000 C 
ATOM     17  O   UNL     1       7.461   5.216  14.591  0.00  0.00    +0.000 OA
ATOM     18  N   UNL     1       5.860   3.987  15.669  0.00  0.00    +0.000 N 
ATOM     19  H   UNL     1       5.155   3.264  15.582  0.00  0.00    +0.000 HD
ENDBRANCH  14  18
ENDBRANCH   8  14
ENDBRANCH   1  10
BRANCH   4  20
ATOM     20  C   UNL     1       0.125   9.869  21.151  0.00  0.00    +0.000 A 
ATOM     21  C   UNL     1      -0.259  11.061  20.514  0.00  0.00    +0.000 A 
ATOM     22  C   UNL     1      -1.041  12.017  21.168  0.00  0.00    +0.000 A 
ATOM     23  C   UNL     1      -1.445  11.812  22.486  0.00  0.00    +0.000 A 
ATOM     24  C   UNL     1      -1.077  10.642  23.143  0.00  0.00    +0.000 A 
ATOM     25  C   UNL     1      -0.308   9.683  22.478  0.00  0.00    +0.000 A 
BRANCH  23  26
ATOM     26  C   UNL     1      -2.263  12.815  23.155  0.00  0.00    +0.000 C 
ATOM     27  C   UNL     1      -3.556  13.006  22.892  0.00  0.00    +0.000 C 
ATOM     28  N   UNL     1      -4.353  12.325  22.012  0.00  0.00    +0.000 N 
ATOM     29  C   UNL     1      -5.628  12.860  22.044  0.00  0.00    +0.000 C 
ATOM     30  S   UNL     1      -6.912  12.346  21.148  0.00  0.00    +0.000 S 
ATOM     31  N   UNL     1      -5.642  13.889  22.947  0.00  0.00    +0.000 N 
ATOM     32  C   UNL     1      -4.409  14.057  23.527  0.00  0.00    +0.000 C 
ATOM     33  O   UNL     1      -4.078  14.874  24.360  0.00  0.00    +0.000 OA
ATOM     34  H   UNL     1      -4.059  11.554  21.429  0.00  0.00    +0.000 HD
ATOM     35  H   UNL     1      -6.440  14.461  23.167  0.00  0.00    +0.000 HD
ENDBRANCH  23  26
ENDBRANCH   4  20
TORSDOF 5
ENDMDL
MODEL 2
REMARK VINA RESULT:      -9.5      1.683      2.073
REMARK  Name = 
REMARK  6 active torsions:
REMARK  status: ('A' for Active; 'I' for Inactive)
REMARK    1  A    between atoms: C_1  and  C_2
REMARK    2  A    between atoms: N_4  and  C_5
REMARK    3  A    between atoms: C_5  and  C_6
REMARK    4  A    between atoms: N_8  and  C_9
REMARK    5  A    between atoms: C_12  and  C_13
REMARK    6  A    between atoms: C_16  and  C_17
REMARK                            x       y       z     vdW  Elec       q    Type
REMARK                         _______ _______ _______ _____ _____    ______ ____
ROOT
ATOM      1  C   UNL     1       2.930   6.934  18.576  0.00  0.00    +0.000 A 
ATOM      2  C   UNL     1       2.651   7.930  17.641  0.00  0.00    +0.000 A 
ATOM      3  C   UNL     1       1.812   9.005  17.956  0.00  0.00    +0.000 A 
ATOM      4  C   UNL     1       1.246   9.153  19.231  0.00  0.00    +0.000 A 
ATOM      5  C   UNL     1       1.538   8.140  20.159  0.00  0.00    +0.000 A 
ATOM      6  F   UNL     1       1.066   8.205  21.414  0.00  0.00    +0.000 F 
ATOM      7  C   UNL     1       2.343   7.041  19.840  0.00  0.00    +0.000 A 
ENDROOT
BRANCH   1  10
ATOM      8  C   UNL     1       5.633   4.504  18.066  0.00  0.00    +0.000 C 
ATOM      9  C   UNL     1       5.196   5.952  18.138  0.00  0.00    +0.000 C 
ATOM     10  N   UNL     1       3.773   5.846  18.252  0.00  0.00    +0.000 N 
ATOM     11  C   UNL     1       3.370   4.580  17.852  0.00  0.00    +0.000 C 
ATOM     12  O   UNL     1       2.238   4.157  17.688  0.00  0.00    +0.000 OA
ATOM     13  O   UNL     1       4.471   3.809  17.585  0.00  0.00    +0.000 OA
BRANCH   8  14
ATOM     14  C   UNL     1       6.798   4.304  17.099  0.00  0.00    +0.000 C 
BRANCH  14  18
ATOM     15  C   UNL     1       6.270   3.815  13.380  0.00  0.00    +0.000 C 
ATOM     16  C   UNL     1       6.756   4.480  14.639  0.00  0.00    +0.000 C 
ATOM     17  O   UNL     1       7.435   5.500  14.636  0.00  0.00    +0.000 OA
ATOM     18  N   UNL     1       6.375   3.834  15.792  0.00  0.00    +0.000 N 
ATOM     19  H   UNL     1       5.871   2.957  15.730  0.00  0.00    +0.000 HD
ENDBRANCH  14  18
ENDBRANCH   8  14
ENDBRANCH   1  10
BRANCH   4  20
ATOM     20  C   UNL     1       0.399  10.325  19.549  0.00  0.00    +0.000 A 
ATOM     21  C   UNL     1       0.807  11.305  20.469  0.00  0.00    +0.000 A 
ATOM     22  C   UNL     1      -0.003  12.404  20.770  0.00  0.00    +0.000 A 
ATOM     23  C   UNL     1      -1.252  12.541  20.167  0.00  0.00    +0.000 A 
ATOM     24  C   UNL     1      -1.683  11.584  19.253  0.00  0.00    +0.000 A 
ATOM     25  C   UNL     1      -0.863  10.496  18.947  0.00  0.00    +0.000 A 
BRANCH  23  26
ATOM     26  C   UNL     1      -2.086  13.694  20.485  0.00  0.00    +0.000 C 
ATOM     27  C   UNL     1      -2.905  13.743  21.535  0.00  0.00    +0.000 C 
ATOM     28  N   UNL     1      -3.106  12.793  22.500  0.00  0.00    +0.000 N 
ATOM     29  C   UNL     1      -4.054  13.249  23.398  0.00  0.00    +0.000 C 
ATOM     30  S   UNL     1      -4.601  12.432  24.721  0.00  0.00    +0.000 S 
ATOM     31  N   UNL     1      -4.460  14.495  23.002  0.00  0.00    +0.000 N 
ATOM     32  C   UNL     1      -3.806  14.891  21.861  0.00  0.00    +0.000 C 
ATOM     33  O   UNL     1      -3.930  15.929  21.248  0.00  0.00    +0.000 OA
ATOM     34  H   UNL     1      -2.638  11.899  22.550  0.00  0.00    +0.000 HD
ATOM     35  H   UNL     1      -5.149  15.060  23.469  0.00  0.00    +0.000 HD
ENDBRANCH  23  26
ENDBRANCH   4  20
TORSDOF 5
ENDMDL
MODEL 3
REMARK VINA RESULT:      -9.4      2.547      3.027
REMARK  Name = 
REMARK  6 active torsions:
REMARK  status: ('A' for Active; 'I' for Inactive)
REMARK    1  A    between atoms: C_1  and  C_2
REMARK    2  A    between atoms: N_4  and  C_5
REMARK    3  A    between atoms: C_5  and  C_6
REMARK    4  A    between atoms: N_8  and  C_9
REMARK    5  A    between atoms: C_12  and  C_13
REMARK    6  A    between atoms: C_16  and  C_17
REMARK                            x       y       z     vdW  Elec       q    Type
REMARK                         _______ _______ _______ _____ _____    ______ ____
ROOT
ATOM      1  C   UNL     1       3.537   6.225  18.016  0.00  0.00    +0.000 A 
ATOM      2  C   UNL     1       3.258   7.526  17.600  0.00  0.00    +0.000 A 
ATOM      3  C   UNL     1       2.426   8.365  18.350  0.00  0.00    +0.000 A 
ATOM      4  C   UNL     1       1.866   7.953  19.569  0.00  0.00    +0.000 A 
ATOM      5  C   UNL     1       2.158   6.640  19.971  0.00  0.00    +0.000 A 
ATOM      6  F   UNL     1       1.693   6.162  21.136  0.00  0.00    +0.000 F 
ATOM      7  C   UNL     1       2.957   5.783  19.208  0.00  0.00    +0.000 A 
ENDROOT
BRANCH   1  10
ATOM      8  C   UNL     1       6.193   4.568  16.101  0.00  0.00    +0.000 C 
ATOM      9  C   UNL     1       5.479   5.850  16.475  0.00  0.00    +0.000 C 
ATOM     10  N   UNL     1       4.374   5.380  17.252  0.00  0.00    +0.000 N 
ATOM     11  C   UNL     1       4.180   4.027  17.010  0.00  0.00    +0.000 C 
ATOM     12  O   UNL     1       3.268   3.309  17.383  0.00  0.00    +0.000 OA
ATOM     13  O   UNL     1       5.176   3.558  16.193  0.00  0.00    +0.000 OA
BRANCH   8  14
ATOM     14  C   UNL     1       6.755   4.616  14.682  0.00  0.00    +0.000 C 
BRANCH  14  18
ATOM     15  C   UNL     1       5.770   2.475  11.717  0.00  0.00    +0.000 C 
ATOM     16  C   UNL     1       6.471   3.577  12.463  0.00  0.00    +0.000 C 
ATOM     17  O   UNL     1       7.273   4.337  11.933  0.00  0.00    +0.000 OA
ATOM     18  N   UNL     1       6.136   3.648  13.795  0.00  0.00    +0.000 N 
ATOM     19  H   UNL     1       5.517   2.949  14.192  0.00  0.00    +0.000 HD
ENDBRANCH  14  18
ENDBRANCH   8  14
ENDBRANCH   1  10
BRANCH   4  20
ATOM     20  C   UNL     1       1.027   8.878  20.364  0.00  0.00    +0.000 A 
ATOM     21  C   UNL     1       0.218   9.853  19.756  0.00  0.00    +0.000 A 
ATOM     22  C   UNL     1      -0.565  10.728  20.515  0.00  0.00    +0.000 A 
ATOM     23  C   UNL     1      -0.545  10.659  21.907  0.00  0.00    +0.000 A 
ATOM     24  C   UNL     1       0.248   9.705  22.537  0.00  0.00    +0.000 A 
ATOM     25  C   UNL     1       1.017   8.824  21.771  0.00  0.00    +0.000 A 
BRANCH  23  26
ATOM     26  C   UNL     1      -1.369  11.573  22.687  0.00  0.00    +0.000 C 
ATOM     27  C   UNL     1      -1.115  12.877  22.803  0.00  0.00    +0.000 C 
ATOM     28  N   UNL     1      -0.105  13.600  22.227  0.00  0.00    +0.000 N 
ATOM     29  C   UNL     1      -0.205  14.920  22.626  0.00  0.00    +0.000 C 
ATOM     30  S   UNL     1       0.801  16.143  22.171  0.00  0.00    +0.000 S 
ATOM     31  N   UNL     1      -1.283  15.038  23.463  0.00  0.00    +0.000 N 
ATOM     32  C   UNL     1      -1.913  13.831  23.633  0.00  0.00    +0.000 C 
ATOM     33  O   UNL     1      -2.890  13.584  24.308  0.00  0.00    +0.000 OA
ATOM     34  H   UNL     1       0.603  13.229  21.609  0.00  0.00    +0.000 HD
ATOM     35  H   UNL     1      -1.585  15.888  23.907  0.00  0.00    +0.000 HD
ENDBRANCH  23  26
ENDBRANCH   4  20
TORSDOF 5
ENDMDL
MODEL 4
REMARK VINA RESULT:      -9.4      2.341      2.659
REMARK  Name = 
REMARK  6 active torsions:
REMARK  status: ('A' for Active; 'I' for Inactive)
REMARK    1  A    between atoms: C_1  and  C_2
REMARK    2  A    between atoms: N_4  and  C_5
REMARK    3  A    between atoms: C_5  and  C_6
REMARK    4  A    between atoms: N_8  and  C_9
REMARK    5  A    between atoms: C_12  and  C_13
REMARK    6  A    between atoms: C_16  and  C_17
REMARK                            x       y       z     vdW  Elec       q    Type
REMARK                         _______ _______ _______ _____ _____    ______ ____
ROOT
ATOM      1  C   UNL     1       3.479   6.299  18.131  0.00  0.00    +0.000 A 
ATOM      2  C   UNL     1       3.010   5.963  19.401  0.00  0.00    +0.000 A 
ATOM      3  C   UNL     1       2.222   6.851  20.141  0.00  0.00    +0.000 A 
ATOM      4  C   UNL     1       1.835   8.100  19.629  0.00  0.00    +0.000 A 
ATOM      5  C   UNL     1       2.317   8.420  18.350  0.00  0.00    +0.000 A 
ATOM      6  F   UNL     1       1.979   9.579  17.763  0.00  0.00    +0.000 F 
ATOM      7  C   UNL     1       3.138   7.554  17.620  0.00  0.00    +0.000 A 
ENDROOT
BRANCH   1  10
ATOM      8  C   UNL     1       6.087   4.450  16.329  0.00  0.00    +0.000 C 
ATOM      9  C   UNL     1       5.478   5.784  16.707  0.00  0.00    +0.000 C 
ATOM     10  N   UNL     1       4.279   5.401  17.390  0.00  0.00    +0.000 N 
ATOM     11  C   UNL     1       3.971   4.084  17.078  0.00  0.00    +0.000 C 
ATOM     12  O   UNL     1       2.968   3.449  17.359  0.00  0.00    +0.000 OA
ATOM     13  O   UNL     1       4.971   3.546  16.311  0.00  0.00    +0.000 OA
BRANCH   8  14
ATOM     14  C   UNL     1       6.749   4.491  14.953  0.00  0.00    +0.000 C 
BRANCH  14  18
ATOM     15  C   UNL     1       5.666   2.695  11.799  0.00  0.00    +0.000 C 
ATOM     16  C   UNL     1       6.433   3.671  12.648  0.00  0.00    +0.000 C 
ATOM     17  O   UNL     1       7.300   4.412  12.198  0.00  0.00    +0.000 OA
ATOM     18  N   UNL     1       6.077   3.653  13.977  0.00  0.00    +0.000 N 
ATOM     19  H   UNL     1       5.400   2.972  14.302  0.00  0.00    +0.000 HD
ENDBRANCH  14  18
ENDBRANCH   8  14
ENDBRANCH   1  10
BRANCH   4  20
ATOM     20  C   UNL     1       0.962   9.000  20.417  0.00  0.00    +0.000 A 
ATOM     21  C   UNL     1       0.102   9.924  19.800  0.00  0.00    +0.000 A 
ATOM     22  C   UNL     1      -0.712  10.776  20.553  0.00  0.00    +0.000 A 
ATOM     23  C   UNL     1      -0.674  10.735  21.945  0.00  0.00    +0.000 A 
ATOM     24  C   UNL     1       0.171   9.831  22.583  0.00  0.00    +0.000 A 
ATOM     25  C   UNL     1       0.971   8.973  21.825  0.00  0.00    +0.000 A 
BRANCH  23  26
ATOM     26  C   UNL     1      -1.530  11.625  22.718  0.00  0.00    +0.000 C 
ATOM     27  C   UNL     1      -1.284  12.925  22.883  0.00  0.00    +0.000 C 
ATOM     28  N   UNL     1      -0.254  13.666  22.370  0.00  0.00    +0.000 N 
ATOM     29  C   UNL     1      -0.373  14.973  22.803  0.00  0.00    +0.000 C 
ATOM     30  S   UNL     1       0.648  16.211  22.425  0.00  0.00    +0.000 S 
ATOM     31  N   UNL     1      -1.483  15.066  23.598  0.00  0.00    +0.000 N 
ATOM     32  C   UNL     1      -2.117  13.853  23.708  0.00  0.00    +0.000 C 
ATOM     33  O   UNL     1      -3.120  13.586  24.335  0.00  0.00    +0.000 OA
ATOM     34  H   UNL     1       0.480  13.314  21.770  0.00  0.00    +0.000 HD
ATOM     35  H   UNL     1      -1.806  15.902  24.055  0.00  0.00    +0.000 HD
ENDBRANCH  23  26
ENDBRANCH   4  20
TORSDOF 5
ENDMDL
MODEL 5
REMARK VINA RESULT:      -9.3      2.720      3.058
REMARK  Name = 
REMARK  6 active torsions:
REMARK  status: ('A' for Active; 'I' for Inactive)
REMARK    1  A    between atoms: C_1  and  C_2
REMARK    2  A    between atoms: N_4  and  C_5
REMARK    3  A    between atoms: C_5  and  C_6
REMARK    4  A    between atoms: N_8  and  C_9
REMARK    5  A    between atoms: C_12  and  C_13
REMARK    6  A    between atoms: C_16  and  C_17
REMARK                            x       y       z     vdW  Elec       q    Type
REMARK                         _______ _______ _______ _____ _____    ______ ____
ROOT
ATOM      1  C   UNL     1       2.806   6.996  18.661  0.00  0.00    +0.000 A 
ATOM      2  C   UNL     1       2.557   8.059  17.793  0.00  0.00    +0.000 A 
ATOM      3  C   UNL     1       1.764   9.143  18.183  0.00  0.00    +0.000 A 
ATOM      4  C   UNL     1       1.215   9.233  19.472  0.00  0.00    +0.000 A 
ATOM      5  C   UNL     1       1.476   8.154  20.331  0.00  0.00    +0.000 A 
ATOM      6  F   UNL     1       1.019   8.158  21.593  0.00  0.00    +0.000 F 
ATOM      7  C   UNL     1       2.235   7.047  19.936  0.00  0.00    +0.000 A 
ENDROOT
BRANCH   1  10
ATOM      8  C   UNL     1       5.399   4.485  17.996  0.00  0.00    +0.000 C 
ATOM      9  C   UNL     1       5.031   5.942  18.187  0.00  0.00    +0.000 C 
ATOM     10  N   UNL     1       3.603   5.900  18.261  0.00  0.00    +0.000 N 
ATOM     11  C   UNL     1       3.149   4.695  17.741  0.00  0.00    +0.000 C 
ATOM     12  O   UNL     1       2.002   4.346  17.516  0.00  0.00    +0.000 OA
ATOM     13  O   UNL     1       4.217   3.895  17.431  0.00  0.00    +0.000 OA
BRANCH   8  14
ATOM     14  C   UNL     1       6.578   4.312  17.042  0.00  0.00    +0.000 C 
BRANCH  14  18
ATOM     15  C   UNL     1       6.210   3.751  13.314  0.00  0.00    +0.000 C 
ATOM     16  C   UNL     1       6.700   4.399  14.579  0.00  0.00    +0.000 C 
ATOM     17  O   UNL     1       7.498   5.330  14.588  0.00  0.00    +0.000 OA
ATOM     18  N   UNL     1       6.177   3.847  15.726  0.00  0.00    +0.000 N 
ATOM     19  H   UNL     1       5.574   3.036  15.659  0.00  0.00    +0.000 HD
ENDBRANCH  14  18
ENDBRANCH   8  14
ENDBRANCH   1  10
BRANCH   4  20
ATOM     20  C   UNL     1       0.418  10.414  19.871  0.00  0.00    +0.000 A 
ATOM     21  C   UNL     1      -0.844  10.681  19.313  0.00  0.00    +0.000 A 
ATOM     22  C   UNL     1      -1.586  11.804  19.690  0.00  0.00    +0.000 A 
ATOM     23  C   UNL     1      -1.074  12.700  20.627  0.00  0.00    +0.000 A 
ATOM     24  C   UNL     1       0.174  12.463  21.195  0.00  0.00    +0.000 A 
ATOM     25  C   UNL     1       0.903  11.331  20.824  0.00  0.00    +0.000 A 
BRANCH  23  26
ATOM     26  C   UNL     1      -1.859  13.865  21.015  0.00  0.00    +0.000 C 
ATOM     27  C   UNL     1      -1.753  15.055  20.425  0.00  0.00    +0.000 C 
ATOM     28  N   UNL     1      -0.955  15.412  19.371  0.00  0.00    +0.000 N 
ATOM     29  C   UNL     1      -1.148  16.751  19.086  0.00  0.00    +0.000 C 
ATOM     30  S   UNL     1      -0.395  17.601  17.891  0.00  0.00    +0.000 S 
ATOM     31  N   UNL     1      -2.072  17.251  19.964  0.00  0.00    +0.000 N 
ATOM     32  C   UNL     1      -2.509  16.280  20.831  0.00  0.00    +0.000 C 
ATOM     33  O   UNL     1      -3.317  16.385  21.728  0.00  0.00    +0.000 OA
ATOM     34  H   UNL     1      -0.323  14.796  18.879  0.00  0.00    +0.000 HD
ATOM     35  H   UNL     1      -2.397  18.202  19.989  0.00  0.00    +0.000 HD
ENDBRANCH  23  26
ENDBRANCH   4  20
TORSDOF 5
ENDMDL
MODEL 6
REMARK VINA RESULT:      -9.2      1.506      1.946
REMARK  Name = 
REMARK  6 active torsions:
REMARK  status: ('A' for Active; 'I' for Inactive)
REMARK    1  A    between atoms: C_1  and  C_2
REMARK    2  A    between atoms: N_4  and  C_5
REMARK    3  A    between atoms: C_5  and  C_6
REMARK    4  A    between atoms: N_8  and  C_9
REMARK    5  A    between atoms: C_12  and  C_13
REMARK    6  A    between atoms: C_16  and  C_17
REMARK                            x       y       z     vdW  Elec       q    Type
REMARK                         _______ _______ _______ _____ _____    ______ ____
ROOT
ATOM      1  C   UNL     1       2.835   6.914  18.748  0.00  0.00    +0.000 A 
ATOM      2  C   UNL     1       2.577   7.922  17.820  0.00  0.00    +0.000 A 
ATOM      3  C   UNL     1       1.739   8.998  18.133  0.00  0.00    +0.000 A 
ATOM      4  C   UNL     1       1.152   9.134  19.400  0.00  0.00    +0.000 A 
ATOM      5  C   UNL     1       1.424   8.110  20.321  0.00  0.00    +0.000 A 
ATOM      6  F   UNL     1       0.932   8.163  21.569  0.00  0.00    +0.000 F 
ATOM      7  C   UNL     1       2.228   7.010  20.003  0.00  0.00    +0.000 A 
ENDROOT
BRANCH   1  10
ATOM      8  C   UNL     1       5.541   4.491  18.222  0.00  0.00    +0.000 C 
ATOM      9  C   UNL     1       5.097   5.937  18.278  0.00  0.00    +0.000 C 
ATOM     10  N   UNL     1       3.678   5.826  18.425  0.00  0.00    +0.000 N 
ATOM     11  C   UNL     1       3.274   4.550  18.057  0.00  0.00    +0.000 C 
ATOM     12  O   UNL     1       2.141   4.117  17.927  0.00  0.00    +0.000 OA
ATOM     13  O   UNL     1       4.373   3.780  17.780  0.00  0.00    +0.000 OA
BRANCH   8  14
ATOM     14  C   UNL     1       6.686   4.280  17.234  0.00  0.00    +0.000 C 
BRANCH  14  18
ATOM     15  C   UNL     1       6.181   3.842  13.506  0.00  0.00    +0.000 C 
ATOM     16  C   UNL     1       6.729   4.439  14.772  0.00  0.00    +0.000 C 
ATOM     17  O   UNL     1       7.550   5.349  14.781  0.00  0.00    +0.000 OA
ATOM     18  N   UNL     1       6.230   3.866  15.919  0.00  0.00    +0.000 N 
ATOM     19  H   UNL     1       5.604   3.072  15.849  0.00  0.00    +0.000 HD
ENDBRANCH  14  18
ENDBRANCH   8  14
ENDBRANCH   1  10
BRANCH   4  20
ATOM     20  C   UNL     1       0.307  10.307  19.718  0.00  0.00    +0.000 A 
ATOM     21  C   UNL     1       0.432  11.004  20.932  0.00  0.00    +0.000 A 
ATOM     22  C   UNL     1      -0.377  12.106  21.226  0.00  0.00    +0.000 A 
ATOM     23  C   UNL     1      -1.345  12.529  20.317  0.00  0.00    +0.000 A 
ATOM     24  C   UNL     1      -1.493  11.856  19.108  0.00  0.00    +0.000 A 
ATOM     25  C   UNL     1      -0.672  10.765  18.814  0.00  0.00    +0.000 A 
BRANCH  23  26
ATOM     26  C   UNL     1      -2.180  13.681  20.634  0.00  0.00    +0.000 C 
ATOM     27  C   UNL     1      -3.503  13.615  20.779  0.00  0.00    +0.000 C 
ATOM     28  N   UNL     1      -4.312  12.514  20.697  0.00  0.00    +0.000 N 
ATOM     29  C   UNL     1      -5.625  12.897  20.900  0.00  0.00    +0.000 C 
ATOM     30  S   UNL     1      -6.934  11.895  20.892  0.00  0.00    +0.000 S 
ATOM     31  N   UNL     1      -5.653  14.250  21.110  0.00  0.00    +0.000 N 
ATOM     32  C   UNL     1      -4.390  14.786  21.057  0.00  0.00    +0.000 C 
ATOM     33  O   UNL     1      -4.062  15.945  21.197  0.00  0.00    +0.000 OA
ATOM     34  H   UNL     1      -4.001  11.569  20.516  0.00  0.00    +0.000 HD
ATOM     35  H   UNL     1      -6.480  14.797  21.277  0.00  0.00    +0.000 HD
ENDBRANCH  23  26
ENDBRANCH   4  20
TORSDOF 5
ENDMDL
MODEL 7
REMARK VINA RESULT:      -9.1      1.580      1.830
REMARK  Name = 
REMARK  6 active torsions:
REMARK  status: ('A' for Active; 'I' for Inactive)
REMARK    1  A    between atoms: C_1  and  C_2
REMARK    2  A    between atoms: N_4  and  C_5
REMARK    3  A    between atoms: C_5  and  C_6
REMARK    4  A    between atoms: N_8  and  C_9
REMARK    5  A    between atoms: C_12  and  C_13
REMARK    6  A    between atoms: C_16  and  C_17
REMARK                            x       y       z     vdW  Elec       q    Type
REMARK                         _______ _______ _______ _____ _____    ______ ____
ROOT
ATOM      1  C   UNL     1       3.004   6.918  18.809  0.00  0.00    +0.000 A 
ATOM      2  C   UNL     1       2.272   7.014  19.991  0.00  0.00    +0.000 A 
ATOM      3  C   UNL     1       1.431   8.105  20.238  0.00  0.00    +0.000 A 
ATOM      4  C   UNL     1       1.256   9.131  19.296  0.00  0.00    +0.000 A 
ATOM      5  C   UNL     1       2.002   9.017  18.112  0.00  0.00    +0.000 A 
ATOM      6  F   UNL     1       1.882   9.933  17.138  0.00  0.00    +0.000 F 
ATOM      7  C   UNL     1       2.874   7.950  17.875  0.00  0.00    +0.000 A 
ENDROOT
BRANCH   1  10
ATOM      8  C   UNL     1       5.741   4.504  18.417  0.00  0.00    +0.000 C 
ATOM      9  C   UNL     1       5.263   5.938  18.331  0.00  0.00    +0.000 C 
ATOM     10  N   UNL     1       3.857   5.817  18.567  0.00  0.00    +0.000 N 
ATOM     11  C   UNL     1       3.468   4.500  18.368  0.00  0.00    +0.000 C 
ATOM     12  O   UNL     1       2.341   4.033  18.349  0.00  0.00    +0.000 OA
ATOM     13  O   UNL     1       4.570   3.725  18.122  0.00  0.00    +0.000 OA
BRANCH   8  14
ATOM     14  C   UNL     1       6.839   4.204  17.399  0.00  0.00    +0.000 C 
BRANCH  14  18
ATOM     15  C   UNL     1       6.148   3.939  13.684  0.00  0.00    +0.000 C 
ATOM     16  C   UNL     1       6.761   4.476  14.948  0.00  0.00    +0.000 C 
ATOM     17  O   UNL     1       7.585   5.383  14.958  0.00  0.00    +0.000 OA
ATOM     18  N   UNL     1       6.317   3.851  16.090  0.00  0.00    +0.000 N 
ATOM     19  H   UNL     1       5.684   3.063  16.014  0.00  0.00    +0.000 HD
ENDBRANCH  14  18
ENDBRANCH   8  14
ENDBRANCH   1  10
BRANCH   4  20
ATOM     20  C   UNL     1       0.325  10.250  19.565  0.00  0.00    +0.000 A 
ATOM     21  C   UNL     1       0.616  11.245  20.513  0.00  0.00    +0.000 A 
ATOM     22  C   UNL     1      -0.273  12.293  20.766  0.00  0.00    +0.000 A 
ATOM     23  C   UNL     1      -1.488  12.362  20.087  0.00  0.00    +0.000 A 
ATOM     24  C   UNL     1      -1.805  11.388  19.144  0.00  0.00    +0.000 A 
ATOM     25  C   UNL     1      -0.905  10.352  18.886  0.00  0.00    +0.000 A 
BRANCH  23  26
ATOM     26  C   UNL     1      -2.406  13.462  20.357  0.00  0.00    +0.000 C 
ATOM     27  C   UNL     1      -3.174  13.531  21.444  0.00  0.00    +0.000 C 
ATOM     28  N   UNL     1      -3.243  12.653  22.492  0.00  0.00    +0.000 N 
ATOM     29  C   UNL     1      -4.183  13.100  23.401  0.00  0.00    +0.000 C 
ATOM     30  S   UNL     1      -4.590  12.356  24.814  0.00  0.00    +0.000 S 
ATOM     31  N   UNL     1      -4.718  14.269  22.929  0.00  0.00    +0.000 N 
ATOM     32  C   UNL     1      -4.158  14.621  21.726  0.00  0.00    +0.000 C 
ATOM     33  O   UNL     1      -4.405  15.589  21.039  0.00  0.00    +0.000 OA
ATOM     34  H   UNL     1      -2.695  11.809  22.587  0.00  0.00    +0.000 HD
ATOM     35  H   UNL     1      -5.432  14.811  23.386  0.00  0.00    +0.000 HD
ENDBRANCH  23  26
ENDBRANCH   4  20
TORSDOF 5
ENDMDL
MODEL 8
REMARK VINA RESULT:      -9.1      2.308      2.542
REMARK  Name = 
REMARK  6 active torsions:
REMARK  status: ('A' for Active; 'I' for Inactive)
REMARK    1  A    between atoms: C_1  and  C_2
REMARK    2  A    between atoms: N_4  and  C_5
REMARK    3  A    between atoms: C_5  and  C_6
REMARK    4  A    between atoms: N_8  and  C_9
REMARK    5  A    between atoms: C_12  and  C_13
REMARK    6  A    between atoms: C_16  and  C_17
REMARK                            x       y       z     vdW  Elec       q    Type
REMARK                         _______ _______ _______ _____ _____    ______ ____
ROOT
ATOM      1  C   UNL     1       2.943   6.886  18.644  0.00  0.00    +0.000 A 
ATOM      2  C   UNL     1       2.355   6.872  19.909  0.00  0.00    +0.000 A 
ATOM      3  C   UNL     1       1.547   7.928  20.345  0.00  0.00    +0.000 A 
ATOM      4  C   UNL     1       1.259   9.027  19.522  0.00  0.00    +0.000 A 
ATOM      5  C   UNL     1       1.860   9.024  18.253  0.00  0.00    +0.000 A 
ATOM      6  F   UNL     1       1.624  10.018  17.382  0.00  0.00    +0.000 F 
ATOM      7  C   UNL     1       2.701   7.992  17.825  0.00  0.00    +0.000 A 
ENDROOT
BRANCH   1  10
ATOM      8  C   UNL     1       5.601   4.481  17.859  0.00  0.00    +0.000 C 
ATOM      9  C   UNL     1       5.182   5.923  18.055  0.00  0.00    +0.000 C 
ATOM     10  N   UNL     1       3.763   5.820  18.211  0.00  0.00    +0.000 N 
ATOM     11  C   UNL     1       3.334   4.590  17.731  0.00  0.00    +0.000 C 
ATOM     12  O   UNL     1       2.192   4.189  17.576  0.00  0.00    +0.000 OA
ATOM     13  O   UNL     1       4.417   3.833  17.369  0.00  0.00    +0.000 OA
BRANCH   8  14
ATOM     14  C   UNL     1       6.731   4.346  16.841  0.00  0.00    +0.000 C 
BRANCH  14  18
ATOM     15  C   UNL     1       6.197   3.776  13.134  0.00  0.00    +0.000 C 
ATOM     16  C   UNL     1       6.742   4.427  14.375  0.00  0.00    +0.000 C 
ATOM     17  O   UNL     1       7.539   5.358  14.345  0.00  0.00    +0.000 OA
ATOM     18  N   UNL     1       6.272   3.878  15.545  0.00  0.00    +0.000 N 
ATOM     19  H   UNL     1       5.666   3.066  15.507  0.00  0.00    +0.000 HD
ENDBRANCH  14  18
ENDBRANCH   8  14
ENDBRANCH   1  10
BRANCH   4  20
ATOM     20  C   UNL     1       0.363  10.108  19.993  0.00  0.00    +0.000 A 
ATOM     21  C   UNL     1       0.565  10.754  21.224  0.00  0.00    +0.000 A 
ATOM     22  C   UNL     1      -0.291  11.767  21.665  0.00  0.00    +0.000 A 
ATOM     23  C   UNL     1      -1.384  12.149  20.889  0.00  0.00    +0.000 A 
ATOM     24  C   UNL     1      -1.611  11.525  19.666  0.00  0.00    +0.000 A 
ATOM     25  C   UNL     1      -0.742  10.523  19.225  0.00  0.00    +0.000 A 
BRANCH  23  26
ATOM     26  C   UNL     1      -2.267  13.210  21.357  0.00  0.00    +0.000 C 
ATOM     27  C   UNL     1      -2.204  14.467  20.920  0.00  0.00    +0.000 C 
ATOM     28  N   UNL     1      -1.369  14.996  19.973  0.00  0.00    +0.000 N 
ATOM     29  C   UNL     1      -1.633  16.346  19.835  0.00  0.00    +0.000 C 
ATOM     30  S   UNL     1      -0.867  17.379  18.804  0.00  0.00    +0.000 S 
ATOM     31  N   UNL     1      -2.640  16.680  20.700  0.00  0.00    +0.000 N 
ATOM     32  C   UNL     1      -3.064  15.587  21.415  0.00  0.00    +0.000 C 
ATOM     33  O   UNL     1      -3.931  15.534  22.260  0.00  0.00    +0.000 OA
ATOM     34  H   UNL     1      -0.668  14.483  19.456  0.00  0.00    +0.000 HD
ATOM     35  H   UNL     1      -3.029  17.601  20.816  0.00  0.00    +0.000 HD
ENDBRANCH  23  26
ENDBRANCH   4  20
TORSDOF 5
ENDMDL
MODEL 9
REMARK VINA RESULT:      -9.0      1.360      1.758
REMARK  Name = 
REMARK  6 active torsions:
REMARK  status: ('A' for Active; 'I' for Inactive)
REMARK    1  A    between atoms: C_1  and  C_2
REMARK    2  A    between atoms: N_4  and  C_5
REMARK    3  A    between atoms: C_5  and  C_6
REMARK    4  A    between atoms: N_8  and  C_9
REMARK    5  A    between atoms: C_12  and  C_13
REMARK    6  A    between atoms: C_16  and  C_17
REMARK                            x       y       z     vdW  Elec       q    Type
REMARK                         _______ _______ _______ _____ _____    ______ ____
ROOT
ATOM      1  C   UNL     1       2.296   7.041  19.551  0.00  0.00    +0.000 A 
ATOM      2  C   UNL     1       1.728   6.925  20.820  0.00  0.00    +0.000 A 
ATOM      3  C   UNL     1       0.947   7.952  21.361  0.00  0.00    +0.000 A 
ATOM      4  C   UNL     1       0.666   9.125  20.643  0.00  0.00    +0.000 A 
ATOM      5  C   UNL     1       1.246   9.223  19.368  0.00  0.00    +0.000 A 
ATOM      6  F   UNL     1       1.014  10.293  18.592  0.00  0.00    +0.000 F 
ATOM      7  C   UNL     1       2.061   8.218  18.836  0.00  0.00    +0.000 A 
ENDROOT
BRANCH   1  10
ATOM      8  C   UNL     1       4.814   4.516  18.687  0.00  0.00    +0.000 C 
ATOM      9  C   UNL     1       4.504   5.906  19.202  0.00  0.00    +0.000 C 
ATOM     10  N   UNL     1       3.089   6.004  19.011  0.00  0.00    +0.000 N 
ATOM     11  C   UNL     1       2.676   5.031  18.112  0.00  0.00    +0.000 C 
ATOM     12  O   UNL     1       1.577   4.880  17.604  0.00  0.00    +0.000 OA
ATOM     13  O   UNL     1       3.735   4.225  17.786  0.00  0.00    +0.000 OA
BRANCH   8  14
ATOM     14  C   UNL     1       6.146   4.464  17.942  0.00  0.00    +0.000 C 
BRANCH  14  18
ATOM     15  C   UNL     1       7.837   7.839  17.621  0.00  0.00    +0.000 C 
ATOM     16  C   UNL     1       6.992   6.664  17.212  0.00  0.00    +0.000 C 
ATOM     17  O   UNL     1       6.387   6.614  16.146  0.00  0.00    +0.000 OA
ATOM     18  N   UNL     1       6.954   5.654  18.144  0.00  0.00    +0.000 N 
ATOM     19  H   UNL     1       7.421   5.780  19.036  0.00  0.00    +0.000 HD
ENDBRANCH  14  18
ENDBRANCH   8  14
ENDBRANCH   1  10
BRANCH   4  20
ATOM     20  C   UNL     1      -0.202  10.174  21.223  0.00  0.00    +0.000 A 
ATOM     21  C   UNL     1      -0.560  10.173  22.582  0.00  0.00    +0.000 A 
ATOM     22  C   UNL     1      -1.387  11.164  23.118  0.00  0.00    +0.000 A 
ATOM     23  C   UNL     1      -1.893  12.175  22.302  0.00  0.00    +0.000 A 
ATOM     24  C   UNL     1      -1.558  12.199  20.952  0.00  0.00    +0.000 A 
ATOM     25  C   UNL     1      -0.718  11.214  20.425  0.00  0.00    +0.000 A 
BRANCH  23  26
ATOM     26  C   UNL     1      -2.751  13.204  22.875  0.00  0.00    +0.000 C 
ATOM     27  C   UNL     1      -4.073  13.237  22.709  0.00  0.00    +0.000 C 
ATOM     28  N   UNL     1      -4.866  12.350  22.033  0.00  0.00    +0.000 N 
ATOM     29  C   UNL     1      -6.181  12.771  22.099  0.00  0.00    +0.000 C 
ATOM     30  S   UNL     1      -7.475  12.003  21.427  0.00  0.00    +0.000 S 
ATOM     31  N   UNL     1      -6.226  13.935  22.820  0.00  0.00    +0.000 N 
ATOM     32  C   UNL     1      -4.974  14.304  23.243  0.00  0.00    +0.000 C 
ATOM     33  O   UNL     1      -4.660  15.277  23.896  0.00  0.00    +0.000 OA
ATOM     34  H   UNL     1      -4.544  11.518  21.558  0.00  0.00    +0.000 HD
ATOM     35  H   UNL     1      -7.056  14.466  23.019  0.00  0.00    +0.000 HD
ENDBRANCH  23  26
ENDBRANCH   4  20
TORSDOF 5
ENDMDL
