MODEL 1
REMARK VINA RESULT:      -7.7      0.000      0.000
REMARK  Name = 
REMARK  6 active torsions:
REMARK  status: ('A' for Active; 'I' for Inactive)
REMARK    1  A    between atoms: C_1  and  C_2
REMARK    2  A    between atoms: C_2  and  N_12
REMARK    3  A    between atoms: C_3  and  C_4
REMARK    4  A    between atoms: C_4  and  C_6
REMARK    5  A    between atoms: N_12  and  C_13
REMARK    6  A    between atoms: C_13  and  C_14
REMARK                            x       y       z     vdW  Elec       q    Type
REMARK                         _______ _______ _______ _____ _____    ______ ____
ROOT
ATOM      1  C   UNL     1       4.415   3.507  17.308  0.00  0.00    +0.000 C 
ATOM      2  C   UNL     1       4.719   4.984  17.241  0.00  0.00    +0.000 C 
ATOM      3  C   UNL     1       5.847   5.530  16.751  0.00  0.00    +0.000 C 
ENDROOT
BRANCH   3   4
ATOM      4  C   UNL     1       7.030   4.839  16.170  0.00  0.00    +0.000 C 
ATOM      5  O   UNL     1       7.953   4.403  16.842  0.00  0.00    +0.000 OA
BRANCH   4   6
ATOM      6  C   UNL     1       6.993   4.622  14.696  0.00  0.00    +0.000 A 
ATOM      7  C   UNL     1       7.804   5.364  13.822  0.00  0.00    +0.000 A 
ATOM      8  C   UNL     1       7.695   5.184  12.442  0.00  0.00    +0.000 A 
ATOM      9  C   UNL     1       6.796   4.248  11.932  0.00  0.00    +0.000 A 
ATOM     10  C   UNL     1       6.015   3.481  12.798  0.00  0.00    +0.000 A 
ATOM     11  C   UNL     1       6.116   3.662  14.179  0.00  0.00    +0.000 A 
ENDBRANCH   4   6
ENDBRANCH   3   4
BRANCH   2  12
ATOM     12  N   UNL     1       3.765   5.835  17.807  0.00  0.00    +0.000 N 
ATOM     13  H   UNL     1       4.007   6.055  18.772  0.00  0.00    +0.000 HD
BRANCH  12  14
ATOM     14  C   UNL     1       2.336   5.535  17.727  0.00  0.00    +0.000 C 
BRANCH  14  15
ATOM     15  C   UNL     1       1.958   4.723  18.941  0.00  0.00    +0.000 A 
ATOM     16  C   UNL     1       2.444   5.089  20.208  0.00  0.00    +0.000 A 
ATOM     17  C   UNL     1       2.183   4.293  21.323  0.00  0.00    +0.000 A 
ATOM     18  C   UNL     1       1.438   3.131  21.172  0.00  0.00    +0.000 A 
ATOM     19  F   UNL     1       1.209   2.352  22.238  0.00  0.00    +0.000 F 
ATOM     20  C   UNL     1       0.937   2.755  19.932  0.00  0.00    +0.000 A 
ATOM     21  C   UNL     1       1.196   3.550  18.813  0.00  0.00    +0.000 A 
ENDBRANCH  14  15
ENDBRANCH  12  14
ENDBRANCH   2  12
TORSDOF 5
ENDMDL
MODEL 2
REMARK VINA RESULT:      -7.7      3.750      6.893
REMARK  Name = 
REMARK  6 active torsions:
REMARK  status: ('A' for Active; 'I' for Inactive)
REMARK    1  A    between atoms: C_1  and  C_2
REMARK    2  A    between atoms: C_2  and  N_12
REMARK    3  A    between atoms: C_3  and  C_4
REMARK    4  A    between atoms: C_4  and  C_6
REMARK    5  A    between atoms: N_12  and  C_13
REMARK    6  A    between atoms: C_13  and  C_14
REMARK                            x       y       z     vdW  Elec       q    Type
REMARK                         _______ _______ _______ _____ _____    ______ ____
ROOT
ATOM      1  C   UNL     1       1.764   3.579  17.971  0.00  0.00    +0.000 C 
ATOM      2  C   UNL     1       3.126   4.091  18.372  0.00  0.00    +0.000 C 
ATOM      3  C   UNL     1       3.363   5.068  19.265  0.00  0.00    +0.000 C 
ENDROOT
BRANCH   3   4
ATOM      4  C   UNL     1       2.378   5.856  20.055  0.00  0.00    +0.000 C 
ATOM      5  O   UNL     1       1.875   5.457  21.095  0.00  0.00    +0.000 OA
BRANCH   4   6
ATOM      6  C   UNL     1       2.093   7.229  19.549  0.00  0.00    +0.000 A 
ATOM      7  C   UNL     1       1.402   8.172  20.326  0.00  0.00    +0.000 A 
ATOM      8  C   UNL     1       1.092   9.425  19.796  0.00  0.00    +0.000 A 
ATOM      9  C   UNL     1       1.490   9.749  18.499  0.00  0.00    +0.000 A 
ATOM     10  C   UNL     1       2.212   8.829  17.737  0.00  0.00    +0.000 A 
ATOM     11  C   UNL     1       2.519   7.572  18.261  0.00  0.00    +0.000 A 
ENDBRANCH   4   6
ENDBRANCH   3   4
BRANCH   2  12
ATOM     12  N   UNL     1       4.215   3.539  17.692  0.00  0.00    +0.000 N 
ATOM     13  H   UNL     1       4.947   3.267  18.346  0.00  0.00    +0.000 HD
BRANCH  12  14
ATOM     14  C   UNL     1       4.822   4.220  16.549  0.00  0.00    +0.000 C 
BRANCH  14  15
ATOM     15  C   UNL     1       5.891   5.149  17.069  0.00  0.00    +0.000 A 
ATOM     16  C   UNL     1       6.859   4.669  17.968  0.00  0.00    +0.000 A 
ATOM     17  C   UNL     1       7.793   5.537  18.531  0.00  0.00    +0.000 A 
ATOM     18  C   UNL     1       7.760   6.885  18.197  0.00  0.00    +0.000 A 
ATOM     19  F   UNL     1       8.641   7.725  18.759  0.00  0.00    +0.000 F 
ATOM     20  C   UNL     1       6.820   7.380  17.301  0.00  0.00    +0.000 A 
ATOM     21  C   UNL     1       5.884   6.512  16.735  0.00  0.00    +0.000 A 
ENDBRANCH  14  15
ENDBRANCH  12  14
ENDBRANCH   2  12
TORSDOF 5
ENDMDL
MODEL 3
REMARK VINA RESULT:      -7.6      3.659      6.804
REMARK  Name = 
REMARK  6 active torsions:
REMARK  status: ('A' for Active; 'I' for Inactive)
REMARK    1  A    between atoms: C_1  and  C_2
REMARK    2  A    between atoms: C_2  and  N_12
REMARK    3  A    between atoms: C_3  and  C_4
REMARK    4  A    between atoms: C_4  and  C_6
REMARK    5  A    between atoms: N_12  and  C_13
REMARK    6  A    between atoms: C_13  and  C_14
REMARK                            x       y       z     vdW  Elec       q    Type
REMARK                         _______ _______ _______ _____ _____    ______ ____
ROOT
ATOM      1  C   UNL     1       2.400   2.891  17.562  0.00  0.00    +0.000 C 
ATOM      2  C   UNL     1       3.689   3.465  18.096  0.00  0.00    +0.000 C 
ATOM      3  C   UNL     1       3.795   4.338  19.114  0.00  0.00    +0.000 C 
ENDROOT
BRANCH   3   4
ATOM      4  C   UNL     1       2.708   4.930  19.940  0.00  0.00    +0.000 C 
ATOM      5  O   UNL     1       2.201   4.361  20.896  0.00  0.00    +0.000 OA
BRANCH   4   6
ATOM      6  C   UNL     1       2.315   6.324  19.588  0.00  0.00    +0.000 A 
ATOM      7  C   UNL     1       2.582   6.868  18.322  0.00  0.00    +0.000 A 
ATOM      8  C   UNL     1       2.261   8.198  18.048  0.00  0.00    +0.000 A 
ATOM      9  C   UNL     1       1.653   8.982  19.028  0.00  0.00    +0.000 A 
ATOM     10  C   UNL     1       1.350   8.435  20.275  0.00  0.00    +0.000 A 
ATOM     11  C   UNL     1       1.674   7.106  20.555  0.00  0.00    +0.000 A 
ENDBRANCH   4   6
ENDBRANCH   3   4
BRANCH   2  12
ATOM     12  N   UNL     1       4.854   3.101  17.415  0.00  0.00    +0.000 N 
ATOM     13  H   UNL     1       5.581   2.819  18.069  0.00  0.00    +0.000 HD
BRANCH  12  14
ATOM     14  C   UNL     1       5.439   3.969  16.393  0.00  0.00    +0.000 C 
BRANCH  14  15
ATOM     15  C   UNL     1       6.237   5.043  17.090  0.00  0.00    +0.000 A 
ATOM     16  C   UNL     1       6.087   6.386  16.708  0.00  0.00    +0.000 A 
ATOM     17  C   UNL     1       6.888   7.377  17.275  0.00  0.00    +0.000 A 
ATOM     18  C   UNL     1       7.840   7.025  18.224  0.00  0.00    +0.000 A 
ATOM     19  F   UNL     1       8.627   7.973  18.750  0.00  0.00    +0.000 F 
ATOM     20  C   UNL     1       7.997   5.704  18.626  0.00  0.00    +0.000 A 
ATOM     21  C   UNL     1       7.196   4.710  18.060  0.00  0.00    +0.000 A 
ENDBRANCH  14  15
ENDBRANCH  12  14
ENDBRANCH   2  12
TORSDOF 5
ENDMDL
MODEL 4
REMARK VINA RESULT:      -7.6      0.804      1.434
REMARK  Name = 
REMARK  6 active torsions:
REMARK  status: ('A' for Active; 'I' for Inactive)
REMARK    1  A    between atoms: C_1  and  C_2
REMARK    2  A    between atoms: C_2  and  N_12
REMARK    3  A    between atoms: C_3  and  C_4
REMARK    4  A    between atoms: C_4  and  C_6
REMARK    5  A    between atoms: N_12  and  C_13
REMARK    6  A    between atoms: C_13  and  C_14
REMARK                            x       y       z     vdW  Elec       q    Type
REMARK                         _______ _______ _______ _____ _____    ______ ____
ROOT
ATOM      1  C   UNL     1       6.321   5.375  19.144  0.00  0.00    +0.000 C 
ATOM      2  C   UNL     1       5.462   5.775  17.969  0.00  0.00    +0.000 C 
ATOM      3  C   UNL     1       5.735   5.520  16.677  0.00  0.00    +0.000 C 
ENDROOT
BRANCH   3   4
ATOM      4  C   UNL     1       6.907   4.802  16.105  0.00  0.00    +0.000 C 
ATOM      5  O   UNL     1       7.803   4.326  16.784  0.00  0.00    +0.000 OA
BRANCH   4   6
ATOM      6  C   UNL     1       6.889   4.611  14.626  0.00  0.00    +0.000 A 
ATOM      7  C   UNL     1       6.040   3.676  14.014  0.00  0.00    +0.000 A 
ATOM      8  C   UNL     1       6.097   3.474  12.634  0.00  0.00    +0.000 A 
ATOM      9  C   UNL     1       6.985   4.220  11.859  0.00  0.00    +0.000 A 
ATOM     10  C   UNL     1       7.805   5.178  12.458  0.00  0.00    +0.000 A 
ATOM     11  C   UNL     1       7.754   5.379  13.839  0.00  0.00    +0.000 A 
ENDBRANCH   4   6
ENDBRANCH   3   4
BRANCH   2  12
ATOM     12  N   UNL     1       4.329   6.537  18.266  0.00  0.00    +0.000 N 
ATOM     13  H   UNL     1       4.259   6.703  19.269  0.00  0.00    +0.000 HD
BRANCH  12  14
ATOM     14  C   UNL     1       3.010   6.173  17.748  0.00  0.00    +0.000 C 
BRANCH  14  15
ATOM     15  C   UNL     1       2.358   5.240  18.739  0.00  0.00    +0.000 A 
ATOM     16  C   UNL     1       2.533   5.450  20.117  0.00  0.00    +0.000 A 
ATOM     17  C   UNL     1       2.017   4.541  21.041  0.00  0.00    +0.000 A 
ATOM     18  C   UNL     1       1.329   3.423  20.588  0.00  0.00    +0.000 A 
ATOM     19  F   UNL     1       0.856   2.536  21.475  0.00  0.00    +0.000 F 
ATOM     20  C   UNL     1       1.133   3.202  19.230  0.00  0.00    +0.000 A 
ATOM     21  C   UNL     1       1.648   4.110  18.303  0.00  0.00    +0.000 A 
ENDBRANCH  14  15
ENDBRANCH  12  14
ENDBRANCH   2  12
TORSDOF 5
ENDMDL
MODEL 5
REMARK VINA RESULT:      -7.6      0.588      1.636
REMARK  Name = 
REMARK  6 active torsions:
REMARK  status: ('A' for Active; 'I' for Inactive)
REMARK    1  A    between atoms: C_1  and  C_2
REMARK    2  A    between atoms: C_2  and  N_12
REMARK    3  A    between atoms: C_3  and  C_4
REMARK    4  A    between atoms: C_4  and  C_6
REMARK    5  A    between atoms: N_12  and  C_13
REMARK    6  A    between atoms: C_13  and  C_14
REMARK                            x       y       z     vdW  Elec       q    Type
REMARK                         _______ _______ _______ _____ _____    ______ ____
ROOT
ATOM      1  C   UNL     1       5.496   4.500  18.665  0.00  0.00    +0.000 C 
ATOM      2  C   UNL     1       5.034   5.503  17.636  0.00  0.00    +0.000 C 
ATOM      3  C   UNL     1       5.632   5.744  16.455  0.00  0.00    +0.000 C 
ENDROOT
BRANCH   3   4
ATOM      4  C   UNL     1       6.849   5.103  15.888  0.00  0.00    +0.000 C 
ATOM      5  O   UNL     1       7.839   4.832  16.551  0.00  0.00    +0.000 OA
BRANCH   4   6
ATOM      6  C   UNL     1       6.767   4.717  14.451  0.00  0.00    +0.000 A 
ATOM      7  C   UNL     1       5.853   3.752  13.998  0.00  0.00    +0.000 A 
ATOM      8  C   UNL     1       5.849   3.365  12.657  0.00  0.00    +0.000 A 
ATOM      9  C   UNL     1       6.739   3.956  11.760  0.00  0.00    +0.000 A 
ATOM     10  C   UNL     1       7.623   4.943  12.197  0.00  0.00    +0.000 A 
ATOM     11  C   UNL     1       7.635   5.329  13.540  0.00  0.00    +0.000 A 
ENDBRANCH   4   6
ENDBRANCH   3   4
BRANCH   2  12
ATOM     12  N   UNL     1       3.934   6.287  17.992  0.00  0.00    +0.000 N 
ATOM     13  H   UNL     1       4.017   6.610  18.954  0.00  0.00    +0.000 HD
BRANCH  12  14
ATOM     14  C   UNL     1       2.565   5.827  17.757  0.00  0.00    +0.000 C 
BRANCH  14  15
ATOM     15  C   UNL     1       2.187   4.888  18.876  0.00  0.00    +0.000 A 
ATOM     16  C   UNL     1       1.458   3.720  18.594  0.00  0.00    +0.000 A 
ATOM     17  C   UNL     1       1.019   2.894  19.628  0.00  0.00    +0.000 A 
ATOM     18  C   UNL     1       1.306   3.235  20.944  0.00  0.00    +0.000 A 
ATOM     19  F   UNL     1       0.862   2.456  21.939  0.00  0.00    +0.000 F 
ATOM     20  C   UNL     1       2.036   4.378  21.245  0.00  0.00    +0.000 A 
ATOM     21  C   UNL     1       2.478   5.208  20.212  0.00  0.00    +0.000 A 
ENDBRANCH  14  15
ENDBRANCH  12  14
ENDBRANCH   2  12
TORSDOF 5
ENDMDL
MODEL 6
REMARK VINA RESULT:      -7.6      5.201      8.073
REMARK  Name = 
REMARK  6 active torsions:
REMARK  status: ('A' for Active; 'I' for Inactive)
REMARK    1  A    between atoms: C_1  and  C_2
REMARK    2  A    between atoms: C_2  and  N_12
REMARK    3  A    between atoms: C_3  and  C_4
REMARK    4  A    between atoms: C_4  and  C_6
REMARK    5  A    between atoms: N_12  and  C_13
REMARK    6  A    between atoms: C_13  and  C_14
REMARK                            x       y       z     vdW  Elec       q    Type
REMARK                         _______ _______ _______ _____ _____    ______ ____
ROOT
ATOM      1  C   UNL     1       0.585   9.124  22.280  0.00  0.00    +0.000 C 
ATOM      2  C   UNL     1       1.151   8.742  20.933  0.00  0.00    +0.000 C 
ATOM      3  C   UNL     1       1.026   9.456  19.800  0.00  0.00    +0.000 C 
ENDROOT
BRANCH   3   4
ATOM      4  C   UNL     1       0.329  10.756  19.600  0.00  0.00    +0.000 C 
ATOM      5  O   UNL     1       0.764  11.823  20.005  0.00  0.00    +0.000 OA
BRANCH   4   6
ATOM      6  C   UNL     1      -0.918  10.702  18.785  0.00  0.00    +0.000 A 
ATOM      7  C   UNL     1      -1.026   9.872  17.658  0.00  0.00    +0.000 A 
ATOM      8  C   UNL     1      -2.183   9.896  16.877  0.00  0.00    +0.000 A 
ATOM      9  C   UNL     1      -3.242  10.730  17.231  0.00  0.00    +0.000 A 
ATOM     10  C   UNL     1      -3.155  11.529  18.372  0.00  0.00    +0.000 A 
ATOM     11  C   UNL     1      -1.997  11.512  19.153  0.00  0.00    +0.000 A 
ENDBRANCH   4   6
ENDBRANCH   3   4
BRANCH   2  12
ATOM     12  N   UNL     1       1.793   7.502  20.865  0.00  0.00    +0.000 N 
ATOM     13  H   UNL     1       2.446   7.392  21.639  0.00  0.00    +0.000 HD
BRANCH  12  14
ATOM     14  C   UNL     1       2.432   7.044  19.631  0.00  0.00    +0.000 C 
BRANCH  14  15
ATOM     15  C   UNL     1       2.025   5.611  19.396  0.00  0.00    +0.000 A 
ATOM     16  C   UNL     1       2.140   5.052  18.112  0.00  0.00    +0.000 A 
ATOM     17  C   UNL     1       1.678   3.761  17.859  0.00  0.00    +0.000 A 
ATOM     18  C   UNL     1       1.100   3.029  18.888  0.00  0.00    +0.000 A 
ATOM     19  F   UNL     1       0.632   1.798  18.638  0.00  0.00    +0.000 F 
ATOM     20  C   UNL     1       0.987   3.556  20.168  0.00  0.00    +0.000 A 
ATOM     21  C   UNL     1       1.449   4.849  20.425  0.00  0.00    +0.000 A 
ENDBRANCH  14  15
ENDBRANCH  12  14
ENDBRANCH   2  12
TORSDOF 5
ENDMDL
MODEL 7
REMARK VINA RESULT:      -7.5      1.880      2.264
REMARK  Name = 
REMARK  6 active torsions:
REMARK  status: ('A' for Active; 'I' for Inactive)
REMARK    1  A    between atoms: C_1  and  C_2
REMARK    2  A    between atoms: C_2  and  N_12
REMARK    3  A    between atoms: C_3  and  C_4
REMARK    4  A    between atoms: C_4  and  C_6
REMARK    5  A    between atoms: N_12  and  C_13
REMARK    6  A    between atoms: C_13  and  C_14
REMARK                            x       y       z     vdW  Elec       q    Type
REMARK                         _______ _______ _______ _____ _____    ______ ____
ROOT
ATOM      1  C   UNL     1       7.483   5.690  17.828  0.00  0.00    +0.000 C 
ATOM      2  C   UNL     1       6.291   4.783  17.644  0.00  0.00    +0.000 C 
ATOM      3  C   UNL     1       5.482   4.761  16.569  0.00  0.00    +0.000 C 
ENDROOT
BRANCH   3   4
ATOM      4  C   UNL     1       5.560   5.593  15.338  0.00  0.00    +0.000 C 
ATOM      5  O   UNL     1       5.278   6.781  15.308  0.00  0.00    +0.000 OA
BRANCH   4   6
ATOM      6  C   UNL     1       6.094   4.907  14.127  0.00  0.00    +0.000 A 
ATOM      7  C   UNL     1       7.315   5.285  13.545  0.00  0.00    +0.000 A 
ATOM      8  C   UNL     1       7.754   4.667  12.373  0.00  0.00    +0.000 A 
ATOM      9  C   UNL     1       6.988   3.658  11.791  0.00  0.00    +0.000 A 
ATOM     10  C   UNL     1       5.792   3.252  12.386  0.00  0.00    +0.000 A 
ATOM     11  C   UNL     1       5.347   3.871  13.556  0.00  0.00    +0.000 A 
ENDBRANCH   4   6
ENDBRANCH   3   4
BRANCH   2  12
ATOM     12  N   UNL     1       5.977   3.953  18.724  0.00  0.00    +0.000 N 
ATOM     13  H   UNL     1       5.751   3.013  18.402  0.00  0.00    +0.000 HD
BRANCH  12  14
ATOM     14  C   UNL     1       5.003   4.360  19.737  0.00  0.00    +0.000 C 
BRANCH  14  15
ATOM     15  C   UNL     1       3.665   3.771  19.365  0.00  0.00    +0.000 A 
ATOM     16  C   UNL     1       2.482   4.382  19.817  0.00  0.00    +0.000 A 
ATOM     17  C   UNL     1       1.243   3.795  19.563  0.00  0.00    +0.000 A 
ATOM     18  C   UNL     1       1.185   2.599  18.860  0.00  0.00    +0.000 A 
ATOM     19  F   UNL     1      -0.004   2.021  18.639  0.00  0.00    +0.000 F 
ATOM     20  C   UNL     1       2.340   1.984  18.393  0.00  0.00    +0.000 A 
ATOM     21  C   UNL     1       3.583   2.569  18.645  0.00  0.00    +0.000 A 
ENDBRANCH  14  15
ENDBRANCH  12  14
ENDBRANCH   2  12
TORSDOF 5
ENDMDL
MODEL 8
REMARK VINA RESULT:      -7.5      1.821      2.554
REMARK  Name = 
REMARK  6 active torsions:
REMARK  status: ('A' for Active; 'I' for Inactive)
REMARK    1  A    between atoms: C_1  and  C_2
REMARK    2  A    between atoms: C_2  and  N_12
REMARK    3  A    between atoms: C_3  and  C_4
REMARK    4  A    between atoms: C_4  and  C_6
REMARK    5  A    between atoms: N_12  and  C_13
REMARK    6  A    between atoms: C_13  and  C_14
REMARK                            x       y       z     vdW  Elec       q    Type
REMARK                         _______ _______ _______ _____ _____    ______ ____
ROOT
ATOM      1  C   UNL     1       6.976   6.390  17.323  0.00  0.00    +0.000 C 
ATOM      2  C   UNL     1       6.711   4.913  17.158  0.00  0.00    +0.000 C 
ATOM      3  C   UNL     1       6.775   4.231  16.001  0.00  0.00    +0.000 C 
ENDROOT
BRANCH   3   4
ATOM      4  C   UNL     1       7.115   4.741  14.645  0.00  0.00    +0.000 C 
ATOM      5  O   UNL     1       7.921   5.638  14.446  0.00  0.00    +0.000 OA
BRANCH   4   6
ATOM      6  C   UNL     1       6.473   4.028  13.505  0.00  0.00    +0.000 A 
ATOM      7  C   UNL     1       7.232   3.457  12.471  0.00  0.00    +0.000 A 
ATOM      8  C   UNL     1       6.595   2.856  11.384  0.00  0.00    +0.000 A 
ATOM      9  C   UNL     1       5.203   2.803  11.336  0.00  0.00    +0.000 A 
ATOM     10  C   UNL     1       4.444   3.335  12.380  0.00  0.00    +0.000 A 
ATOM     11  C   UNL     1       5.077   3.942  13.467  0.00  0.00    +0.000 A 
ENDBRANCH   4   6
ENDBRANCH   3   4
BRANCH   2  12
ATOM     12  N   UNL     1       6.294   4.231  18.305  0.00  0.00    +0.000 N 
ATOM     13  H   UNL     1       6.033   3.273  18.079  0.00  0.00    +0.000 HD
BRANCH  12  14
ATOM     14  C   UNL     1       5.292   4.800  19.206  0.00  0.00    +0.000 C 
BRANCH  14  15
ATOM     15  C   UNL     1       3.996   4.056  18.997  0.00  0.00    +0.000 A 
ATOM     16  C   UNL     1       3.160   4.395  17.920  0.00  0.00    +0.000 A 
ATOM     17  C   UNL     1       1.915   3.783  17.771  0.00  0.00    +0.000 A 
ATOM     18  C   UNL     1       1.506   2.834  18.700  0.00  0.00    +0.000 A 
ATOM     19  F   UNL     1       0.300   2.265  18.572  0.00  0.00    +0.000 F 
ATOM     20  C   UNL     1       2.322   2.474  19.766  0.00  0.00    +0.000 A 
ATOM     21  C   UNL     1       3.569   3.085  19.917  0.00  0.00    +0.000 A 
ENDBRANCH  14  15
ENDBRANCH  12  14
ENDBRANCH   2  12
TORSDOF 5
ENDMDL
MODEL 9
REMARK VINA RESULT:      -7.5      3.487      7.655
REMARK  Name = 
REMARK  6 active torsions:
REMARK  status: ('A' for Active; 'I' for Inactive)
REMARK    1  A    between atoms: C_1  and  C_2
REMARK    2  A    between atoms: C_2  and  N_12
REMARK    3  A    between atoms: C_3  and  C_4
REMARK    4  A    between atoms: C_4  and  C_6
REMARK    5  A    between atoms: N_12  and  C_13
REMARK    6  A    between atoms: C_13  and  C_14
REMARK                            x       y       z     vdW  Elec       q    Type
REMARK                         _______ _______ _______ _____ _____    ______ ____
ROOT
ATOM      1  C   UNL     1       5.729   5.211  19.195  0.00  0.00    +0.000 C 
ATOM      2  C   UNL     1       5.289   5.305  17.754  0.00  0.00    +0.000 C 
ATOM      3  C   UNL     1       4.081   5.715  17.330  0.00  0.00    +0.000 C 
ENDROOT
BRANCH   3   4
ATOM      4  C   UNL     1       2.920   6.167  18.145  0.00  0.00    +0.000 C 
ATOM      5  O   UNL     1       2.533   7.325  18.182  0.00  0.00    +0.000 OA
BRANCH   4   6
ATOM      6  C   UNL     1       2.180   5.093  18.867  0.00  0.00    +0.000 A 
ATOM      7  C   UNL     1       2.080   5.080  20.267  0.00  0.00    +0.000 A 
ATOM      8  C   UNL     1       1.437   4.023  20.915  0.00  0.00    +0.000 A 
ATOM      9  C   UNL     1       0.873   2.990  20.167  0.00  0.00    +0.000 A 
ATOM     10  C   UNL     1       0.936   3.018  18.773  0.00  0.00    +0.000 A 
ATOM     11  C   UNL     1       1.583   4.070  18.121  0.00  0.00    +0.000 A 
ENDBRANCH   4   6
ENDBRANCH   3   4
BRANCH   2  12
ATOM     12  N   UNL     1       6.206   4.854  16.801  0.00  0.00    +0.000 N 
ATOM     13  H   UNL     1       6.540   5.627  16.228  0.00  0.00    +0.000 HD
BRANCH  12  14
ATOM     14  C   UNL     1       5.903   3.714  15.935  0.00  0.00    +0.000 C 
BRANCH  14  15
ATOM     15  C   UNL     1       6.405   4.030  14.548  0.00  0.00    +0.000 A 
ATOM     16  C   UNL     1       7.403   5.003  14.370  0.00  0.00    +0.000 A 
ATOM     17  C   UNL     1       7.808   5.375  13.088  0.00  0.00    +0.000 A 
ATOM     18  C   UNL     1       7.214   4.776  11.985  0.00  0.00    +0.000 A 
ATOM     19  F   UNL     1       7.584   5.152  10.753  0.00  0.00    +0.000 F 
ATOM     20  C   UNL     1       6.235   3.802  12.137  0.00  0.00    +0.000 A 
ATOM     21  C   UNL     1       5.828   3.427  13.420  0.00  0.00    +0.000 A 
ENDBRANCH  14  15
ENDBRANCH  12  14
ENDBRANCH   2  12
TORSDOF 5
ENDMDL
