MODEL 1
REMARK VINA RESULT:      -8.1      0.000      0.000
REMARK  Name = 
REMARK  7 active torsions:
REMARK  status: ('A' for Active; 'I' for Inactive)
REMARK    1  A    between atoms: C_1  and  C_2
REMARK    2  A    between atoms: C_2  and  C_3
REMARK    3  A    between atoms: C_3  and  O_4
REMARK    4  A    between atoms: O_4  and  C_5
REMARK    5  A    between atoms: C_7  and  N_8
REMARK    6  A    between atoms: C_9  and  C_11
REMARK    7  A    between atoms: C_20  and  C_21
REMARK                            x       y       z     vdW  Elec       q    Type
REMARK                         _______ _______ _______ _____ _____    ______ ____
ROOT
ATOM      1  C   UNL     1       6.972   5.761  15.798  0.00  0.00    +0.000 A 
ATOM      2  C   UNL     1       6.073   5.289  16.758  0.00  0.00    +0.000 A 
ATOM      3  C   UNL     1       5.123   4.312  16.452  0.00  0.00    +0.000 A 
ATOM      4  C   UNL     1       5.100   3.784  15.157  0.00  0.00    +0.000 A 
ATOM      5  C   UNL     1       6.007   4.234  14.179  0.00  0.00    +0.000 A 
ATOM      6  C   UNL     1       6.938   5.235  14.509  0.00  0.00    +0.000 A 
ENDROOT
BRANCH   3   7
ATOM      7  N   UNL     1       4.220   3.786  17.404  0.00  0.00    +0.000 N 
ATOM      8  C   UNL     1       3.161   4.478  17.979  0.00  0.00    +0.000 C 
ATOM      9  O   UNL     1       2.740   5.565  17.597  0.00  0.00    +0.000 OA
ATOM     10  H   UNL     1       4.340   2.812  17.658  0.00  0.00    +0.000 HD
BRANCH   8  11
ATOM     11  C   UNL     1       2.493   3.838  19.136  0.00  0.00    +0.000 A 
ATOM     12  C   UNL     1       2.595   4.435  20.396  0.00  0.00    +0.000 A 
ATOM     13  F   UNL     1       3.283   5.570  20.583  0.00  0.00    +0.000 F 
ATOM     14  C   UNL     1       2.013   3.850  21.522  0.00  0.00    +0.000 A 
ATOM     15  C   UNL     1       1.309   2.654  21.399  0.00  0.00    +0.000 A 
ATOM     16  C   UNL     1       1.178   2.059  20.146  0.00  0.00    +0.000 A 
ATOM     17  C   UNL     1       1.770   2.650  19.027  0.00  0.00    +0.000 A 
ATOM     18  F   UNL     1       1.625   2.041  17.840  0.00  0.00    +0.000 F 
ENDBRANCH   8  11
ENDBRANCH   3   7
BRANCH   5  19
ATOM     19  C   UNL     1       6.017   3.633  12.795  0.00  0.00    +0.000 C 
ATOM     20  F   UNL     1       6.901   4.232  11.947  0.00  0.00    +0.000 F 
ATOM     21  F   UNL     1       6.343   2.311  12.800  0.00  0.00    +0.000 F 
ATOM     22  F   UNL     1       4.802   3.716  12.185  0.00  0.00    +0.000 F 
ENDBRANCH   5  19
BRANCH   1  23
ATOM     23  O   UNL     1       7.888   6.663  16.261  0.00  0.00    +0.000 OA
BRANCH  23  24
ATOM     24  C   UNL     1       7.706   7.130  17.598  0.00  0.00    +0.000 C 
BRANCH  24  26
ATOM     25  C   UNL     1       8.715   9.214  18.597  0.00  0.00    +0.000 C 
ATOM     26  C   UNL     1       7.751   8.656  17.564  0.00  0.00    +0.000 C 
ENDBRANCH  24  26
ENDBRANCH  23  24
ENDBRANCH   1  23
TORSDOF 6
ENDMDL
MODEL 2
REMARK VINA RESULT:      -8.0      0.083      1.657
REMARK  Name = 
REMARK  7 active torsions:
REMARK  status: ('A' for Active; 'I' for Inactive)
REMARK    1  A    between atoms: C_1  and  C_2
REMARK    2  A    between atoms: C_2  and  C_3
REMARK    3  A    between atoms: C_3  and  O_4
REMARK    4  A    between atoms: O_4  and  C_5
REMARK    5  A    between atoms: C_7  and  N_8
REMARK    6  A    between atoms: C_9  and  C_11
REMARK    7  A    between atoms: C_20  and  C_21
REMARK                            x       y       z     vdW  Elec       q    Type
REMARK                         _______ _______ _______ _____ _____    ______ ____
ROOT
ATOM      1  C   UNL     1       7.012   5.798  15.824  0.00  0.00    +0.000 A 
ATOM      2  C   UNL     1       6.125   5.317  16.791  0.00  0.00    +0.000 A 
ATOM      3  C   UNL     1       5.179   4.334  16.490  0.00  0.00    +0.000 A 
ATOM      4  C   UNL     1       5.148   3.811  15.193  0.00  0.00    +0.000 A 
ATOM      5  C   UNL     1       6.044   4.270  14.209  0.00  0.00    +0.000 A 
ATOM      6  C   UNL     1       6.971   5.276  14.534  0.00  0.00    +0.000 A 
ENDROOT
BRANCH   3   7
ATOM      7  N   UNL     1       4.288   3.799  17.448  0.00  0.00    +0.000 N 
ATOM      8  C   UNL     1       3.193   4.463  17.990  0.00  0.00    +0.000 C 
ATOM      9  O   UNL     1       2.732   5.519  17.570  0.00  0.00    +0.000 OA
ATOM     10  H   UNL     1       4.445   2.840  17.732  0.00  0.00    +0.000 HD
BRANCH   8  11
ATOM     11  C   UNL     1       2.539   3.830  19.159  0.00  0.00    +0.000 A 
ATOM     12  C   UNL     1       1.835   2.635  18.979  0.00  0.00    +0.000 A 
ATOM     13  F   UNL     1       1.736   2.051  17.778  0.00  0.00    +0.000 F 
ATOM     14  C   UNL     1       1.173   2.021  20.044  0.00  0.00    +0.000 A 
ATOM     15  C   UNL     1       1.214   2.594  21.313  0.00  0.00    +0.000 A 
ATOM     16  C   UNL     1       1.931   3.772  21.512  0.00  0.00    +0.000 A 
ATOM     17  C   UNL     1       2.585   4.381  20.439  0.00  0.00    +0.000 A 
ATOM     18  F   UNL     1       3.260   5.518  20.673  0.00  0.00    +0.000 F 
ENDBRANCH   8  11
ENDBRANCH   3   7
BRANCH   5  19
ATOM     19  C   UNL     1       6.046   3.673  12.823  0.00  0.00    +0.000 C 
ATOM     20  F   UNL     1       6.951   4.251  11.983  0.00  0.00    +0.000 F 
ATOM     21  F   UNL     1       6.335   2.343  12.825  0.00  0.00    +0.000 F 
ATOM     22  F   UNL     1       4.838   3.792  12.205  0.00  0.00    +0.000 F 
ENDBRANCH   5  19
BRANCH   1  23
ATOM     23  O   UNL     1       7.926   6.704  16.283  0.00  0.00    +0.000 OA
BRANCH  23  24
ATOM     24  C   UNL     1       7.743   7.179  17.616  0.00  0.00    +0.000 C 
BRANCH  24  26
ATOM     25  C   UNL     1       8.699   9.332  18.518  0.00  0.00    +0.000 C 
ATOM     26  C   UNL     1       7.699   8.705  17.562  0.00  0.00    +0.000 C 
ENDBRANCH  24  26
ENDBRANCH  23  24
ENDBRANCH   1  23
TORSDOF 6
ENDMDL
MODEL 3
REMARK VINA RESULT:      -7.5      3.833      5.734
REMARK  Name = 
REMARK  7 active torsions:
REMARK  status: ('A' for Active; 'I' for Inactive)
REMARK    1  A    between atoms: C_1  and  C_2
REMARK    2  A    between atoms: C_2  and  C_3
REMARK    3  A    between atoms: C_3  and  O_4
REMARK    4  A    between atoms: O_4  and  C_5
REMARK    5  A    between atoms: C_7  and  N_8
REMARK    6  A    between atoms: C_9  and  C_11
REMARK    7  A    between atoms: C_20  and  C_21
REMARK                            x       y       z     vdW  Elec       q    Type
REMARK                         _______ _______ _______ _____ _____    ______ ____
ROOT
ATOM      1  C   UNL     1       5.145   4.730  19.234  0.00  0.00    +0.000 A 
ATOM      2  C   UNL     1       4.275   5.799  19.463  0.00  0.00    +0.000 A 
ATOM      3  C   UNL     1       2.892   5.656  19.332  0.00  0.00    +0.000 A 
ATOM      4  C   UNL     1       2.380   4.401  18.988  0.00  0.00    +0.000 A 
ATOM      5  C   UNL     1       3.238   3.307  18.770  0.00  0.00    +0.000 A 
ATOM      6  C   UNL     1       4.628   3.485  18.887  0.00  0.00    +0.000 A 
ENDROOT
BRANCH   3   7
ATOM      7  N   UNL     1       1.978   6.704  19.586  0.00  0.00    +0.000 N 
ATOM      8  C   UNL     1       2.071   7.995  19.080  0.00  0.00    +0.000 C 
ATOM      9  O   UNL     1       2.836   8.349  18.190  0.00  0.00    +0.000 OA
ATOM     10  H   UNL     1       1.172   6.478  20.157  0.00  0.00    +0.000 HD
BRANCH   8  11
ATOM     11  C   UNL     1       1.163   9.009  19.665  0.00  0.00    +0.000 A 
ATOM     12  C   UNL     1       0.326   9.742  18.818  0.00  0.00    +0.000 A 
ATOM     13  F   UNL     1       0.326   9.551  17.492  0.00  0.00    +0.000 F 
ATOM     14  C   UNL     1      -0.520  10.733  19.319  0.00  0.00    +0.000 A 
ATOM     15  C   UNL     1      -0.546  10.999  20.687  0.00  0.00    +0.000 A 
ATOM     16  C   UNL     1       0.265  10.261  21.546  0.00  0.00    +0.000 A 
ATOM     17  C   UNL     1       1.112   9.277  21.033  0.00  0.00    +0.000 A 
ATOM     18  F   UNL     1       1.882   8.593  21.895  0.00  0.00    +0.000 F 
ENDBRANCH   8  11
ENDBRANCH   3   7
BRANCH   5  19
ATOM     19  C   UNL     1       2.686   1.939  18.448  0.00  0.00    +0.000 C 
ATOM     20  F   UNL     1       1.600   1.600  19.198  0.00  0.00    +0.000 F 
ATOM     21  F   UNL     1       2.294   1.825  17.150  0.00  0.00    +0.000 F 
ATOM     22  F   UNL     1       3.601   0.951  18.651  0.00  0.00    +0.000 F 
ENDBRANCH   5  19
BRANCH   1  23
ATOM     23  O   UNL     1       6.464   5.002  19.471  0.00  0.00    +0.000 OA
BRANCH  23  24
ATOM     24  C   UNL     1       7.285   5.233  18.326  0.00  0.00    +0.000 C 
BRANCH  24  26
ATOM     25  C   UNL     1       7.324   7.616  17.503  0.00  0.00    +0.000 C 
ATOM     26  C   UNL     1       7.915   6.616  18.481  0.00  0.00    +0.000 C 
ENDBRANCH  24  26
ENDBRANCH  23  24
ENDBRANCH   1  23
TORSDOF 6
ENDMDL
MODEL 4
REMARK VINA RESULT:      -7.5      5.071      8.626
REMARK  Name = 
REMARK  7 active torsions:
REMARK  status: ('A' for Active; 'I' for Inactive)
REMARK    1  A    between atoms: C_1  and  C_2
REMARK    2  A    between atoms: C_2  and  C_3
REMARK    3  A    between atoms: C_3  and  O_4
REMARK    4  A    between atoms: O_4  and  C_5
REMARK    5  A    between atoms: C_7  and  N_8
REMARK    6  A    between atoms: C_9  and  C_11
REMARK    7  A    between atoms: C_20  and  C_21
REMARK                            x       y       z     vdW  Elec       q    Type
REMARK                         _______ _______ _______ _____ _____    ______ ____
ROOT
ATOM      1  C   UNL     1      -0.240  10.165  18.402  0.00  0.00    +0.000 A 
ATOM      2  C   UNL     1       0.895   9.532  17.891  0.00  0.00    +0.000 A 
ATOM      3  C   UNL     1       1.777   8.833  18.719  0.00  0.00    +0.000 A 
ATOM      4  C   UNL     1       1.490   8.754  20.085  0.00  0.00    +0.000 A 
ATOM      5  C   UNL     1       0.342   9.372  20.618  0.00  0.00    +0.000 A 
ATOM      6  C   UNL     1      -0.517  10.087  19.764  0.00  0.00    +0.000 A 
ENDROOT
BRANCH   3   7
ATOM      7  N   UNL     1       2.917   8.152  18.236  0.00  0.00    +0.000 N 
ATOM      8  C   UNL     1       3.014   6.779  18.040  0.00  0.00    +0.000 C 
ATOM      9  O   UNL     1       2.069   5.997  18.064  0.00  0.00    +0.000 OA
ATOM     10  H   UNL     1       3.715   8.721  17.980  0.00  0.00    +0.000 HD
BRANCH   8  11
ATOM     11  C   UNL     1       4.366   6.235  17.773  0.00  0.00    +0.000 A 
ATOM     12  C   UNL     1       5.003   5.482  18.764  0.00  0.00    +0.000 A 
ATOM     13  F   UNL     1       4.422   5.243  19.948  0.00  0.00    +0.000 F 
ATOM     14  C   UNL     1       6.291   4.979  18.572  0.00  0.00    +0.000 A 
ATOM     15  C   UNL     1       6.960   5.218  17.374  0.00  0.00    +0.000 A 
ATOM     16  C   UNL     1       6.329   5.946  16.367  0.00  0.00    +0.000 A 
ATOM     17  C   UNL     1       5.042   6.450  16.572  0.00  0.00    +0.000 A 
ATOM     18  F   UNL     1       4.473   7.152  15.580  0.00  0.00    +0.000 F 
ENDBRANCH   8  11
ENDBRANCH   3   7
BRANCH   5  19
ATOM     19  C   UNL     1       0.002   9.247  22.083  0.00  0.00    +0.000 C 
ATOM     20  F   UNL     1      -0.936   8.293  22.345  0.00  0.00    +0.000 F 
ATOM     21  F   UNL     1       1.083   8.928  22.847  0.00  0.00    +0.000 F 
ATOM     22  F   UNL     1      -0.492  10.406  22.601  0.00  0.00    +0.000 F 
ENDBRANCH   5  19
BRANCH   1  23
ATOM     23  O   UNL     1      -1.045  10.747  17.463  0.00  0.00    +0.000 OA
BRANCH  23  24
ATOM     24  C   UNL     1      -2.059   9.922  16.889  0.00  0.00    +0.000 C 
BRANCH  24  26
ATOM     25  C   UNL     1      -3.089  10.044  14.591  0.00  0.00    +0.000 C 
ATOM     26  C   UNL     1      -2.845  10.778  15.898  0.00  0.00    +0.000 C 
ENDBRANCH  24  26
ENDBRANCH  23  24
ENDBRANCH   1  23
TORSDOF 6
ENDMDL
MODEL 5
REMARK VINA RESULT:      -7.4      4.110      6.275
REMARK  Name = 
REMARK  7 active torsions:
REMARK  status: ('A' for Active; 'I' for Inactive)
REMARK    1  A    between atoms: C_1  and  C_2
REMARK    2  A    between atoms: C_2  and  C_3
REMARK    3  A    between atoms: C_3  and  O_4
REMARK    4  A    between atoms: O_4  and  C_5
REMARK    5  A    between atoms: C_7  and  N_8
REMARK    6  A    between atoms: C_9  and  C_11
REMARK    7  A    between atoms: C_20  and  C_21
REMARK                            x       y       z     vdW  Elec       q    Type
REMARK                         _______ _______ _______ _____ _____    ______ ____
ROOT
ATOM      1  C   UNL     1       2.746   3.929  17.651  0.00  0.00    +0.000 A 
ATOM      2  C   UNL     1       2.238   5.148  18.107  0.00  0.00    +0.000 A 
ATOM      3  C   UNL     1       3.052   6.276  18.235  0.00  0.00    +0.000 A 
ATOM      4  C   UNL     1       4.398   6.174  17.870  0.00  0.00    +0.000 A 
ATOM      5  C   UNL     1       4.926   4.959  17.394  0.00  0.00    +0.000 A 
ATOM      6  C   UNL     1       4.089   3.833  17.296  0.00  0.00    +0.000 A 
ENDROOT
BRANCH   3   7
ATOM      7  N   UNL     1       2.568   7.535  18.660  0.00  0.00    +0.000 N 
ATOM      8  C   UNL     1       1.807   7.763  19.800  0.00  0.00    +0.000 C 
ATOM      9  O   UNL     1       1.620   6.947  20.696  0.00  0.00    +0.000 OA
ATOM     10  H   UNL     1       2.832   8.337  18.101  0.00  0.00    +0.000 HD
BRANCH   8  11
ATOM     11  C   UNL     1       1.186   9.101  19.933  0.00  0.00    +0.000 A 
ATOM     12  C   UNL     1       0.692   9.738  18.791  0.00  0.00    +0.000 A 
ATOM     13  F   UNL     1       0.767   9.169  17.580  0.00  0.00    +0.000 F 
ATOM     14  C   UNL     1       0.131  11.015  18.862  0.00  0.00    +0.000 A 
ATOM     15  C   UNL     1       0.050  11.672  20.087  0.00  0.00    +0.000 A 
ATOM     16  C   UNL     1       0.517  11.041  21.238  0.00  0.00    +0.000 A 
ATOM     17  C   UNL     1       1.081   9.766  21.155  0.00  0.00    +0.000 A 
ATOM     18  F   UNL     1       1.525   9.196  22.287  0.00  0.00    +0.000 F 
ENDBRANCH   8  11
ENDBRANCH   3   7
BRANCH   5  19
ATOM     19  C   UNL     1       6.366   4.858  16.953  0.00  0.00    +0.000 C 
ATOM     20  F   UNL     1       6.896   6.047  16.546  0.00  0.00    +0.000 F 
ATOM     21  F   UNL     1       7.186   4.403  17.940  0.00  0.00    +0.000 F 
ATOM     22  F   UNL     1       6.529   4.002  15.907  0.00  0.00    +0.000 F 
ENDBRANCH   5  19
BRANCH   1  23
ATOM     23  O   UNL     1       1.817   2.936  17.510  0.00  0.00    +0.000 OA
BRANCH  23  24
ATOM     24  C   UNL     1       0.942   2.717  18.616  0.00  0.00    +0.000 C 
BRANCH  24  26
ATOM     25  C   UNL     1       1.376   2.836  21.097  0.00  0.00    +0.000 C 
ATOM     26  C   UNL     1       1.786   2.202  19.780  0.00  0.00    +0.000 C 
ENDBRANCH  24  26
ENDBRANCH  23  24
ENDBRANCH   1  23
TORSDOF 6
ENDMDL
MODEL 6
REMARK VINA RESULT:      -7.4      4.315      6.142
REMARK  Name = 
REMARK  7 active torsions:
REMARK  status: ('A' for Active; 'I' for Inactive)
REMARK    1  A    between atoms: C_1  and  C_2
REMARK    2  A    between atoms: C_2  and  C_3
REMARK    3  A    between atoms: C_3  and  O_4
REMARK    4  A    between atoms: O_4  and  C_5
REMARK    5  A    between atoms: C_7  and  N_8
REMARK    6  A    between atoms: C_9  and  C_11
REMARK    7  A    between atoms: C_20  and  C_21
REMARK                            x       y       z     vdW  Elec       q    Type
REMARK                         _______ _______ _______ _____ _____    ______ ____
ROOT
ATOM      1  C   UNL     1       4.511   5.751  17.037  0.00  0.00    +0.000 A 
ATOM      2  C   UNL     1       3.959   6.899  17.611  0.00  0.00    +0.000 A 
ATOM      3  C   UNL     1       2.784   6.845  18.364  0.00  0.00    +0.000 A 
ATOM      4  C   UNL     1       2.171   5.603  18.561  0.00  0.00    +0.000 A 
ATOM      5  C   UNL     1       2.721   4.432  18.004  0.00  0.00    +0.000 A 
ATOM      6  C   UNL     1       3.892   4.519  17.231  0.00  0.00    +0.000 A 
ENDROOT
BRANCH   3   7
ATOM      7  N   UNL     1       2.212   7.977  18.989  0.00  0.00    +0.000 N 
ATOM      8  C   UNL     1       1.500   8.981  18.342  0.00  0.00    +0.000 C 
ATOM      9  O   UNL     1       1.096   8.924  17.186  0.00  0.00    +0.000 OA
ATOM     10  H   UNL     1       2.304   8.038  19.995  0.00  0.00    +0.000 HD
BRANCH   8  11
ATOM     11  C   UNL     1       1.207  10.203  19.126  0.00  0.00    +0.000 A 
ATOM     12  C   UNL     1       0.335  10.119  20.216  0.00  0.00    +0.000 A 
ATOM     13  F   UNL     1      -0.243   8.962  20.567  0.00  0.00    +0.000 F 
ATOM     14  C   UNL     1       0.000  11.251  20.962  0.00  0.00    +0.000 A 
ATOM     15  C   UNL     1       0.545  12.490  20.629  0.00  0.00    +0.000 A 
ATOM     16  C   UNL     1       1.434  12.585  19.560  0.00  0.00    +0.000 A 
ATOM     17  C   UNL     1       1.757  11.447  18.817  0.00  0.00    +0.000 A 
ATOM     18  F   UNL     1       2.612  11.585  17.792  0.00  0.00    +0.000 F 
ENDBRANCH   8  11
ENDBRANCH   3   7
BRANCH   5  19
ATOM     19  C   UNL     1       2.090   3.084  18.255  0.00  0.00    +0.000 C 
ATOM     20  F   UNL     1       0.730   3.125  18.334  0.00  0.00    +0.000 F 
ATOM     21  F   UNL     1       2.381   2.180  17.280  0.00  0.00    +0.000 F 
ATOM     22  F   UNL     1       2.513   2.523  19.422  0.00  0.00    +0.000 F 
ENDBRANCH   5  19
BRANCH   1  23
ATOM     23  O   UNL     1       5.699   5.947  16.389  0.00  0.00    +0.000 OA
BRANCH  23  24
ATOM     24  C   UNL     1       6.819   5.204  16.868  0.00  0.00    +0.000 C 
BRANCH  24  26
ATOM     25  C   UNL     1       7.643   7.468  17.612  0.00  0.00    +0.000 C 
ATOM     26  C   UNL     1       7.461   6.010  17.995  0.00  0.00    +0.000 C 
ENDBRANCH  24  26
ENDBRANCH  23  24
ENDBRANCH   1  23
TORSDOF 6
ENDMDL
MODEL 7
REMARK VINA RESULT:      -7.4      3.986      5.912
REMARK  Name = 
REMARK  7 active torsions:
REMARK  status: ('A' for Active; 'I' for Inactive)
REMARK    1  A    between atoms: C_1  and  C_2
REMARK    2  A    between atoms: C_2  and  C_3
REMARK    3  A    between atoms: C_3  and  O_4
REMARK    4  A    between atoms: O_4  and  C_5
REMARK    5  A    between atoms: C_7  and  N_8
REMARK    6  A    between atoms: C_9  and  C_11
REMARK    7  A    between atoms: C_20  and  C_21
REMARK                            x       y       z     vdW  Elec       q    Type
REMARK                         _______ _______ _______ _____ _____    ______ ____
ROOT
ATOM      1  C   UNL     1       3.287   4.009  17.395  0.00  0.00    +0.000 A 
ATOM      2  C   UNL     1       2.670   5.150  17.912  0.00  0.00    +0.000 A 
ATOM      3  C   UNL     1       3.332   6.379  17.963  0.00  0.00    +0.000 A 
ATOM      4  C   UNL     1       4.634   6.458  17.458  0.00  0.00    +0.000 A 
ATOM      5  C   UNL     1       5.268   5.323  16.918  0.00  0.00    +0.000 A 
ATOM      6  C   UNL     1       4.585   4.094  16.899  0.00  0.00    +0.000 A 
ENDROOT
BRANCH   3   7
ATOM      7  N   UNL     1       2.731   7.563  18.448  0.00  0.00    +0.000 N 
ATOM      8  C   UNL     1       1.946   7.659  19.591  0.00  0.00    +0.000 C 
ATOM      9  O   UNL     1       1.833   6.783  20.443  0.00  0.00    +0.000 OA
ATOM     10  H   UNL     1       2.920   8.415  17.934  0.00  0.00    +0.000 HD
BRANCH   8  11
ATOM     11  C   UNL     1       1.202   8.925  19.787  0.00  0.00    +0.000 A 
ATOM     12  C   UNL     1       1.008   9.405  21.086  0.00  0.00    +0.000 A 
ATOM     13  F   UNL     1       1.477   8.749  22.156  0.00  0.00    +0.000 F 
ATOM     14  C   UNL     1       0.282  10.574  21.322  0.00  0.00    +0.000 A 
ATOM     15  C   UNL     1      -0.255  11.287  20.253  0.00  0.00    +0.000 A 
ATOM     16  C   UNL     1      -0.050  10.834  18.952  0.00  0.00    +0.000 A 
ATOM     17  C   UNL     1       0.672   9.660  18.727  0.00  0.00    +0.000 A 
ATOM     18  F   UNL     1       0.841   9.255  17.458  0.00  0.00    +0.000 F 
ENDBRANCH   8  11
ENDBRANCH   3   7
BRANCH   5  19
ATOM     19  C   UNL     1       6.654   5.416  16.327  0.00  0.00    +0.000 C 
ATOM     20  F   UNL     1       7.468   4.383  16.685  0.00  0.00    +0.000 F 
ATOM     21  F   UNL     1       6.643   5.429  14.966  0.00  0.00    +0.000 F 
ATOM     22  F   UNL     1       7.304   6.550  16.707  0.00  0.00    +0.000 F 
ENDBRANCH   5  19
BRANCH   1  23
ATOM     23  O   UNL     1       2.492   2.898  17.344  0.00  0.00    +0.000 OA
BRANCH  23  24
ATOM     24  C   UNL     1       2.388   2.130  18.542  0.00  0.00    +0.000 C 
BRANCH  24  26
ATOM     25  C   UNL     1       1.085   3.045  20.498  0.00  0.00    +0.000 C 
ATOM     26  C   UNL     1       1.002   2.382  19.135  0.00  0.00    +0.000 C 
ENDBRANCH  24  26
ENDBRANCH  23  24
ENDBRANCH   1  23
TORSDOF 6
ENDMDL
MODEL 8
REMARK VINA RESULT:      -7.4      4.371      6.001
REMARK  Name = 
REMARK  7 active torsions:
REMARK  status: ('A' for Active; 'I' for Inactive)
REMARK    1  A    between atoms: C_1  and  C_2
REMARK    2  A    between atoms: C_2  and  C_3
REMARK    3  A    between atoms: C_3  and  O_4
REMARK    4  A    between atoms: O_4  and  C_5
REMARK    5  A    between atoms: C_7  and  N_8
REMARK    6  A    between atoms: C_9  and  C_11
REMARK    7  A    between atoms: C_20  and  C_21
REMARK                            x       y       z     vdW  Elec       q    Type
REMARK                         _______ _______ _______ _____ _____    ______ ____
ROOT
ATOM      1  C   UNL     1       4.618   6.104  16.924  0.00  0.00    +0.000 A 
ATOM      2  C   UNL     1       3.982   7.177  17.555  0.00  0.00    +0.000 A 
ATOM      3  C   UNL     1       2.855   6.988  18.357  0.00  0.00    +0.000 A 
ATOM      4  C   UNL     1       2.378   5.687  18.545  0.00  0.00    +0.000 A 
ATOM      5  C   UNL     1       3.013   4.590  17.932  0.00  0.00    +0.000 A 
ATOM      6  C   UNL     1       4.134   4.812  17.111  0.00  0.00    +0.000 A 
ENDROOT
BRANCH   3   7
ATOM      7  N   UNL     1       2.204   8.042  19.038  0.00  0.00    +0.000 N 
ATOM      8  C   UNL     1       1.496   9.076  18.435  0.00  0.00    +0.000 C 
ATOM      9  O   UNL     1       1.166   9.107  17.255  0.00  0.00    +0.000 OA
ATOM     10  H   UNL     1       2.231   8.017  20.050  0.00  0.00    +0.000 HD
BRANCH   8  11
ATOM     11  C   UNL     1       1.109  10.214  19.300  0.00  0.00    +0.000 A 
ATOM     12  C   UNL     1       1.636  11.481  19.032  0.00  0.00    +0.000 A 
ATOM     13  F   UNL     1       2.483  11.690  18.014  0.00  0.00    +0.000 F 
ATOM     14  C   UNL     1       1.329  12.577  19.841  0.00  0.00    +0.000 A 
ATOM     15  C   UNL     1       0.477  12.420  20.932  0.00  0.00    +0.000 A 
ATOM     16  C   UNL     1      -0.075  11.168  21.198  0.00  0.00    +0.000 A 
ATOM     17  C   UNL     1       0.244  10.077  20.386  0.00  0.00    +0.000 A 
ATOM     18  F   UNL     1      -0.305   8.888  20.681  0.00  0.00    +0.000 F 
ENDBRANCH   8  11
ENDBRANCH   3   7
BRANCH   5  19
ATOM     19  C   UNL     1       2.532   3.180  18.172  0.00  0.00    +0.000 C 
ATOM     20  F   UNL     1       1.324   3.117  18.800  0.00  0.00    +0.000 F 
ATOM     21  F   UNL     1       2.391   2.471  17.018  0.00  0.00    +0.000 F 
ATOM     22  F   UNL     1       3.392   2.464  18.948  0.00  0.00    +0.000 F 
ENDBRANCH   5  19
BRANCH   1  23
ATOM     23  O   UNL     1       5.749   6.433  16.231  0.00  0.00    +0.000 OA
BRANCH  23  24
ATOM     24  C   UNL     1       6.971   5.859  16.691  0.00  0.00    +0.000 C 
BRANCH  24  26
ATOM     25  C   UNL     1       7.925   6.085  19.015  0.00  0.00    +0.000 C 
ATOM     26  C   UNL     1       7.566   6.809  17.729  0.00  0.00    +0.000 C 
ENDBRANCH  24  26
ENDBRANCH  23  24
ENDBRANCH   1  23
TORSDOF 6
ENDMDL
MODEL 9
REMARK VINA RESULT:      -7.4      4.045      5.962
REMARK  Name = 
REMARK  7 active torsions:
REMARK  status: ('A' for Active; 'I' for Inactive)
REMARK    1  A    between atoms: C_1  and  C_2
REMARK    2  A    between atoms: C_2  and  C_3
REMARK    3  A    between atoms: C_3  and  O_4
REMARK    4  A    between atoms: O_4  and  C_5
REMARK    5  A    between atoms: C_7  and  N_8
REMARK    6  A    between atoms: C_9  and  C_11
REMARK    7  A    between atoms: C_20  and  C_21
REMARK                            x       y       z     vdW  Elec       q    Type
REMARK                         _______ _______ _______ _____ _____    ______ ____
ROOT
ATOM      1  C   UNL     1       4.926   4.722  19.004  0.00  0.00    +0.000 A 
ATOM      2  C   UNL     1       4.349   5.995  19.017  0.00  0.00    +0.000 A 
ATOM      3  C   UNL     1       2.982   6.179  18.800  0.00  0.00    +0.000 A 
ATOM      4  C   UNL     1       2.180   5.052  18.591  0.00  0.00    +0.000 A 
ATOM      5  C   UNL     1       2.739   3.759  18.590  0.00  0.00    +0.000 A 
ATOM      6  C   UNL     1       4.123   3.605  18.789  0.00  0.00    +0.000 A 
ENDROOT
BRANCH   3   7
ATOM      7  N   UNL     1       2.356   7.445  18.838  0.00  0.00    +0.000 N 
ATOM      8  C   UNL     1       1.782   8.028  19.962  0.00  0.00    +0.000 C 
ATOM      9  O   UNL     1       1.916   7.621  21.111  0.00  0.00    +0.000 OA
ATOM     10  H   UNL     1       2.360   7.983  17.979  0.00  0.00    +0.000 HD
BRANCH   8  11
ATOM     11  C   UNL     1       0.956   9.238  19.741  0.00  0.00    +0.000 A 
ATOM     12  C   UNL     1       1.323  10.136  18.734  0.00  0.00    +0.000 A 
ATOM     13  F   UNL     1       2.403   9.931  17.967  0.00  0.00    +0.000 F 
ATOM     14  C   UNL     1       0.596  11.308  18.512  0.00  0.00    +0.000 A 
ATOM     15  C   UNL     1      -0.520  11.593  19.295  0.00  0.00    +0.000 A 
ATOM     16  C   UNL     1      -0.912  10.696  20.287  0.00  0.00    +0.000 A 
ATOM     17  C   UNL     1      -0.174   9.530  20.504  0.00  0.00    +0.000 A 
ATOM     18  F   UNL     1      -0.582   8.695  21.473  0.00  0.00    +0.000 F 
ENDBRANCH   8  11
ENDBRANCH   3   7
BRANCH   5  19
ATOM     19  C   UNL     1       1.871   2.538  18.415  0.00  0.00    +0.000 C 
ATOM     20  F   UNL     1       1.941   1.665  19.460  0.00  0.00    +0.000 F 
ATOM     21  F   UNL     1       0.553   2.848  18.274  0.00  0.00    +0.000 F 
ATOM     22  F   UNL     1       2.206   1.819  17.308  0.00  0.00    +0.000 F 
ENDBRANCH   5  19
BRANCH   1  23
ATOM     23  O   UNL     1       6.260   4.693  19.303  0.00  0.00    +0.000 OA
BRANCH  23  24
ATOM     24  C   UNL     1       7.159   5.034  18.249  0.00  0.00    +0.000 C 
BRANCH  24  26
ATOM     25  C   UNL     1       7.635   7.429  17.620  0.00  0.00    +0.000 C 
ATOM     26  C   UNL     1       7.864   6.330  18.643  0.00  0.00    +0.000 C 
ENDBRANCH  24  26
ENDBRANCH  23  24
ENDBRANCH   1  23
TORSDOF 6
ENDMDL
