MODEL 1
REMARK VINA RESULT:      -7.6      0.000      0.000
REMARK  Name = 
REMARK  9 active torsions:
REMARK  status: ('A' for Active; 'I' for Inactive)
REMARK    1  A    between atoms: C_1  and  O_2
REMARK    2  A    between atoms: O_2  and  C_3
REMARK    3  A    between atoms: C_3  and  C_5
REMARK    4  A    between atoms: C_5  and  C_6
REMARK    5  A    between atoms: C_6  and  C_7
REMARK    6  A    between atoms: C_7  and  N_8
REMARK    7  A    between atoms: N_8  and  C_9
REMARK    8  A    between atoms: C_19  and  C_20
REMARK    9  A    between atoms: N_22  and  C_23
REMARK                            x       y       z     vdW  Elec       q    Type
REMARK                         _______ _______ _______ _____ _____    ______ ____
ROOT
ATOM      1  C   UNL     1       3.771   6.195  17.520  0.00  0.00    +0.000 A 
ATOM      2  C   UNL     1       3.283   4.913  17.822  0.00  0.00    +0.000 A 
ATOM      3  C   UNL     1       1.905   4.661  18.018  0.00  0.00    +0.000 A 
ATOM      4  C   UNL     1       1.442   3.361  18.096  0.00  0.00    +0.000 A 
ATOM      5  C   UNL     1       2.349   2.319  17.986  0.00  0.00    +0.000 A 
ATOM      6  C   UNL     1       3.734   2.601  17.962  0.00  0.00    +0.000 A 
ATOM      7  C   UNL     1       4.243   3.896  17.974  0.00  0.00    +0.000 A 
ATOM      8  N   UNL     1       5.586   4.181  18.102  0.00  0.00    +0.000 NA
ATOM      9  C   UNL     1       5.898   5.473  17.736  0.00  0.00    +0.000 A 
ATOM     10  C   UNL     1       5.044   6.207  16.901  0.00  0.00    +0.000 A 
ATOM     11  C   UNL     1       5.779   5.630  15.747  0.00  0.00    +0.000 A 
ATOM     12  C   UNL     1       5.630   4.324  14.998  0.00  0.00    +0.000 C 
ATOM     13  N   UNL     1       7.076   5.995  15.905  0.00  0.00    +0.000 NA
ATOM     14  N   UNL     1       7.101   6.037  17.270  0.00  0.00    +0.000 N 
ATOM     15  C   UNL     1       7.637   7.298  17.813  0.00  0.00    +0.000 C 
ENDROOT
BRANCH   1  16
ATOM     16  N   UNL     1       3.241   7.274  18.270  0.00  0.00    +0.000 N 
ATOM     17  H   UNL     1       2.865   7.018  19.174  0.00  0.00    +0.000 HD
BRANCH  16  18
ATOM     18  C   UNL     1       2.671   8.464  17.661  0.00  0.00    +0.000 C 
BRANCH  18  19
ATOM     19  C   UNL     1       1.525   8.999  18.534  0.00  0.00    +0.000 C 
BRANCH  19  20
ATOM     20  C   UNL     1       1.543   8.478  19.978  0.00  0.00    +0.000 C 
BRANCH  20  21
ATOM     21  C   UNL     1       0.897   9.446  20.941  0.00  0.00    +0.000 C 
ATOM     22  O   UNL     1       0.362  10.514  20.655  0.00  0.00    +0.000 OA
BRANCH  21  24
ATOM     23  C   UNL     1       0.067   9.459  23.160  0.00  0.00    +0.000 C 
ATOM     24  O   UNL     1       1.009   8.943  22.217  0.00  0.00    +0.000 OA
ENDBRANCH  21  24
ENDBRANCH  20  21
ENDBRANCH  19  20
ENDBRANCH  18  19
ENDBRANCH  16  18
ENDBRANCH   1  16
TORSDOF 6
ENDMDL
MODEL 2
REMARK VINA RESULT:      -7.6      2.581      4.690
REMARK  Name = 
REMARK  9 active torsions:
REMARK  status: ('A' for Active; 'I' for Inactive)
REMARK    1  A    between atoms: C_1  and  O_2
REMARK    2  A    between atoms: O_2  and  C_3
REMARK    3  A    between atoms: C_3  and  C_5
REMARK    4  A    between atoms: C_5  and  C_6
REMARK    5  A    between atoms: C_6  and  C_7
REMARK    6  A    between atoms: C_7  and  N_8
REMARK    7  A    between atoms: N_8  and  C_9
REMARK    8  A    between atoms: C_19  and  C_20
REMARK    9  A    between atoms: N_22  and  C_23
REMARK                            x       y       z     vdW  Elec       q    Type
REMARK                         _______ _______ _______ _____ _____    ______ ____
ROOT
ATOM      1  C   UNL     1       4.990   4.780  18.292  0.00  0.00    +0.000 A 
ATOM      2  C   UNL     1       3.988   5.742  18.496  0.00  0.00    +0.000 A 
ATOM      3  C   UNL     1       3.129   5.706  19.619  0.00  0.00    +0.000 A 
ATOM      4  C   UNL     1       2.307   6.781  19.900  0.00  0.00    +0.000 A 
ATOM      5  C   UNL     1       2.339   7.884  19.061  0.00  0.00    +0.000 A 
ATOM      6  C   UNL     1       3.077   7.824  17.858  0.00  0.00    +0.000 A 
ATOM      7  C   UNL     1       3.845   6.720  17.496  0.00  0.00    +0.000 A 
ATOM      8  N   UNL     1       4.447   6.588  16.262  0.00  0.00    +0.000 NA
ATOM      9  C   UNL     1       5.427   5.620  16.244  0.00  0.00    +0.000 A 
ATOM     10  C   UNL     1       6.037   5.195  17.433  0.00  0.00    +0.000 A 
ATOM     11  C   UNL     1       7.020   6.292  17.248  0.00  0.00    +0.000 A 
ATOM     12  C   UNL     1       6.987   7.758  17.616  0.00  0.00    +0.000 C 
ATOM     13  N   UNL     1       7.612   6.069  16.048  0.00  0.00    +0.000 NA
ATOM     14  N   UNL     1       6.559   5.465  15.421  0.00  0.00    +0.000 N 
ATOM     15  C   UNL     1       6.904   4.176  14.796  0.00  0.00    +0.000 C 
ENDROOT
BRANCH   1  16
ATOM     16  N   UNL     1       4.631   3.427  18.512  0.00  0.00    +0.000 N 
ATOM     17  H   UNL     1       5.143   2.967  19.255  0.00  0.00    +0.000 HD
BRANCH  16  18
ATOM     18  C   UNL     1       4.117   2.559  17.467  0.00  0.00    +0.000 C 
BRANCH  18  19
ATOM     19  C   UNL     1       2.662   2.171  17.778  0.00  0.00    +0.000 C 
BRANCH  19  20
ATOM     20  C   UNL     1       2.368   1.998  19.276  0.00  0.00    +0.000 C 
BRANCH  20  21
ATOM     21  C   UNL     1       1.033   2.586  19.666  0.00  0.00    +0.000 C 
ATOM     22  O   UNL     1       0.025   2.636  18.967  0.00  0.00    +0.000 OA
BRANCH  21  24
ATOM     23  C   UNL     1       2.345   2.781  21.629  0.00  0.00    +0.000 C 
ATOM     24  O   UNL     1       1.122   3.073  20.950  0.00  0.00    +0.000 OA
ENDBRANCH  21  24
ENDBRANCH  20  21
ENDBRANCH  19  20
ENDBRANCH  18  19
ENDBRANCH  16  18
ENDBRANCH   1  16
TORSDOF 6
ENDMDL
MODEL 3
REMARK VINA RESULT:      -7.5      1.414      1.817
REMARK  Name = 
REMARK  9 active torsions:
REMARK  status: ('A' for Active; 'I' for Inactive)
REMARK    1  A    between atoms: C_1  and  O_2
REMARK    2  A    between atoms: O_2  and  C_3
REMARK    3  A    between atoms: C_3  and  C_5
REMARK    4  A    between atoms: C_5  and  C_6
REMARK    5  A    between atoms: C_6  and  C_7
REMARK    6  A    between atoms: C_7  and  N_8
REMARK    7  A    between atoms: N_8  and  C_9
REMARK    8  A    between atoms: C_19  and  C_20
REMARK    9  A    between atoms: N_22  and  C_23
REMARK                            x       y       z     vdW  Elec       q    Type
REMARK                         _______ _______ _______ _____ _____    ______ ____
ROOT
ATOM      1  C   UNL     1       3.734   6.156  17.462  0.00  0.00    +0.000 A 
ATOM      2  C   UNL     1       3.269   4.865  17.757  0.00  0.00    +0.000 A 
ATOM      3  C   UNL     1       1.895   4.586  17.947  0.00  0.00    +0.000 A 
ATOM      4  C   UNL     1       1.456   3.277  18.019  0.00  0.00    +0.000 A 
ATOM      5  C   UNL     1       2.383   2.253  17.906  0.00  0.00    +0.000 A 
ATOM      6  C   UNL     1       3.762   2.560  17.887  0.00  0.00    +0.000 A 
ATOM      7  C   UNL     1       4.247   3.865  17.907  0.00  0.00    +0.000 A 
ATOM      8  N   UNL     1       5.585   4.174  18.040  0.00  0.00    +0.000 NA
ATOM      9  C   UNL     1       5.873   5.473  17.680  0.00  0.00    +0.000 A 
ATOM     10  C   UNL     1       5.008   6.195  16.845  0.00  0.00    +0.000 A 
ATOM     11  C   UNL     1       5.757   5.637  15.691  0.00  0.00    +0.000 A 
ATOM     12  C   UNL     1       5.634   4.332  14.937  0.00  0.00    +0.000 C 
ATOM     13  N   UNL     1       7.046   6.025  15.855  0.00  0.00    +0.000 NA
ATOM     14  N   UNL     1       7.066   6.061  17.220  0.00  0.00    +0.000 N 
ATOM     15  C   UNL     1       7.578   7.330  17.769  0.00  0.00    +0.000 C 
ENDROOT
BRANCH   1  16
ATOM     16  N   UNL     1       3.182   7.222  18.215  0.00  0.00    +0.000 N 
ATOM     17  H   UNL     1       2.571   6.937  18.970  0.00  0.00    +0.000 HD
BRANCH  16  18
ATOM     18  C   UNL     1       2.930   8.542  17.662  0.00  0.00    +0.000 C 
BRANCH  18  19
ATOM     19  C   UNL     1       1.432   8.872  17.758  0.00  0.00    +0.000 C 
BRANCH  19  20
ATOM     20  C   UNL     1       1.062   9.755  18.959  0.00  0.00    +0.000 C 
BRANCH  20  21
ATOM     21  C   UNL     1      -0.259  10.459  18.763  0.00  0.00    +0.000 C 
ATOM     22  O   UNL     1      -0.736  11.332  19.483  0.00  0.00    +0.000 OA
BRANCH  21  24
ATOM     23  C   UNL     1      -2.294  10.002  17.639  0.00  0.00    +0.000 C 
ATOM     24  O   UNL     1      -0.865   9.957  17.634  0.00  0.00    +0.000 OA
ENDBRANCH  21  24
ENDBRANCH  20  21
ENDBRANCH  19  20
ENDBRANCH  18  19
ENDBRANCH  16  18
ENDBRANCH   1  16
TORSDOF 6
ENDMDL
MODEL 4
REMARK VINA RESULT:      -7.5      0.820      1.006
REMARK  Name = 
REMARK  9 active torsions:
REMARK  status: ('A' for Active; 'I' for Inactive)
REMARK    1  A    between atoms: C_1  and  O_2
REMARK    2  A    between atoms: O_2  and  C_3
REMARK    3  A    between atoms: C_3  and  C_5
REMARK    4  A    between atoms: C_5  and  C_6
REMARK    5  A    between atoms: C_6  and  C_7
REMARK    6  A    between atoms: C_7  and  N_8
REMARK    7  A    between atoms: N_8  and  C_9
REMARK    8  A    between atoms: C_19  and  C_20
REMARK    9  A    between atoms: N_22  and  C_23
REMARK                            x       y       z     vdW  Elec       q    Type
REMARK                         _______ _______ _______ _____ _____    ______ ____
ROOT
ATOM      1  C   UNL     1       3.762   6.135  17.471  0.00  0.00    +0.000 A 
ATOM      2  C   UNL     1       3.289   4.847  17.773  0.00  0.00    +0.000 A 
ATOM      3  C   UNL     1       1.915   4.580  17.977  0.00  0.00    +0.000 A 
ATOM      4  C   UNL     1       1.466   3.275  18.055  0.00  0.00    +0.000 A 
ATOM      5  C   UNL     1       2.384   2.243  17.936  0.00  0.00    +0.000 A 
ATOM      6  C   UNL     1       3.765   2.539  17.903  0.00  0.00    +0.000 A 
ATOM      7  C   UNL     1       4.260   3.840  17.916  0.00  0.00    +0.000 A 
ATOM      8  N   UNL     1       5.602   4.139  18.035  0.00  0.00    +0.000 NA
ATOM      9  C   UNL     1       5.897   5.435  17.670  0.00  0.00    +0.000 A 
ATOM     10  C   UNL     1       5.030   6.162  16.842  0.00  0.00    +0.000 A 
ATOM     11  C   UNL     1       5.763   5.596  15.683  0.00  0.00    +0.000 A 
ATOM     12  C   UNL     1       5.623   4.290  14.931  0.00  0.00    +0.000 C 
ATOM     13  N   UNL     1       7.057   5.974  15.833  0.00  0.00    +0.000 NA
ATOM     14  N   UNL     1       7.091   6.013  17.198  0.00  0.00    +0.000 N 
ATOM     15  C   UNL     1       7.618   7.278  17.740  0.00  0.00    +0.000 C 
ENDROOT
BRANCH   1  16
ATOM     16  N   UNL     1       3.225   7.206  18.227  0.00  0.00    +0.000 N 
ATOM     17  H   UNL     1       2.654   6.926  19.014  0.00  0.00    +0.000 HD
BRANCH  16  18
ATOM     18  C   UNL     1       2.926   8.510  17.661  0.00  0.00    +0.000 C 
BRANCH  18  19
ATOM     19  C   UNL     1       1.430   8.822  17.828  0.00  0.00    +0.000 C 
BRANCH  19  20
ATOM     20  C   UNL     1       1.145  10.170  18.506  0.00  0.00    +0.000 C 
BRANCH  20  21
ATOM     21  C   UNL     1      -0.143  10.150  19.294  0.00  0.00    +0.000 C 
ATOM     22  O   UNL     1      -1.205  10.676  18.972  0.00  0.00    +0.000 OA
BRANCH  21  24
ATOM     23  C   UNL     1       0.635  10.191  21.532  0.00  0.00    +0.000 C 
ATOM     24  O   UNL     1       0.060   9.443  20.457  0.00  0.00    +0.000 OA
ENDBRANCH  21  24
ENDBRANCH  20  21
ENDBRANCH  19  20
ENDBRANCH  18  19
ENDBRANCH  16  18
ENDBRANCH   1  16
TORSDOF 6
ENDMDL
MODEL 5
REMARK VINA RESULT:      -7.5      1.398      1.973
REMARK  Name = 
REMARK  9 active torsions:
REMARK  status: ('A' for Active; 'I' for Inactive)
REMARK    1  A    between atoms: C_1  and  O_2
REMARK    2  A    between atoms: O_2  and  C_3
REMARK    3  A    between atoms: C_3  and  C_5
REMARK    4  A    between atoms: C_5  and  C_6
REMARK    5  A    between atoms: C_6  and  C_7
REMARK    6  A    between atoms: C_7  and  N_8
REMARK    7  A    between atoms: N_8  and  C_9
REMARK    8  A    between atoms: C_19  and  C_20
REMARK    9  A    between atoms: N_22  and  C_23
REMARK                            x       y       z     vdW  Elec       q    Type
REMARK                         _______ _______ _______ _____ _____    ______ ____
ROOT
ATOM      1  C   UNL     1       3.789   6.194  17.455  0.00  0.00    +0.000 A 
ATOM      2  C   UNL     1       3.299   4.910  17.749  0.00  0.00    +0.000 A 
ATOM      3  C   UNL     1       1.923   4.662  17.963  0.00  0.00    +0.000 A 
ATOM      4  C   UNL     1       1.455   3.363  18.033  0.00  0.00    +0.000 A 
ATOM      5  C   UNL     1       2.356   2.319  17.895  0.00  0.00    +0.000 A 
ATOM      6  C   UNL     1       3.741   2.595  17.853  0.00  0.00    +0.000 A 
ATOM      7  C   UNL     1       4.256   3.887  17.874  0.00  0.00    +0.000 A 
ATOM      8  N   UNL     1       5.603   4.165  17.984  0.00  0.00    +0.000 NA
ATOM      9  C   UNL     1       5.915   5.459  17.629  0.00  0.00    +0.000 A 
ATOM     10  C   UNL     1       5.052   6.208  16.816  0.00  0.00    +0.000 A 
ATOM     11  C   UNL     1       5.766   5.642  15.644  0.00  0.00    +0.000 A 
ATOM     12  C   UNL     1       5.599   4.346  14.882  0.00  0.00    +0.000 C 
ATOM     13  N   UNL     1       7.067   5.999  15.787  0.00  0.00    +0.000 NA
ATOM     14  N   UNL     1       7.113   6.024  17.152  0.00  0.00    +0.000 N 
ATOM     15  C   UNL     1       7.664   7.275  17.701  0.00  0.00    +0.000 C 
ENDROOT
BRANCH   1  16
ATOM     16  N   UNL     1       3.275   7.265  18.226  0.00  0.00    +0.000 N 
ATOM     17  H   UNL     1       3.108   7.046  19.200  0.00  0.00    +0.000 HD
BRANCH  16  18
ATOM     18  C   UNL     1       2.458   8.329  17.668  0.00  0.00    +0.000 C 
BRANCH  18  19
ATOM     19  C   UNL     1       1.581   8.947  18.769  0.00  0.00    +0.000 C 
BRANCH  19  20
ATOM     20  C   UNL     1       0.833  10.216  18.334  0.00  0.00    +0.000 C 
BRANCH  20  21
ATOM     21  C   UNL     1       1.384  11.456  18.996  0.00  0.00    +0.000 C 
ATOM     22  O   UNL     1       1.095  11.878  20.113  0.00  0.00    +0.000 OA
BRANCH  21  24
ATOM     23  C   UNL     1       2.583  13.422  18.439  0.00  0.00    +0.000 C 
ATOM     24  O   UNL     1       2.273  12.060  18.136  0.00  0.00    +0.000 OA
ENDBRANCH  21  24
ENDBRANCH  20  21
ENDBRANCH  19  20
ENDBRANCH  18  19
ENDBRANCH  16  18
ENDBRANCH   1  16
TORSDOF 6
ENDMDL
MODEL 6
REMARK VINA RESULT:      -7.4      2.813      4.892
REMARK  Name = 
REMARK  9 active torsions:
REMARK  status: ('A' for Active; 'I' for Inactive)
REMARK    1  A    between atoms: C_1  and  O_2
REMARK    2  A    between atoms: O_2  and  C_3
REMARK    3  A    between atoms: C_3  and  C_5
REMARK    4  A    between atoms: C_5  and  C_6
REMARK    5  A    between atoms: C_6  and  C_7
REMARK    6  A    between atoms: C_7  and  N_8
REMARK    7  A    between atoms: N_8  and  C_9
REMARK    8  A    between atoms: C_19  and  C_20
REMARK    9  A    between atoms: N_22  and  C_23
REMARK                            x       y       z     vdW  Elec       q    Type
REMARK                         _______ _______ _______ _____ _____    ______ ____
ROOT
ATOM      1  C   UNL     1       5.145   4.851  18.271  0.00  0.00    +0.000 A 
ATOM      2  C   UNL     1       4.098   5.763  18.480  0.00  0.00    +0.000 A 
ATOM      3  C   UNL     1       3.245   5.683  19.606  0.00  0.00    +0.000 A 
ATOM      4  C   UNL     1       2.373   6.717  19.891  0.00  0.00    +0.000 A 
ATOM      5  C   UNL     1       2.348   7.821  19.054  0.00  0.00    +0.000 A 
ATOM      6  C   UNL     1       3.085   7.799  17.849  0.00  0.00    +0.000 A 
ATOM      7  C   UNL     1       3.904   6.735  17.482  0.00  0.00    +0.000 A 
ATOM      8  N   UNL     1       4.508   6.634  16.246  0.00  0.00    +0.000 NA
ATOM      9  C   UNL     1       5.534   5.715  16.224  0.00  0.00    +0.000 A 
ATOM     10  C   UNL     1       6.167   5.318  17.410  0.00  0.00    +0.000 A 
ATOM     11  C   UNL     1       7.096   6.461  17.224  0.00  0.00    +0.000 A 
ATOM     12  C   UNL     1       6.992   7.924  17.595  0.00  0.00    +0.000 C 
ATOM     13  N   UNL     1       7.694   6.269  16.022  0.00  0.00    +0.000 NA
ATOM     14  N   UNL     1       6.669   5.617  15.397  0.00  0.00    +0.000 N 
ATOM     15  C   UNL     1       7.074   4.347  14.768  0.00  0.00    +0.000 C 
ENDROOT
BRANCH   1  16
ATOM     16  N   UNL     1       4.853   3.482  18.489  0.00  0.00    +0.000 N 
ATOM     17  H   UNL     1       5.595   2.954  18.932  0.00  0.00    +0.000 HD
BRANCH  16  18
ATOM     18  C   UNL     1       3.947   2.716  17.650  0.00  0.00    +0.000 C 
BRANCH  18  19
ATOM     19  C   UNL     1       3.288   1.599  18.475  0.00  0.00    +0.000 C 
BRANCH  19  20
ATOM     20  C   UNL     1       2.546   2.098  19.723  0.00  0.00    +0.000 C 
BRANCH  20  21
ATOM     21  C   UNL     1       3.453   2.193  20.926  0.00  0.00    +0.000 C 
ATOM     22  O   UNL     1       4.665   1.991  20.945  0.00  0.00    +0.000 OA
BRANCH  21  24
ATOM     23  C   UNL     1       1.347   2.906  21.742  0.00  0.00    +0.000 C 
ATOM     24  O   UNL     1       2.700   2.543  22.023  0.00  0.00    +0.000 OA
ENDBRANCH  21  24
ENDBRANCH  20  21
ENDBRANCH  19  20
ENDBRANCH  18  19
ENDBRANCH  16  18
ENDBRANCH   1  16
TORSDOF 6
ENDMDL
MODEL 7
REMARK VINA RESULT:      -7.4      3.051      5.800
REMARK  Name = 
REMARK  9 active torsions:
REMARK  status: ('A' for Active; 'I' for Inactive)
REMARK    1  A    between atoms: C_1  and  O_2
REMARK    2  A    between atoms: O_2  and  C_3
REMARK    3  A    between atoms: C_3  and  C_5
REMARK    4  A    between atoms: C_5  and  C_6
REMARK    5  A    between atoms: C_6  and  C_7
REMARK    6  A    between atoms: C_7  and  N_8
REMARK    7  A    between atoms: N_8  and  C_9
REMARK    8  A    between atoms: C_19  and  C_20
REMARK    9  A    between atoms: N_22  and  C_23
REMARK                            x       y       z     vdW  Elec       q    Type
REMARK                         _______ _______ _______ _____ _____    ______ ____
ROOT
ATOM      1  C   UNL     1       3.977   5.137  17.752  0.00  0.00    +0.000 A 
ATOM      2  C   UNL     1       3.353   6.291  18.252  0.00  0.00    +0.000 A 
ATOM      3  C   UNL     1       3.359   7.515  17.544  0.00  0.00    +0.000 A 
ATOM      4  C   UNL     1       2.556   8.562  17.958  0.00  0.00    +0.000 A 
ATOM      5  C   UNL     1       1.757   8.389  19.077  0.00  0.00    +0.000 A 
ATOM      6  C   UNL     1       1.898   7.221  19.861  0.00  0.00    +0.000 A 
ATOM      7  C   UNL     1       2.764   6.185  19.525  0.00  0.00    +0.000 A 
ATOM      8  N   UNL     1       3.021   5.113  20.355  0.00  0.00    +0.000 NA
ATOM      9  C   UNL     1       3.608   4.054  19.697  0.00  0.00    +0.000 A 
ATOM     10  C   UNL     1       3.498   3.924  18.305  0.00  0.00    +0.000 A 
ATOM     11  C   UNL     1       2.239   3.172  18.537  0.00  0.00    +0.000 A 
ATOM     12  C   UNL     1       0.812   3.623  18.756  0.00  0.00    +0.000 C 
ATOM     13  N   UNL     1       2.573   2.107  19.308  0.00  0.00    +0.000 NA
ATOM     14  N   UNL     1       3.614   2.676  19.985  0.00  0.00    +0.000 N 
ATOM     15  C   UNL     1       4.850   1.874  19.952  0.00  0.00    +0.000 C 
ENDROOT
BRANCH   1  16
ATOM     16  N   UNL     1       5.267   5.300  17.191  0.00  0.00    +0.000 N 
ATOM     17  H   UNL     1       5.323   5.981  16.445  0.00  0.00    +0.000 HD
BRANCH  16  18
ATOM     18  C   UNL     1       6.261   4.240  17.155  0.00  0.00    +0.000 C 
BRANCH  18  19
ATOM     19  C   UNL     1       7.570   4.728  17.797  0.00  0.00    +0.000 C 
BRANCH  19  20
ATOM     20  C   UNL     1       7.414   5.999  18.644  0.00  0.00    +0.000 C 
BRANCH  20  21
ATOM     21  C   UNL     1       7.750   7.248  17.865  0.00  0.00    +0.000 C 
ATOM     22  O   UNL     1       7.377   7.522  16.728  0.00  0.00    +0.000 OA
BRANCH  21  24
ATOM     23  C   UNL     1       8.516   9.441  18.328  0.00  0.00    +0.000 C 
ATOM     24  O   UNL     1       8.562   8.047  18.638  0.00  0.00    +0.000 OA
ENDBRANCH  21  24
ENDBRANCH  20  21
ENDBRANCH  19  20
ENDBRANCH  18  19
ENDBRANCH  16  18
ENDBRANCH   1  16
TORSDOF 6
ENDMDL
MODEL 8
REMARK VINA RESULT:      -7.4      2.928      5.862
REMARK  Name = 
REMARK  9 active torsions:
REMARK  status: ('A' for Active; 'I' for Inactive)
REMARK    1  A    between atoms: C_1  and  O_2
REMARK    2  A    between atoms: O_2  and  C_3
REMARK    3  A    between atoms: C_3  and  C_5
REMARK    4  A    between atoms: C_5  and  C_6
REMARK    5  A    between atoms: C_6  and  C_7
REMARK    6  A    between atoms: C_7  and  N_8
REMARK    7  A    between atoms: N_8  and  C_9
REMARK    8  A    between atoms: C_19  and  C_20
REMARK    9  A    between atoms: N_22  and  C_23
REMARK                            x       y       z     vdW  Elec       q    Type
REMARK                         _______ _______ _______ _____ _____    ______ ____
ROOT
ATOM      1  C   UNL     1       3.419   5.143  17.632  0.00  0.00    +0.000 A 
ATOM      2  C   UNL     1       2.983   6.349  18.202  0.00  0.00    +0.000 A 
ATOM      3  C   UNL     1       2.843   7.533  17.441  0.00  0.00    +0.000 A 
ATOM      4  C   UNL     1       2.209   8.636  17.982  0.00  0.00    +0.000 A 
ATOM      5  C   UNL     1       1.721   8.559  19.277  0.00  0.00    +0.000 A 
ATOM      6  C   UNL     1       2.023   7.428  20.069  0.00  0.00    +0.000 A 
ATOM      7  C   UNL     1       2.740   6.337  19.587  0.00  0.00    +0.000 A 
ATOM      8  N   UNL     1       3.169   5.299  20.388  0.00  0.00    +0.000 NA
ATOM      9  C   UNL     1       3.531   4.180  19.669  0.00  0.00    +0.000 A 
ATOM     10  C   UNL     1       3.061   3.984  18.363  0.00  0.00    +0.000 A 
ATOM     11  C   UNL     1       1.883   3.304  18.956  0.00  0.00    +0.000 A 
ATOM     12  C   UNL     1       0.575   3.832  19.505  0.00  0.00    +0.000 C 
ATOM     13  N   UNL     1       2.371   2.266  19.680  0.00  0.00    +0.000 NA
ATOM     14  N   UNL     1       3.568   2.821  20.031  0.00  0.00    +0.000 N 
ATOM     15  C   UNL     1       4.727   1.961  19.732  0.00  0.00    +0.000 C 
ENDROOT
BRANCH   1  16
ATOM     16  N   UNL     1       4.525   5.216  16.749  0.00  0.00    +0.000 N 
ATOM     17  H   UNL     1       4.411   5.862  15.978  0.00  0.00    +0.000 HD
BRANCH  16  18
ATOM     18  C   UNL     1       5.433   4.106  16.515  0.00  0.00    +0.000 C 
BRANCH  18  19
ATOM     19  C   UNL     1       6.876   4.626  16.401  0.00  0.00    +0.000 C 
BRANCH  19  20
ATOM     20  C   UNL     1       7.686   4.509  17.700  0.00  0.00    +0.000 C 
BRANCH  20  21
ATOM     21  C   UNL     1       7.359   5.612  18.678  0.00  0.00    +0.000 C 
ATOM     22  O   UNL     1       7.413   5.543  19.903  0.00  0.00    +0.000 OA
BRANCH  21  24
ATOM     23  C   UNL     1       7.922   7.799  17.963  0.00  0.00    +0.000 C 
ATOM     24  O   UNL     1       6.974   6.729  17.972  0.00  0.00    +0.000 OA
ENDBRANCH  21  24
ENDBRANCH  20  21
ENDBRANCH  19  20
ENDBRANCH  18  19
ENDBRANCH  16  18
ENDBRANCH   1  16
TORSDOF 6
ENDMDL
MODEL 9
REMARK VINA RESULT:      -7.4      3.320      6.243
REMARK  Name = 
REMARK  9 active torsions:
REMARK  status: ('A' for Active; 'I' for Inactive)
REMARK    1  A    between atoms: C_1  and  O_2
REMARK    2  A    between atoms: O_2  and  C_3
REMARK    3  A    between atoms: C_3  and  C_5
REMARK    4  A    between atoms: C_5  and  C_6
REMARK    5  A    between atoms: C_6  and  C_7
REMARK    6  A    between atoms: C_7  and  N_8
REMARK    7  A    between atoms: N_8  and  C_9
REMARK    8  A    between atoms: C_19  and  C_20
REMARK    9  A    between atoms: N_22  and  C_23
REMARK                            x       y       z     vdW  Elec       q    Type
REMARK                         _______ _______ _______ _____ _____    ______ ____
ROOT
ATOM      1  C   UNL     1       3.222   5.224  17.772  0.00  0.00    +0.000 A 
ATOM      2  C   UNL     1       2.785   6.433  18.337  0.00  0.00    +0.000 A 
ATOM      3  C   UNL     1       2.610   7.604  17.564  0.00  0.00    +0.000 A 
ATOM      4  C   UNL     1       1.977   8.707  18.106  0.00  0.00    +0.000 A 
ATOM      5  C   UNL     1       1.524   8.642  19.414  0.00  0.00    +0.000 A 
ATOM      6  C   UNL     1       1.861   7.527  20.213  0.00  0.00    +0.000 A 
ATOM      7  C   UNL     1       2.579   6.437  19.728  0.00  0.00    +0.000 A 
ATOM      8  N   UNL     1       3.043   5.416  20.532  0.00  0.00    +0.000 NA
ATOM      9  C   UNL     1       3.400   4.292  19.819  0.00  0.00    +0.000 A 
ATOM     10  C   UNL     1       2.898   4.072  18.529  0.00  0.00    +0.000 A 
ATOM     11  C   UNL     1       1.745   3.386  19.162  0.00  0.00    +0.000 A 
ATOM     12  C   UNL     1       0.446   3.905  19.739  0.00  0.00    +0.000 C 
ATOM     13  N   UNL     1       2.265   2.364  19.887  0.00  0.00    +0.000 NA
ATOM     14  N   UNL     1       3.464   2.938  20.199  0.00  0.00    +0.000 N 
ATOM     15  C   UNL     1       4.626   2.089  19.881  0.00  0.00    +0.000 C 
ENDROOT
BRANCH   1  16
ATOM     16  N   UNL     1       4.303   5.299  16.860  0.00  0.00    +0.000 N 
ATOM     17  H   UNL     1       4.403   6.191  16.392  0.00  0.00    +0.000 HD
BRANCH  16  18
ATOM     18  C   UNL     1       4.821   4.147  16.141  0.00  0.00    +0.000 C 
BRANCH  18  19
ATOM     19  C   UNL     1       5.468   4.600  14.823  0.00  0.00    +0.000 C 
BRANCH  19  20
ATOM     20  C   UNL     1       7.003   4.629  14.858  0.00  0.00    +0.000 C 
BRANCH  20  21
ATOM     21  C   UNL     1       7.535   4.997  16.222  0.00  0.00    +0.000 C 
ATOM     22  O   UNL     1       8.033   4.232  17.044  0.00  0.00    +0.000 OA
BRANCH  21  24
ATOM     23  C   UNL     1       7.512   6.798  17.761  0.00  0.00    +0.000 C 
ATOM     24  O   UNL     1       7.369   6.350  16.411  0.00  0.00    +0.000 OA
ENDBRANCH  21  24
ENDBRANCH  20  21
ENDBRANCH  19  20
ENDBRANCH  18  19
ENDBRANCH  16  18
ENDBRANCH   1  16
TORSDOF 6
ENDMDL
