MODEL 1
REMARK VINA RESULT:      -8.6      0.000      0.000
REMARK  Name = 
REMARK  7 active torsions:
REMARK  status: ('A' for Active; 'I' for Inactive)
REMARK    1  A    between atoms: C_1  and  C_2
REMARK    2  A    between atoms: C_7  and  C_8
REMARK    3  A    between atoms: C_8  and  C_9
REMARK    4  A    between atoms: C_9  and  C_10
REMARK    5  A    between atoms: C_10  and  C_11
REMARK    6  A    between atoms: C_11  and  N_12
REMARK    7  A    between atoms: N_22  and  C_23
REMARK                            x       y       z     vdW  Elec       q    Type
REMARK                         _______ _______ _______ _____ _____    ______ ____
ROOT
ATOM      1  C   UNL     1       7.577   7.219  17.678  0.00  0.00    +0.000 C 
ATOM      2  C   UNL     1       7.510   5.694  17.600  0.00  0.00    +0.000 C 
ATOM      3  C   UNL     1       6.755   5.182  18.808  0.00  0.00    +0.000 C 
ATOM      4  O   UNL     1       7.165   5.381  19.951  0.00  0.00    +0.000 OA
ATOM      5  C   UNL     1       5.533   4.474  18.526  0.00  0.00    +0.000 A 
ATOM      6  N   UNL     1       4.634   3.962  19.423  0.00  0.00    +0.000 NA
ATOM      7  C   UNL     1       3.694   3.394  18.694  0.00  0.00    +0.000 A 
ATOM      8  N   UNL     1       3.960   3.538  17.350  0.00  0.00    +0.000 N 
ATOM      9  C   UNL     1       5.138   4.228  17.239  0.00  0.00    +0.000 A 
ATOM     10  N   UNL     1       5.800   4.589  16.083  0.00  0.00    +0.000 N 
ATOM     11  C   UNL     1       5.350   4.288  14.734  0.00  0.00    +0.000 C 
ATOM     12  C   UNL     1       7.001   5.292  16.214  0.00  0.00    +0.000 C 
ATOM     13  O   UNL     1       7.657   5.617  15.217  0.00  0.00    +0.000 OA
ATOM     14  H   UNL     1       3.389   3.181  16.599  0.00  0.00    +0.000 HD
ENDROOT
BRANCH   7  15
ATOM     15  C   UNL     1       2.508   2.661  19.216  0.00  0.00    +0.000 C 
BRANCH  15  16
ATOM     16  C   UNL     1       1.961   3.302  20.490  0.00  0.00    +0.000 C 
BRANCH  16  17
ATOM     17  C   UNL     1       1.340   4.669  20.189  0.00  0.00    +0.000 C 
BRANCH  17  18
ATOM     18  C   UNL     1       2.224   5.801  20.709  0.00  0.00    +0.000 C 
BRANCH  18  19
ATOM     19  N   UNL     1       1.866   7.092  20.129  0.00  0.00    +0.000 N 
ATOM     20  N   UNL     1       1.188   7.943  20.963  0.00  0.00    +0.000 NA
ATOM     21  C   UNL     1       0.863   9.117  20.542  0.00  0.00    +0.000 C 
ATOM     22 CL   UNL     1       0.037  10.155  21.630  0.00  0.00    +0.000 Cl
ATOM     23  C   UNL     1       1.143   9.682  19.195  0.00  0.00    +0.000 C 
ATOM     24  C   UNL     1       1.863   8.731  18.271  0.00  0.00    +0.000 C 
ATOM     25  C   UNL     1       2.211   7.372  18.818  0.00  0.00    +0.000 C 
ATOM     26  O   UNL     1       2.790   6.561  18.090  0.00  0.00    +0.000 OA
ENDBRANCH  18  19
ENDBRANCH  17  18
ENDBRANCH  16  17
ENDBRANCH  15  16
ENDBRANCH   7  15
TORSDOF 5
ENDMDL
MODEL 2
REMARK VINA RESULT:      -8.3      2.209      2.613
REMARK  Name = 
REMARK  7 active torsions:
REMARK  status: ('A' for Active; 'I' for Inactive)
REMARK    1  A    between atoms: C_1  and  C_2
REMARK    2  A    between atoms: C_7  and  C_8
REMARK    3  A    between atoms: C_8  and  C_9
REMARK    4  A    between atoms: C_9  and  C_10
REMARK    5  A    between atoms: C_10  and  C_11
REMARK    6  A    between atoms: C_11  and  N_12
REMARK    7  A    between atoms: N_22  and  C_23
REMARK                            x       y       z     vdW  Elec       q    Type
REMARK                         _______ _______ _______ _____ _____    ______ ____
ROOT
ATOM      1  C   UNL     1       7.336   7.539  17.647  0.00  0.00    +0.000 C 
ATOM      2  C   UNL     1       7.631   6.039  17.622  0.00  0.00    +0.000 C 
ATOM      3  C   UNL     1       7.071   5.415  18.881  0.00  0.00    +0.000 C 
ATOM      4  O   UNL     1       7.468   5.754  19.996  0.00  0.00    +0.000 OA
ATOM      5  C   UNL     1       6.042   4.426  18.682  0.00  0.00    +0.000 A 
ATOM      6  N   UNL     1       5.329   3.754  19.639  0.00  0.00    +0.000 NA
ATOM      7  C   UNL     1       4.523   2.949  18.976  0.00  0.00    +0.000 A 
ATOM      8  N   UNL     1       4.692   3.094  17.617  0.00  0.00    +0.000 N 
ATOM      9  C   UNL     1       5.666   4.039  17.425  0.00  0.00    +0.000 A 
ATOM     10  N   UNL     1       6.175   4.496  16.227  0.00  0.00    +0.000 N 
ATOM     11  C   UNL     1       5.755   4.040  14.913  0.00  0.00    +0.000 C 
ATOM     12  C   UNL     1       7.178   5.470  16.276  0.00  0.00    +0.000 C 
ATOM     13  O   UNL     1       7.695   5.898  15.237  0.00  0.00    +0.000 OA
ATOM     14  H   UNL     1       4.192   2.580  16.906  0.00  0.00    +0.000 HD
ENDROOT
BRANCH   7  15
ATOM     15  C   UNL     1       3.569   1.979  19.579  0.00  0.00    +0.000 C 
BRANCH  15  16
ATOM     16  C   UNL     1       2.518   1.515  18.572  0.00  0.00    +0.000 C 
BRANCH  16  17
ATOM     17  C   UNL     1       1.157   2.148  18.874  0.00  0.00    +0.000 C 
BRANCH  17  18
ATOM     18  C   UNL     1       0.941   3.410  18.039  0.00  0.00    +0.000 C 
BRANCH  18  19
ATOM     19  N   UNL     1       1.570   4.583  18.641  0.00  0.00    +0.000 N 
ATOM     20  N   UNL     1       2.355   5.325  17.797  0.00  0.00    +0.000 NA
ATOM     21  C   UNL     1       2.920   6.398  18.237  0.00  0.00    +0.000 C 
ATOM     22 CL   UNL     1       3.873   7.306  17.137  0.00  0.00    +0.000 Cl
ATOM     23  C   UNL     1       2.822   6.945  19.617  0.00  0.00    +0.000 C 
ATOM     24  C   UNL     1       1.981   6.109  20.548  0.00  0.00    +0.000 C 
ATOM     25  C   UNL     1       1.352   4.865  19.978  0.00  0.00    +0.000 C 
ATOM     26  O   UNL     1       0.666   4.148  20.711  0.00  0.00    +0.000 OA
ENDBRANCH  18  19
ENDBRANCH  17  18
ENDBRANCH  16  17
ENDBRANCH  15  16
ENDBRANCH   7  15
TORSDOF 5
ENDMDL
MODEL 3
REMARK VINA RESULT:      -8.2      0.902      1.138
REMARK  Name = 
REMARK  7 active torsions:
REMARK  status: ('A' for Active; 'I' for Inactive)
REMARK    1  A    between atoms: C_1  and  C_2
REMARK    2  A    between atoms: C_7  and  C_8
REMARK    3  A    between atoms: C_8  and  C_9
REMARK    4  A    between atoms: C_9  and  C_10
REMARK    5  A    between atoms: C_10  and  C_11
REMARK    6  A    between atoms: C_11  and  N_12
REMARK    7  A    between atoms: N_22  and  C_23
REMARK                            x       y       z     vdW  Elec       q    Type
REMARK                         _______ _______ _______ _____ _____    ______ ____
ROOT
ATOM      1  C   UNL     1       7.845   7.295  17.789  0.00  0.00    +0.000 C 
ATOM      2  C   UNL     1       7.606   5.785  17.760  0.00  0.00    +0.000 C 
ATOM      3  C   UNL     1       6.875   5.387  19.024  0.00  0.00    +0.000 C 
ATOM      4  O   UNL     1       7.374   5.566  20.135  0.00  0.00    +0.000 OA
ATOM      5  C   UNL     1       5.568   4.814  18.834  0.00  0.00    +0.000 A 
ATOM      6  N   UNL     1       4.674   4.425  19.797  0.00  0.00    +0.000 NA
ATOM      7  C   UNL     1       3.635   3.949  19.140  0.00  0.00    +0.000 A 
ATOM      8  N   UNL     1       3.833   4.032  17.780  0.00  0.00    +0.000 N 
ATOM      9  C   UNL     1       5.070   4.585  17.580  0.00  0.00    +0.000 A 
ATOM     10  N   UNL     1       5.696   4.843  16.378  0.00  0.00    +0.000 N 
ATOM     11  C   UNL     1       5.134   4.563  15.067  0.00  0.00    +0.000 C 
ATOM     12  C   UNL     1       6.973   5.411  16.418  0.00  0.00    +0.000 C 
ATOM     13  O   UNL     1       7.598   5.639  15.375  0.00  0.00    +0.000 OA
ATOM     14  H   UNL     1       3.181   3.724  17.074  0.00  0.00    +0.000 HD
ENDROOT
BRANCH   7  15
ATOM     15  C   UNL     1       2.410   3.365  19.752  0.00  0.00    +0.000 C 
BRANCH  15  16
ATOM     16  C   UNL     1       1.277   4.386  19.840  0.00  0.00    +0.000 C 
BRANCH  16  17
ATOM     17  C   UNL     1       1.711   5.612  20.647  0.00  0.00    +0.000 C 
BRANCH  17  18
ATOM     18  C   UNL     1       2.206   6.727  19.727  0.00  0.00    +0.000 C 
BRANCH  18  19
ATOM     19  N   UNL     1       1.596   8.016  20.044  0.00  0.00    +0.000 N 
ATOM     20  N   UNL     1       1.156   8.154  21.335  0.00  0.00    +0.000 NA
ATOM     21  C   UNL     1       0.636   9.273  21.710  0.00  0.00    +0.000 C 
ATOM     22 CL   UNL     1       0.122   9.406  23.342  0.00  0.00    +0.000 Cl
ATOM     23  C   UNL     1       0.441  10.483  20.868  0.00  0.00    +0.000 C 
ATOM     24  C   UNL     1       0.900  10.315  19.441  0.00  0.00    +0.000 C 
ATOM     25  C   UNL     1       1.494   8.984  19.061  0.00  0.00    +0.000 C 
ATOM     26  O   UNL     1       1.870   8.803  17.900  0.00  0.00    +0.000 OA
ENDBRANCH  18  19
ENDBRANCH  17  18
ENDBRANCH  16  17
ENDBRANCH  15  16
ENDBRANCH   7  15
TORSDOF 5
ENDMDL
MODEL 4
REMARK VINA RESULT:      -7.8      2.896      7.012
REMARK  Name = 
REMARK  7 active torsions:
REMARK  status: ('A' for Active; 'I' for Inactive)
REMARK    1  A    between atoms: C_1  and  C_2
REMARK    2  A    between atoms: C_7  and  C_8
REMARK    3  A    between atoms: C_8  and  C_9
REMARK    4  A    between atoms: C_9  and  C_10
REMARK    5  A    between atoms: C_10  and  C_11
REMARK    6  A    between atoms: C_11  and  N_12
REMARK    7  A    between atoms: N_22  and  C_23
REMARK                            x       y       z     vdW  Elec       q    Type
REMARK                         _______ _______ _______ _____ _____    ______ ____
ROOT
ATOM      1  C   UNL     1       1.934  12.067  19.176  0.00  0.00    +0.000 C 
ATOM      2  C   UNL     1       0.924  10.921  19.232  0.00  0.00    +0.000 C 
ATOM      3  C   UNL     1       1.517   9.721  18.524  0.00  0.00    +0.000 C 
ATOM      4  O   UNL     1       1.818   9.765  17.332  0.00  0.00    +0.000 OA
ATOM      5  C   UNL     1       1.717   8.552  19.341  0.00  0.00    +0.000 A 
ATOM      6  N   UNL     1       2.285   7.360  18.975  0.00  0.00    +0.000 NA
ATOM      7  C   UNL     1       2.231   6.600  20.050  0.00  0.00    +0.000 A 
ATOM      8  N   UNL     1       1.652   7.276  21.101  0.00  0.00    +0.000 N 
ATOM      9  C   UNL     1       1.321   8.526  20.651  0.00  0.00    +0.000 A 
ATOM     10  N   UNL     1       0.705   9.542  21.352  0.00  0.00    +0.000 N 
ATOM     11  C   UNL     1       0.285   9.462  22.741  0.00  0.00    +0.000 C 
ATOM     12  C   UNL     1       0.459  10.742  20.679  0.00  0.00    +0.000 C 
ATOM     13  O   UNL     1      -0.116  11.680  21.244  0.00  0.00    +0.000 OA
ATOM     14  H   UNL     1       1.496   6.899  22.025  0.00  0.00    +0.000 HD
ENDROOT
BRANCH   7  15
ATOM     15  C   UNL     1       2.693   5.188  20.145  0.00  0.00    +0.000 C 
BRANCH  15  16
ATOM     16  C   UNL     1       2.248   4.364  18.937  0.00  0.00    +0.000 C 
BRANCH  16  17
ATOM     17  C   UNL     1       3.281   3.284  18.605  0.00  0.00    +0.000 C 
BRANCH  17  18
ATOM     18  C   UNL     1       4.649   3.635  19.188  0.00  0.00    +0.000 C 
BRANCH  18  19
ATOM     19  N   UNL     1       5.507   4.304  18.214  0.00  0.00    +0.000 N 
ATOM     20  N   UNL     1       5.231   4.028  16.900  0.00  0.00    +0.000 NA
ATOM     21  C   UNL     1       5.917   4.604  15.973  0.00  0.00    +0.000 C 
ATOM     22 CL   UNL     1       5.518   4.246  14.344  0.00  0.00    +0.000 Cl
ATOM     23  C   UNL     1       7.031   5.571  16.171  0.00  0.00    +0.000 C 
ATOM     24  C   UNL     1       7.350   5.848  17.618  0.00  0.00    +0.000 C 
ATOM     25  C   UNL     1       6.517   5.142  18.655  0.00  0.00    +0.000 C 
ATOM     26  O   UNL     1       6.755   5.333  19.850  0.00  0.00    +0.000 OA
ENDBRANCH  18  19
ENDBRANCH  17  18
ENDBRANCH  16  17
ENDBRANCH  15  16
ENDBRANCH   7  15
TORSDOF 5
ENDMDL
MODEL 5
REMARK VINA RESULT:      -7.8      1.752      2.007
REMARK  Name = 
REMARK  7 active torsions:
REMARK  status: ('A' for Active; 'I' for Inactive)
REMARK    1  A    between atoms: C_1  and  C_2
REMARK    2  A    between atoms: C_7  and  C_8
REMARK    3  A    between atoms: C_8  and  C_9
REMARK    4  A    between atoms: C_9  and  C_10
REMARK    5  A    between atoms: C_10  and  C_11
REMARK    6  A    between atoms: C_11  and  N_12
REMARK    7  A    between atoms: N_22  and  C_23
REMARK                            x       y       z     vdW  Elec       q    Type
REMARK                         _______ _______ _______ _____ _____    ______ ____
ROOT
ATOM      1  C   UNL     1       7.509   7.371  17.687  0.00  0.00    +0.000 C 
ATOM      2  C   UNL     1       7.613   5.846  17.632  0.00  0.00    +0.000 C 
ATOM      3  C   UNL     1       6.965   5.274  18.874  0.00  0.00    +0.000 C 
ATOM      4  O   UNL     1       7.391   5.538  19.999  0.00  0.00    +0.000 OA
ATOM      5  C   UNL     1       5.822   4.427  18.648  0.00  0.00    +0.000 A 
ATOM      6  N   UNL     1       5.020   3.832  19.585  0.00  0.00    +0.000 NA
ATOM      7  C   UNL     1       4.125   3.149  18.900  0.00  0.00    +0.000 A 
ATOM      8  N   UNL     1       4.325   3.298  17.545  0.00  0.00    +0.000 N 
ATOM      9  C   UNL     1       5.412   4.116  17.380  0.00  0.00    +0.000 A 
ATOM     10  N   UNL     1       5.987   4.528  16.196  0.00  0.00    +0.000 N 
ATOM     11  C   UNL     1       5.526   4.155  14.869  0.00  0.00    +0.000 C 
ATOM     12  C   UNL     1       7.104   5.366  16.272  0.00  0.00    +0.000 C 
ATOM     13  O   UNL     1       7.682   5.745  15.246  0.00  0.00    +0.000 OA
ATOM     14  H   UNL     1       3.771   2.866  16.821  0.00  0.00    +0.000 HD
ENDROOT
BRANCH   7  15
ATOM     15  C   UNL     1       3.050   2.296  19.476  0.00  0.00    +0.000 C 
BRANCH  15  16
ATOM     16  C   UNL     1       2.310   3.004  20.609  0.00  0.00    +0.000 C 
BRANCH  16  17
ATOM     17  C   UNL     1       2.791   4.450  20.754  0.00  0.00    +0.000 C 
BRANCH  17  18
ATOM     18  C   UNL     1       1.611   5.420  20.783  0.00  0.00    +0.000 C 
BRANCH  18  19
ATOM     19  N   UNL     1       1.860   6.616  19.982  0.00  0.00    +0.000 N 
ATOM     20  N   UNL     1       2.679   6.435  18.897  0.00  0.00    +0.000 NA
ATOM     21  C   UNL     1       2.923   7.430  18.115  0.00  0.00    +0.000 C 
ATOM     22 CL   UNL     1       3.934   7.150  16.758  0.00  0.00    +0.000 Cl
ATOM     23  C   UNL     1       2.404   8.817  18.262  0.00  0.00    +0.000 C 
ATOM     24  C   UNL     1       1.528   9.017  19.473  0.00  0.00    +0.000 C 
ATOM     25  C   UNL     1       1.284   7.818  20.351  0.00  0.00    +0.000 C 
ATOM     26  O   UNL     1       0.582   7.944  21.358  0.00  0.00    +0.000 OA
ENDBRANCH  18  19
ENDBRANCH  17  18
ENDBRANCH  16  17
ENDBRANCH  15  16
ENDBRANCH   7  15
TORSDOF 5
ENDMDL
MODEL 6
REMARK VINA RESULT:      -7.6      1.534      1.860
REMARK  Name = 
REMARK  7 active torsions:
REMARK  status: ('A' for Active; 'I' for Inactive)
REMARK    1  A    between atoms: C_1  and  C_2
REMARK    2  A    between atoms: C_7  and  C_8
REMARK    3  A    between atoms: C_8  and  C_9
REMARK    4  A    between atoms: C_9  and  C_10
REMARK    5  A    between atoms: C_10  and  C_11
REMARK    6  A    between atoms: C_11  and  N_12
REMARK    7  A    between atoms: N_22  and  C_23
REMARK                            x       y       z     vdW  Elec       q    Type
REMARK                         _______ _______ _______ _____ _____    ______ ____
ROOT
ATOM      1  C   UNL     1       7.160   7.678  17.521  0.00  0.00    +0.000 C 
ATOM      2  C   UNL     1       7.555   6.203  17.602  0.00  0.00    +0.000 C 
ATOM      3  C   UNL     1       7.132   5.664  18.951  0.00  0.00    +0.000 C 
ATOM      4  O   UNL     1       7.585   6.128  19.998  0.00  0.00    +0.000 OA
ATOM      5  C   UNL     1       6.161   4.601  18.921  0.00  0.00    +0.000 A 
ATOM      6  N   UNL     1       5.567   3.976  19.986  0.00  0.00    +0.000 NA
ATOM      7  C   UNL     1       4.771   3.066  19.460  0.00  0.00    +0.000 A 
ATOM      8  N   UNL     1       4.831   3.096  18.085  0.00  0.00    +0.000 N 
ATOM      9  C   UNL     1       5.721   4.077  17.735  0.00  0.00    +0.000 A 
ATOM     10  N   UNL     1       6.109   4.453  16.466  0.00  0.00    +0.000 N 
ATOM     11  C   UNL     1       5.627   3.853  15.233  0.00  0.00    +0.000 C 
ATOM     12  C   UNL     1       7.044   5.486  16.351  0.00  0.00    +0.000 C 
ATOM     13  O   UNL     1       7.454   5.849  15.242  0.00  0.00    +0.000 OA
ATOM     14  H   UNL     1       4.316   2.489  17.463  0.00  0.00    +0.000 HD
ENDROOT
BRANCH   7  15
ATOM     15  C   UNL     1       3.932   2.098  20.219  0.00  0.00    +0.000 C 
BRANCH  15  16
ATOM     16  C   UNL     1       2.732   2.780  20.873  0.00  0.00    +0.000 C 
BRANCH  16  17
ATOM     17  C   UNL     1       1.424   2.326  20.220  0.00  0.00    +0.000 C 
BRANCH  17  18
ATOM     18  C   UNL     1       0.486   3.510  19.988  0.00  0.00    +0.000 C 
BRANCH  18  19
ATOM     19  N   UNL     1       1.204   4.705  19.554  0.00  0.00    +0.000 N 
ATOM     20  N   UNL     1       1.210   5.744  20.448  0.00  0.00    +0.000 NA
ATOM     21  C   UNL     1       1.851   6.825  20.160  0.00  0.00    +0.000 C 
ATOM     22 CL   UNL     1       1.850   8.087  21.321  0.00  0.00    +0.000 Cl
ATOM     23  C   UNL     1       2.613   7.093  18.910  0.00  0.00    +0.000 C 
ATOM     24  C   UNL     1       2.578   5.959  17.918  0.00  0.00    +0.000 C 
ATOM     25  C   UNL     1       1.809   4.725  18.309  0.00  0.00    +0.000 C 
ATOM     26  O   UNL     1       1.747   3.779  17.519  0.00  0.00    +0.000 OA
ENDBRANCH  18  19
ENDBRANCH  17  18
ENDBRANCH  16  17
ENDBRANCH  15  16
ENDBRANCH   7  15
TORSDOF 5
ENDMDL
MODEL 7
REMARK VINA RESULT:      -7.6      3.967      5.949
REMARK  Name = 
REMARK  7 active torsions:
REMARK  status: ('A' for Active; 'I' for Inactive)
REMARK    1  A    between atoms: C_1  and  C_2
REMARK    2  A    between atoms: C_7  and  C_8
REMARK    3  A    between atoms: C_8  and  C_9
REMARK    4  A    between atoms: C_9  and  C_10
REMARK    5  A    between atoms: C_10  and  C_11
REMARK    6  A    between atoms: C_11  and  N_12
REMARK    7  A    between atoms: N_22  and  C_23
REMARK                            x       y       z     vdW  Elec       q    Type
REMARK                         _______ _______ _______ _____ _____    ______ ____
ROOT
ATOM      1  C   UNL     1       3.282   3.234  17.011  0.00  0.00    +0.000 C 
ATOM      2  C   UNL     1       3.906   3.962  18.202  0.00  0.00    +0.000 C 
ATOM      3  C   UNL     1       3.699   5.450  18.019  0.00  0.00    +0.000 C 
ATOM      4  O   UNL     1       4.171   6.049  17.053  0.00  0.00    +0.000 OA
ATOM      5  C   UNL     1       2.907   6.099  19.032  0.00  0.00    +0.000 A 
ATOM      6  N   UNL     1       2.518   7.412  19.081  0.00  0.00    +0.000 NA
ATOM      7  C   UNL     1       1.827   7.532  20.197  0.00  0.00    +0.000 A 
ATOM      8  N   UNL     1       1.752   6.328  20.861  0.00  0.00    +0.000 N 
ATOM      9  C   UNL     1       2.443   5.408  20.118  0.00  0.00    +0.000 A 
ATOM     10  N   UNL     1       2.648   4.073  20.404  0.00  0.00    +0.000 N 
ATOM     11  C   UNL     1       2.150   3.386  21.584  0.00  0.00    +0.000 C 
ATOM     12  C   UNL     1       3.397   3.321  19.494  0.00  0.00    +0.000 C 
ATOM     13  O   UNL     1       3.640   2.127  19.708  0.00  0.00    +0.000 OA
ATOM     14  H   UNL     1       1.282   6.174  21.741  0.00  0.00    +0.000 HD
ENDROOT
BRANCH   7  15
ATOM     15  C   UNL     1       1.223   8.789  20.716  0.00  0.00    +0.000 C 
BRANCH  15  16
ATOM     16  C   UNL     1       0.894   9.768  19.591  0.00  0.00    +0.000 C 
BRANCH  16  17
ATOM     17  C   UNL     1      -0.607  10.068  19.550  0.00  0.00    +0.000 C 
BRANCH  17  18
ATOM     18  C   UNL     1      -0.883  11.393  18.842  0.00  0.00    +0.000 C 
BRANCH  18  19
ATOM     19  N   UNL     1      -2.143  11.372  18.104  0.00  0.00    +0.000 N 
ATOM     20  N   UNL     1      -2.069  10.871  16.830  0.00  0.00    +0.000 NA
ATOM     21  C   UNL     1      -3.142  10.783  16.120  0.00  0.00    +0.000 C 
ATOM     22 CL   UNL     1      -3.002  10.128  14.541  0.00  0.00    +0.000 Cl
ATOM     23  C   UNL     1      -4.512  11.186  16.536  0.00  0.00    +0.000 C 
ATOM     24  C   UNL     1      -4.583  11.763  17.928  0.00  0.00    +0.000 C 
ATOM     25  C   UNL     1      -3.296  11.845  18.706  0.00  0.00    +0.000 C 
ATOM     26  O   UNL     1      -3.310  12.322  19.844  0.00  0.00    +0.000 OA
ENDBRANCH  18  19
ENDBRANCH  17  18
ENDBRANCH  16  17
ENDBRANCH  15  16
ENDBRANCH   7  15
TORSDOF 5
ENDMDL
MODEL 8
REMARK VINA RESULT:      -7.5      3.598      7.970
REMARK  Name = 
REMARK  7 active torsions:
REMARK  status: ('A' for Active; 'I' for Inactive)
REMARK    1  A    between atoms: C_1  and  C_2
REMARK    2  A    between atoms: C_7  and  C_8
REMARK    3  A    between atoms: C_8  and  C_9
REMARK    4  A    between atoms: C_9  and  C_10
REMARK    5  A    between atoms: C_10  and  C_11
REMARK    6  A    between atoms: C_11  and  N_12
REMARK    7  A    between atoms: N_22  and  C_23
REMARK                            x       y       z     vdW  Elec       q    Type
REMARK                         _______ _______ _______ _____ _____    ______ ____
ROOT
ATOM      1  C   UNL     1      -1.877  11.993  22.420  0.00  0.00    +0.000 C 
ATOM      2  C   UNL     1      -0.455  12.190  21.891  0.00  0.00    +0.000 C 
ATOM      3  C   UNL     1       0.202  10.833  21.759  0.00  0.00    +0.000 C 
ATOM      4  O   UNL     1       0.371  10.105  22.737  0.00  0.00    +0.000 OA
ATOM      5  C   UNL     1       0.590  10.455  20.425  0.00  0.00    +0.000 A 
ATOM      6  N   UNL     1       1.145   9.271  20.015  0.00  0.00    +0.000 NA
ATOM      7  C   UNL     1       1.338   9.403  18.718  0.00  0.00    +0.000 A 
ATOM      8  N   UNL     1       0.911  10.637  18.281  0.00  0.00    +0.000 N 
ATOM      9  C   UNL     1       0.432  11.314  19.371  0.00  0.00    +0.000 A 
ATOM     10  N   UNL     1      -0.084  12.593  19.412  0.00  0.00    +0.000 N 
ATOM     11  C   UNL     1      -0.214  13.478  18.266  0.00  0.00    +0.000 C 
ATOM     12  C   UNL     1      -0.510  13.084  20.650  0.00  0.00    +0.000 C 
ATOM     13  O   UNL     1      -0.954  14.233  20.757  0.00  0.00    +0.000 OA
ATOM     14  H   UNL     1       0.962  10.971  17.329  0.00  0.00    +0.000 HD
ENDROOT
BRANCH   7  15
ATOM     15  C   UNL     1       1.958   8.390  17.821  0.00  0.00    +0.000 C 
BRANCH  15  16
ATOM     16  C   UNL     1       2.518   7.205  18.606  0.00  0.00    +0.000 C 
BRANCH  16  17
ATOM     17  C   UNL     1       3.769   6.643  17.925  0.00  0.00    +0.000 C 
BRANCH  17  18
ATOM     18  C   UNL     1       4.374   5.503  18.744  0.00  0.00    +0.000 C 
BRANCH  18  19
ATOM     19  N   UNL     1       3.522   4.317  18.751  0.00  0.00    +0.000 N 
ATOM     20  N   UNL     1       2.895   4.052  19.941  0.00  0.00    +0.000 NA
ATOM     21  C   UNL     1       2.096   3.043  20.026  0.00  0.00    +0.000 C 
ATOM     22 CL   UNL     1       1.316   2.766  21.528  0.00  0.00    +0.000 Cl
ATOM     23  C   UNL     1       1.766   2.085  18.937  0.00  0.00    +0.000 C 
ATOM     24  C   UNL     1       2.482   2.364  17.639  0.00  0.00    +0.000 C 
ATOM     25  C   UNL     1       3.405   3.552  17.604  0.00  0.00    +0.000 C 
ATOM     26  O   UNL     1       4.018   3.807  16.564  0.00  0.00    +0.000 OA
ENDBRANCH  18  19
ENDBRANCH  17  18
ENDBRANCH  16  17
ENDBRANCH  15  16
ENDBRANCH   7  15
TORSDOF 5
ENDMDL
MODEL 9
REMARK VINA RESULT:      -7.4      3.687      8.093
REMARK  Name = 
REMARK  7 active torsions:
REMARK  status: ('A' for Active; 'I' for Inactive)
REMARK    1  A    between atoms: C_1  and  C_2
REMARK    2  A    between atoms: C_7  and  C_8
REMARK    3  A    between atoms: C_8  and  C_9
REMARK    4  A    between atoms: C_9  and  C_10
REMARK    5  A    between atoms: C_10  and  C_11
REMARK    6  A    between atoms: C_11  and  N_12
REMARK    7  A    between atoms: N_22  and  C_23
REMARK                            x       y       z     vdW  Elec       q    Type
REMARK                         _______ _______ _______ _____ _____    ______ ____
ROOT
ATOM      1  C   UNL     1      -1.660  11.439  22.473  0.00  0.00    +0.000 C 
ATOM      2  C   UNL     1      -0.213  11.628  22.019  0.00  0.00    +0.000 C 
ATOM      3  C   UNL     1       0.387  10.267  21.740  0.00  0.00    +0.000 C 
ATOM      4  O   UNL     1       0.485   9.417  22.625  0.00  0.00    +0.000 OA
ATOM      5  C   UNL     1       0.808  10.038  20.382  0.00  0.00    +0.000 A 
ATOM      6  N   UNL     1       1.325   8.887  19.847  0.00  0.00    +0.000 NA
ATOM      7  C   UNL     1       1.572   9.168  18.583  0.00  0.00    +0.000 A 
ATOM      8  N   UNL     1       1.219  10.466  18.289  0.00  0.00    +0.000 N 
ATOM      9  C   UNL     1       0.730  11.027  19.440  0.00  0.00    +0.000 A 
ATOM     10  N   UNL     1       0.271  12.315  19.623  0.00  0.00    +0.000 N 
ATOM     11  C   UNL     1       0.224  13.340  18.593  0.00  0.00    +0.000 C 
ATOM     12  C   UNL     1      -0.180  12.670  20.898  0.00  0.00    +0.000 C 
ATOM     13  O   UNL     1      -0.575  13.818  21.134  0.00  0.00    +0.000 OA
ATOM     14  H   UNL     1       1.321  10.912  17.389  0.00  0.00    +0.000 HD
ENDROOT
BRANCH   7  15
ATOM     15  C   UNL     1       2.180   8.244  17.587  0.00  0.00    +0.000 C 
BRANCH  15  16
ATOM     16  C   UNL     1       3.150   7.262  18.242  0.00  0.00    +0.000 C 
BRANCH  16  17
ATOM     17  C   UNL     1       2.624   5.828  18.143  0.00  0.00    +0.000 C 
BRANCH  17  18
ATOM     18  C   UNL     1       3.626   4.834  18.727  0.00  0.00    +0.000 C 
BRANCH  18  19
ATOM     19  N   UNL     1       4.845   4.745  17.927  0.00  0.00    +0.000 N 
ATOM     20  N   UNL     1       4.654   4.518  16.589  0.00  0.00    +0.000 NA
ATOM     21  C   UNL     1       5.675   4.461  15.804  0.00  0.00    +0.000 C 
ATOM     22 CL   UNL     1       5.384   4.199  14.133  0.00  0.00    +0.000 Cl
ATOM     23  C   UNL     1       7.102   4.612  16.197  0.00  0.00    +0.000 C 
ATOM     24  C   UNL     1       7.308   4.832  17.675  0.00  0.00    +0.000 C 
ATOM     25  C   UNL     1       6.078   4.884  18.541  0.00  0.00    +0.000 C 
ATOM     26  O   UNL     1       6.205   5.051  19.758  0.00  0.00    +0.000 OA
ENDBRANCH  18  19
ENDBRANCH  17  18
ENDBRANCH  16  17
ENDBRANCH  15  16
ENDBRANCH   7  15
TORSDOF 5
ENDMDL
