MODEL 1
REMARK VINA RESULT:      -6.8      0.000      0.000
REMARK  Name = 
REMARK  10 active torsions:
REMARK  status: ('A' for Active; 'I' for Inactive)
REMARK    1  A    between atoms: C_1  and  C_2
REMARK    2  A    between atoms: C_2  and  C_3
REMARK    3  A    between atoms: C_3  and  C_4
REMARK    4  A    between atoms: C_4  and  N_5
REMARK    5  A    between atoms: C_8  and  C_9
REMARK    6  A    between atoms: C_9  and  C_10
REMARK    7  A    between atoms: C_10  and  C_11
REMARK    8  A    between atoms: C_10  and  C_12
REMARK    9  A    between atoms: N_19  and  C_20
REMARK   10  A    between atoms: C_20  and  C_21
REMARK                            x       y       z     vdW  Elec       q    Type
REMARK                         _______ _______ _______ _____ _____    ______ ____
ROOT
ATOM      1  N   UNL     1       1.303  13.428  19.896  0.00  0.00    +0.000 N 
ATOM      2  C   UNL     1       0.558  14.390  20.612  0.00  0.00    +0.000 C 
ATOM      3  O   UNL     1       0.957  15.040  21.573  0.00  0.00    +0.000 OA
ATOM      4  C   UNL     1      -0.712  14.815  19.865  0.00  0.00    +0.000 C 
ATOM      5  N   UNL     1      -1.455  13.671  19.378  0.00  0.00    +0.000 N 
ATOM      6  C   UNL     1      -0.773  12.664  18.742  0.00  0.00    +0.000 C 
ATOM      7  O   UNL     1      -1.319  12.090  17.806  0.00  0.00    +0.000 OA
ATOM      8  C   UNL     1       0.543  12.197  19.460  0.00  0.00    +0.000 C 
ATOM      9  C   UNL     1       0.136  11.438  20.751  0.00  0.00    +0.000 C 
ATOM     10  C   UNL     1      -0.466  10.061  20.478  0.00  0.00    +0.000 C 
ATOM     11  N   UNL     1       0.387   9.215  19.641  0.00  0.00    +0.000 NA
ATOM     12  C   UNL     1       0.634   9.880  18.355  0.00  0.00    +0.000 C 
ATOM     13  C   UNL     1       1.300  11.258  18.491  0.00  0.00    +0.000 C 
ATOM     14  H   UNL     1      -2.341  13.873  18.925  0.00  0.00    +0.000 HD
ENDROOT
BRANCH   1  15
ATOM     15  C   UNL     1       2.775  13.542  19.796  0.00  0.00    +0.000 C 
BRANCH  15  16
ATOM     16  C   UNL     1       3.297  14.338  18.601  0.00  0.00    +0.000 C 
BRANCH  16  18
ATOM     17  C   UNL     1       3.129  16.556  17.503  0.00  0.00    +0.000 C 
ATOM     18  C   UNL     1       3.382  15.844  18.827  0.00  0.00    +0.000 C 
ENDBRANCH  16  18
ENDBRANCH  15  16
ENDBRANCH   1  15
BRANCH   4  19
ATOM     19  C   UNL     1      -0.259  15.737  18.715  0.00  0.00    +0.000 C 
BRANCH  19  20
ATOM     20  C   UNL     1      -0.739  17.193  18.811  0.00  0.00    +0.000 C 
ATOM     21  C   UNL     1      -0.010  17.973  19.903  0.00  0.00    +0.000 C 
ATOM     22  C   UNL     1      -0.544  17.877  17.456  0.00  0.00    +0.000 C 
ENDBRANCH  19  20
ENDBRANCH   4  19
BRANCH  11  23
ATOM     23  C   UNL     1       1.599   8.785  20.362  0.00  0.00    +0.000 C 
BRANCH  23  24
ATOM     24  C   UNL     1       1.971   7.343  20.113  0.00  0.00    +0.000 A 
ATOM     25  C   UNL     1       1.433   6.315  20.901  0.00  0.00    +0.000 A 
ATOM     26  C   UNL     1       1.705   4.980  20.600  0.00  0.00    +0.000 A 
ATOM     27  C   UNL     1       2.505   4.662  19.501  0.00  0.00    +0.000 A 
ATOM     28  C   UNL     1       3.034   5.685  18.709  0.00  0.00    +0.000 A 
ATOM     29  C   UNL     1       2.801   7.017  19.031  0.00  0.00    +0.000 A 
ATOM     30  O   UNL     1       3.770   5.453  17.574  0.00  0.00    +0.000 OA
ATOM     31  C   UNL     1       3.536   4.124  17.096  0.00  0.00    +0.000 C 
ATOM     32  C   UNL     1       3.697   3.128  18.234  0.00  0.00    +0.000 C 
ATOM     33  O   UNL     1       2.699   3.332  19.241  0.00  0.00    +0.000 OA
ENDBRANCH  23  24
ENDBRANCH  11  23
TORSDOF 7
ENDMDL
MODEL 2
REMARK VINA RESULT:      -6.7      0.921      1.680
REMARK  Name = 
REMARK  10 active torsions:
REMARK  status: ('A' for Active; 'I' for Inactive)
REMARK    1  A    between atoms: C_1  and  C_2
REMARK    2  A    between atoms: C_2  and  C_3
REMARK    3  A    between atoms: C_3  and  C_4
REMARK    4  A    between atoms: C_4  and  N_5
REMARK    5  A    between atoms: C_8  and  C_9
REMARK    6  A    between atoms: C_9  and  C_10
REMARK    7  A    between atoms: C_10  and  C_11
REMARK    8  A    between atoms: C_10  and  C_12
REMARK    9  A    between atoms: N_19  and  C_20
REMARK   10  A    between atoms: C_20  and  C_21
REMARK                            x       y       z     vdW  Elec       q    Type
REMARK                         _______ _______ _______ _____ _____    ______ ____
ROOT
ATOM      1  N   UNL     1       1.332  13.429  20.440  0.00  0.00    +0.000 N 
ATOM      2  C   UNL     1       0.526  14.295  21.208  0.00  0.00    +0.000 C 
ATOM      3  O   UNL     1       0.834  14.802  22.283  0.00  0.00    +0.000 OA
ATOM      4  C   UNL     1      -0.665  14.839  20.411  0.00  0.00    +0.000 C 
ATOM      5  N   UNL     1      -1.363  13.784  19.704  0.00  0.00    +0.000 N 
ATOM      6  C   UNL     1      -0.626  12.863  19.003  0.00  0.00    +0.000 C 
ATOM      7  O   UNL     1      -1.082  12.431  17.950  0.00  0.00    +0.000 OA
ATOM      8  C   UNL     1       0.613  12.281  19.770  0.00  0.00    +0.000 C 
ATOM      9  C   UNL     1       0.083  11.360  20.900  0.00  0.00    +0.000 C 
ATOM     10  C   UNL     1      -0.494  10.043  20.385  0.00  0.00    +0.000 C 
ATOM     11  N   UNL     1       0.432   9.305  19.523  0.00  0.00    +0.000 NA
ATOM     12  C   UNL     1       0.802  10.136  18.370  0.00  0.00    +0.000 C 
ATOM     13  C   UNL     1       1.456  11.471  18.756  0.00  0.00    +0.000 C 
ATOM     14  H   UNL     1      -2.200  14.061  19.202  0.00  0.00    +0.000 HD
ENDROOT
BRANCH   1  15
ATOM     15  C   UNL     1       2.808  13.531  20.496  0.00  0.00    +0.000 C 
BRANCH  15  16
ATOM     16  C   UNL     1       3.414  14.736  19.777  0.00  0.00    +0.000 C 
BRANCH  16  18
ATOM     17  C   UNL     1       3.254  15.738  17.515  0.00  0.00    +0.000 C 
ATOM     18  C   UNL     1       3.709  14.512  18.298  0.00  0.00    +0.000 C 
ENDBRANCH  16  18
ENDBRANCH  15  16
ENDBRANCH   1  15
BRANCH   4  19
ATOM     19  C   UNL     1      -0.102  15.902  19.447  0.00  0.00    +0.000 C 
BRANCH  19  20
ATOM     20  C   UNL     1      -0.781  17.279  19.515  0.00  0.00    +0.000 C 
ATOM     21  C   UNL     1      -1.012  17.880  18.130  0.00  0.00    +0.000 C 
ATOM     22  C   UNL     1      -2.110  17.147  20.261  0.00  0.00    +0.000 C 
ENDBRANCH  19  20
ENDBRANCH   4  19
BRANCH  11  23
ATOM     23  C   UNL     1       1.568   8.761  20.290  0.00  0.00    +0.000 C 
BRANCH  23  24
ATOM     24  C   UNL     1       1.955   7.359  19.884  0.00  0.00    +0.000 A 
ATOM     25  C   UNL     1       2.727   7.129  18.736  0.00  0.00    +0.000 A 
ATOM     26  C   UNL     1       3.162   5.840  18.425  0.00  0.00    +0.000 A 
ATOM     27  C   UNL     1       2.840   4.774  19.266  0.00  0.00    +0.000 A 
ATOM     28  C   UNL     1       2.078   5.002  20.416  0.00  0.00    +0.000 A 
ATOM     29  C   UNL     1       1.607   6.277  20.706  0.00  0.00    +0.000 A 
ATOM     30  O   UNL     1       1.781   4.021  21.328  0.00  0.00    +0.000 OA
ATOM     31  C   UNL     1       2.687   2.922  21.185  0.00  0.00    +0.000 C 
ATOM     32  C   UNL     1       2.768   2.502  19.726  0.00  0.00    +0.000 C 
ATOM     33  O   UNL     1       3.332   3.544  18.922  0.00  0.00    +0.000 OA
ENDBRANCH  23  24
ENDBRANCH  11  23
TORSDOF 7
ENDMDL
MODEL 3
REMARK VINA RESULT:      -6.5      0.996      1.631
REMARK  Name = 
REMARK  10 active torsions:
REMARK  status: ('A' for Active; 'I' for Inactive)
REMARK    1  A    between atoms: C_1  and  C_2
REMARK    2  A    between atoms: C_2  and  C_3
REMARK    3  A    between atoms: C_3  and  C_4
REMARK    4  A    between atoms: C_4  and  N_5
REMARK    5  A    between atoms: C_8  and  C_9
REMARK    6  A    between atoms: C_9  and  C_10
REMARK    7  A    between atoms: C_10  and  C_11
REMARK    8  A    between atoms: C_10  and  C_12
REMARK    9  A    between atoms: N_19  and  C_20
REMARK   10  A    between atoms: C_20  and  C_21
REMARK                            x       y       z     vdW  Elec       q    Type
REMARK                         _______ _______ _______ _____ _____    ______ ____
ROOT
ATOM      1  N   UNL     1       1.382  13.604  19.521  0.00  0.00    +0.000 N 
ATOM      2  C   UNL     1       0.912  14.712  20.258  0.00  0.00    +0.000 C 
ATOM      3  O   UNL     1       1.587  15.425  20.996  0.00  0.00    +0.000 OA
ATOM      4  C   UNL     1      -0.472  15.177  19.791  0.00  0.00    +0.000 C 
ATOM      5  N   UNL     1      -1.393  14.067  19.660  0.00  0.00    +0.000 N 
ATOM      6  C   UNL     1      -0.967  12.929  19.021  0.00  0.00    +0.000 C 
ATOM      7  O   UNL     1      -1.771  12.311  18.332  0.00  0.00    +0.000 OA
ATOM      8  C   UNL     1       0.451  12.415  19.454  0.00  0.00    +0.000 C 
ATOM      9  C   UNL     1       0.333  11.855  20.896  0.00  0.00    +0.000 C 
ATOM     10  C   UNL     1      -0.414  10.524  20.967  0.00  0.00    +0.000 C 
ATOM     11  N   UNL     1       0.137   9.505  20.071  0.00  0.00    +0.000 NA
ATOM     12  C   UNL     1       0.096   9.991  18.686  0.00  0.00    +0.000 C 
ATOM     13  C   UNL     1       0.870  11.300  18.467  0.00  0.00    +0.000 C 
ATOM     14  H   UNL     1      -2.348  14.305  19.412  0.00  0.00    +0.000 HD
ENDROOT
BRANCH   1  15
ATOM     15  C   UNL     1       2.785  13.556  19.053  0.00  0.00    +0.000 C 
BRANCH  15  16
ATOM     16  C   UNL     1       3.139  14.523  17.924  0.00  0.00    +0.000 C 
BRANCH  16  18
ATOM     17  C   UNL     1       5.615  14.657  17.885  0.00  0.00    +0.000 C 
ATOM     18  C   UNL     1       4.337  15.422  18.209  0.00  0.00    +0.000 C 
ENDBRANCH  16  18
ENDBRANCH  15  16
ENDBRANCH   1  15
BRANCH   4  19
ATOM     19  C   UNL     1      -0.262  15.911  18.451  0.00  0.00    +0.000 C 
BRANCH  19  20
ATOM     20  C   UNL     1      -0.796  17.350  18.398  0.00  0.00    +0.000 C 
ATOM     21  C   UNL     1      -1.577  17.725  19.656  0.00  0.00    +0.000 C 
ATOM     22  C   UNL     1       0.377  18.314  18.199  0.00  0.00    +0.000 C 
ENDBRANCH  19  20
ENDBRANCH   4  19
BRANCH  11  23
ATOM     23  C   UNL     1       1.459   9.039  20.529  0.00  0.00    +0.000 C 
BRANCH  23  24
ATOM     24  C   UNL     1       1.831   7.670  20.010  0.00  0.00    +0.000 A 
ATOM     25  C   UNL     1       2.535   7.524  18.807  0.00  0.00    +0.000 A 
ATOM     26  C   UNL     1       2.960   6.263  18.387  0.00  0.00    +0.000 A 
ATOM     27  C   UNL     1       2.696   5.141  19.174  0.00  0.00    +0.000 A 
ATOM     28  C   UNL     1       2.002   5.286  20.380  0.00  0.00    +0.000 A 
ATOM     29  C   UNL     1       1.540   6.534  20.779  0.00  0.00    +0.000 A 
ATOM     30  O   UNL     1       1.766   4.244  21.241  0.00  0.00    +0.000 OA
ATOM     31  C   UNL     1       2.670   3.167  20.974  0.00  0.00    +0.000 C 
ATOM     32  C   UNL     1       2.666   2.843  19.488  0.00  0.00    +0.000 C 
ATOM     33  O   UNL     1       3.174   3.941  18.721  0.00  0.00    +0.000 OA
ENDBRANCH  23  24
ENDBRANCH  11  23
TORSDOF 7
ENDMDL
MODEL 4
REMARK VINA RESULT:      -6.5      2.691      4.014
REMARK  Name = 
REMARK  10 active torsions:
REMARK  status: ('A' for Active; 'I' for Inactive)
REMARK    1  A    between atoms: C_1  and  C_2
REMARK    2  A    between atoms: C_2  and  C_3
REMARK    3  A    between atoms: C_3  and  C_4
REMARK    4  A    between atoms: C_4  and  N_5
REMARK    5  A    between atoms: C_8  and  C_9
REMARK    6  A    between atoms: C_9  and  C_10
REMARK    7  A    between atoms: C_10  and  C_11
REMARK    8  A    between atoms: C_10  and  C_12
REMARK    9  A    between atoms: N_19  and  C_20
REMARK   10  A    between atoms: C_20  and  C_21
REMARK                            x       y       z     vdW  Elec       q    Type
REMARK                         _______ _______ _______ _____ _____    ______ ____
ROOT
ATOM      1  N   UNL     1      -0.912  11.848  19.913  0.00  0.00    +0.000 N 
ATOM      2  C   UNL     1      -0.614  13.195  20.207  0.00  0.00    +0.000 C 
ATOM      3  O   UNL     1      -0.243  14.044  19.402  0.00  0.00    +0.000 OA
ATOM      4  C   UNL     1      -1.130  13.616  21.589  0.00  0.00    +0.000 C 
ATOM      5  N   UNL     1      -0.776  12.650  22.609  0.00  0.00    +0.000 N 
ATOM      6  C   UNL     1      -0.968  11.316  22.349  0.00  0.00    +0.000 C 
ATOM      7  O   UNL     1      -1.321  10.587  23.270  0.00  0.00    +0.000 OA
ATOM      8  C   UNL     1      -0.467  10.834  20.942  0.00  0.00    +0.000 C 
ATOM      9  C   UNL     1       1.084  10.858  20.956  0.00  0.00    +0.000 C 
ATOM     10  C   UNL     1       1.697   9.742  21.801  0.00  0.00    +0.000 C 
ATOM     11  N   UNL     1       1.214   8.410  21.434  0.00  0.00    +0.000 NA
ATOM     12  C   UNL     1      -0.246   8.356  21.578  0.00  0.00    +0.000 C 
ATOM     13  C   UNL     1      -0.990   9.394  20.724  0.00  0.00    +0.000 C 
ATOM     14  H   UNL     1      -1.032  12.891  23.561  0.00  0.00    +0.000 HD
ENDROOT
BRANCH   1  15
ATOM     15  C   UNL     1      -1.418  11.467  18.575  0.00  0.00    +0.000 C 
BRANCH  15  16
ATOM     16  C   UNL     1      -2.936  11.513  18.405  0.00  0.00    +0.000 C 
BRANCH  16  18
ATOM     17  C   UNL     1      -2.499   9.859  16.610  0.00  0.00    +0.000 C 
ATOM     18  C   UNL     1      -3.525  10.338  17.631  0.00  0.00    +0.000 C 
ENDBRANCH  16  18
ENDBRANCH  15  16
ENDBRANCH   1  15
BRANCH   4  19
ATOM     19  C   UNL     1      -2.658  13.778  21.458  0.00  0.00    +0.000 C 
BRANCH  19  20
ATOM     20  C   UNL     1      -3.415  13.969  22.781  0.00  0.00    +0.000 C 
ATOM     21  C   UNL     1      -4.041  15.357  22.895  0.00  0.00    +0.000 C 
ATOM     22  C   UNL     1      -4.495  12.892  22.902  0.00  0.00    +0.000 C 
ENDBRANCH  19  20
ENDBRANCH   4  19
BRANCH  11  23
ATOM     23  C   UNL     1       1.726   7.992  20.116  0.00  0.00    +0.000 C 
BRANCH  23  24
ATOM     24  C   UNL     1       2.082   6.526  20.042  0.00  0.00    +0.000 A 
ATOM     25  C   UNL     1       1.448   5.590  20.872  0.00  0.00    +0.000 A 
ATOM     26  C   UNL     1       1.711   4.227  20.727  0.00  0.00    +0.000 A 
ATOM     27  C   UNL     1       2.599   3.790  19.743  0.00  0.00    +0.000 A 
ATOM     28  C   UNL     1       3.225   4.721  18.908  0.00  0.00    +0.000 A 
ATOM     29  C   UNL     1       2.998   6.082  19.078  0.00  0.00    +0.000 A 
ATOM     30  O   UNL     1       4.054   4.366  17.873  0.00  0.00    +0.000 OA
ATOM     31  C   UNL     1       3.830   3.001  17.507  0.00  0.00    +0.000 C 
ATOM     32  C   UNL     1       3.861   2.119  18.745  0.00  0.00    +0.000 C 
ATOM     33  O   UNL     1       2.782   2.438  19.630  0.00  0.00    +0.000 OA
ENDBRANCH  23  24
ENDBRANCH  11  23
TORSDOF 7
ENDMDL
MODEL 5
REMARK VINA RESULT:      -6.5      2.852      4.313
REMARK  Name = 
REMARK  10 active torsions:
REMARK  status: ('A' for Active; 'I' for Inactive)
REMARK    1  A    between atoms: C_1  and  C_2
REMARK    2  A    between atoms: C_2  and  C_3
REMARK    3  A    between atoms: C_3  and  C_4
REMARK    4  A    between atoms: C_4  and  N_5
REMARK    5  A    between atoms: C_8  and  C_9
REMARK    6  A    between atoms: C_9  and  C_10
REMARK    7  A    between atoms: C_10  and  C_11
REMARK    8  A    between atoms: C_10  and  C_12
REMARK    9  A    between atoms: N_19  and  C_20
REMARK   10  A    between atoms: C_20  and  C_21
REMARK                            x       y       z     vdW  Elec       q    Type
REMARK                         _______ _______ _______ _____ _____    ______ ____
ROOT
ATOM      1  N   UNL     1      -1.618  12.159  20.261  0.00  0.00    +0.000 N 
ATOM      2  C   UNL     1      -1.413  13.516  20.591  0.00  0.00    +0.000 C 
ATOM      3  O   UNL     1      -1.408  14.456  19.802  0.00  0.00    +0.000 OA
ATOM      4  C   UNL     1      -1.538  13.772  22.098  0.00  0.00    +0.000 C 
ATOM      5  N   UNL     1      -0.777  12.809  22.869  0.00  0.00    +0.000 N 
ATOM      6  C   UNL     1      -0.874  11.480  22.543  0.00  0.00    +0.000 C 
ATOM      7  O   UNL     1      -0.841  10.653  23.447  0.00  0.00    +0.000 OA
ATOM      8  C   UNL     1      -0.764  11.162  21.009  0.00  0.00    +0.000 C 
ATOM      9  C   UNL     1       0.705  11.413  20.577  0.00  0.00    +0.000 C 
ATOM     10  C   UNL     1       1.676  10.352  21.091  0.00  0.00    +0.000 C 
ATOM     11  N   UNL     1       1.273   8.987  20.747  0.00  0.00    +0.000 NA
ATOM     12  C   UNL     1      -0.059   8.710  21.301  0.00  0.00    +0.000 C 
ATOM     13  C   UNL     1      -1.146   9.677  20.808  0.00  0.00    +0.000 C 
ATOM     14  H   UNL     1      -0.763  12.953  23.873  0.00  0.00    +0.000 HD
ENDROOT
BRANCH   1  15
ATOM     15  C   UNL     1      -2.452  11.789  19.095  0.00  0.00    +0.000 C 
BRANCH  15  16
ATOM     16  C   UNL     1      -1.721  11.714  17.756  0.00  0.00    +0.000 C 
BRANCH  16  18
ATOM     17  C   UNL     1      -3.323   9.845  17.458  0.00  0.00    +0.000 C 
ATOM     18  C   UNL     1      -2.358  10.778  16.735  0.00  0.00    +0.000 C 
ENDBRANCH  16  18
ENDBRANCH  15  16
ENDBRANCH   1  15
BRANCH   4  19
ATOM     19  C   UNL     1      -3.042  13.715  22.432  0.00  0.00    +0.000 C 
BRANCH  19  20
ATOM     20  C   UNL     1      -3.392  13.872  23.919  0.00  0.00    +0.000 C 
ATOM     21  C   UNL     1      -4.331  15.049  24.173  0.00  0.00    +0.000 C 
ATOM     22  C   UNL     1      -4.026  12.574  24.425  0.00  0.00    +0.000 C 
ENDBRANCH  19  20
ENDBRANCH   4  19
BRANCH  11  23
ATOM     23  C   UNL     1       1.412   8.729  19.302  0.00  0.00    +0.000 C 
BRANCH  23  24
ATOM     24  C   UNL     1       2.382   7.618  18.977  0.00  0.00    +0.000 A 
ATOM     25  C   UNL     1       2.353   6.407  19.684  0.00  0.00    +0.000 A 
ATOM     26  C   UNL     1       3.186   5.352  19.311  0.00  0.00    +0.000 A 
ATOM     27  C   UNL     1       4.043   5.494  18.219  0.00  0.00    +0.000 A 
ATOM     28  C   UNL     1       4.067   6.697  17.506  0.00  0.00    +0.000 A 
ATOM     29  C   UNL     1       3.270   7.765  17.902  0.00  0.00    +0.000 A 
ATOM     30  O   UNL     1       4.829   6.889  16.381  0.00  0.00    +0.000 OA
ATOM     31  C   UNL     1       5.205   5.628  15.817  0.00  0.00    +0.000 C 
ATOM     32  C   UNL     1       5.789   4.731  16.897  0.00  0.00    +0.000 C 
ATOM     33  O   UNL     1       4.804   4.407  17.884  0.00  0.00    +0.000 OA
ENDBRANCH  23  24
ENDBRANCH  11  23
TORSDOF 7
ENDMDL
MODEL 6
REMARK VINA RESULT:      -6.4      5.615     10.362
REMARK  Name = 
REMARK  10 active torsions:
REMARK  status: ('A' for Active; 'I' for Inactive)
REMARK    1  A    between atoms: C_1  and  C_2
REMARK    2  A    between atoms: C_2  and  C_3
REMARK    3  A    between atoms: C_3  and  C_4
REMARK    4  A    between atoms: C_4  and  N_5
REMARK    5  A    between atoms: C_8  and  C_9
REMARK    6  A    between atoms: C_9  and  C_10
REMARK    7  A    between atoms: C_10  and  C_11
REMARK    8  A    between atoms: C_10  and  C_12
REMARK    9  A    between atoms: N_19  and  C_20
REMARK   10  A    between atoms: C_20  and  C_21
REMARK                            x       y       z     vdW  Elec       q    Type
REMARK                         _______ _______ _______ _____ _____    ______ ____
ROOT
ATOM      1  N   UNL     1       4.186   5.870  18.167  0.00  0.00    +0.000 N 
ATOM      2  C   UNL     1       3.857   5.012  19.239  0.00  0.00    +0.000 C 
ATOM      3  O   UNL     1       3.032   5.241  20.118  0.00  0.00    +0.000 OA
ATOM      4  C   UNL     1       4.379   3.586  19.023  0.00  0.00    +0.000 C 
ATOM      5  N   UNL     1       5.768   3.582  18.610  0.00  0.00    +0.000 N 
ATOM      6  C   UNL     1       6.166   4.452  17.626  0.00  0.00    +0.000 C 
ATOM      7  O   UNL     1       7.021   4.081  16.829  0.00  0.00    +0.000 OA
ATOM      8  C   UNL     1       5.649   5.925  17.793  0.00  0.00    +0.000 C 
ATOM      9  C   UNL     1       6.398   6.558  18.994  0.00  0.00    +0.000 C 
ATOM     10  C   UNL     1       7.863   6.872  18.695  0.00  0.00    +0.000 C 
ATOM     11  N   UNL     1       8.043   7.693  17.497  0.00  0.00    +0.000 NA
ATOM     12  C   UNL     1       7.466   7.005  16.335  0.00  0.00    +0.000 C 
ATOM     13  C   UNL     1       5.971   6.687  16.486  0.00  0.00    +0.000 C 
ATOM     14  H   UNL     1       6.200   2.669  18.506  0.00  0.00    +0.000 HD
ENDROOT
BRANCH   1  15
ATOM     15  C   UNL     1       3.180   6.809  17.623  0.00  0.00    +0.000 C 
BRANCH  15  16
ATOM     16  C   UNL     1       2.601   7.810  18.622  0.00  0.00    +0.000 C 
BRANCH  16  18
ATOM     17  C   UNL     1       1.090   9.724  19.070  0.00  0.00    +0.000 C 
ATOM     18  C   UNL     1       1.882   8.997  17.990  0.00  0.00    +0.000 C 
ENDBRANCH  16  18
ENDBRANCH  15  16
ENDBRANCH   1  15
BRANCH   4  19
ATOM     19  C   UNL     1       3.464   2.937  17.965  0.00  0.00    +0.000 C 
BRANCH  19  20
ATOM     20  C   UNL     1       2.213   2.237  18.518  0.00  0.00    +0.000 C 
ATOM     21  C   UNL     1       2.351   1.887  19.998  0.00  0.00    +0.000 C 
ATOM     22  C   UNL     1       0.996   3.139  18.301  0.00  0.00    +0.000 C 
ENDBRANCH  19  20
ENDBRANCH   4  19
BRANCH  11  23
ATOM     23  C   UNL     1       7.563   9.071  17.707  0.00  0.00    +0.000 C 
BRANCH  23  24
ATOM     24  C   UNL     1       8.603   9.990  18.304  0.00  0.00    +0.000 A 
ATOM     25  C   UNL     1       9.055   9.807  19.619  0.00  0.00    +0.000 A 
ATOM     26  C   UNL     1      10.086  10.598  20.126  0.00  0.00    +0.000 A 
ATOM     27  C   UNL     1      10.683  11.567  19.319  0.00  0.00    +0.000 A 
ATOM     28  C   UNL     1      10.240  11.744  18.004  0.00  0.00    +0.000 A 
ATOM     29  C   UNL     1       9.184  10.988  17.510  0.00  0.00    +0.000 A 
ATOM     30  O   UNL     1      10.822  12.626  17.127  0.00  0.00    +0.000 OA
ATOM     31  C   UNL     1      12.139  12.968  17.571  0.00  0.00    +0.000 C 
ATOM     32  C   UNL     1      12.103  13.379  19.035  0.00  0.00    +0.000 C 
ATOM     33  O   UNL     1      11.714  12.281  19.868  0.00  0.00    +0.000 OA
ENDBRANCH  23  24
ENDBRANCH  11  23
TORSDOF 7
ENDMDL
MODEL 7
REMARK VINA RESULT:      -6.4      2.852      4.433
REMARK  Name = 
REMARK  10 active torsions:
REMARK  status: ('A' for Active; 'I' for Inactive)
REMARK    1  A    between atoms: C_1  and  C_2
REMARK    2  A    between atoms: C_2  and  C_3
REMARK    3  A    between atoms: C_3  and  C_4
REMARK    4  A    between atoms: C_4  and  N_5
REMARK    5  A    between atoms: C_8  and  C_9
REMARK    6  A    between atoms: C_9  and  C_10
REMARK    7  A    between atoms: C_10  and  C_11
REMARK    8  A    between atoms: C_10  and  C_12
REMARK    9  A    between atoms: N_19  and  C_20
REMARK   10  A    between atoms: C_20  and  C_21
REMARK                            x       y       z     vdW  Elec       q    Type
REMARK                         _______ _______ _______ _____ _____    ______ ____
ROOT
ATOM      1  N   UNL     1      -1.657  12.099  20.377  0.00  0.00    +0.000 N 
ATOM      2  C   UNL     1      -1.516  13.440  20.794  0.00  0.00    +0.000 C 
ATOM      3  O   UNL     1      -1.569  14.429  20.069  0.00  0.00    +0.000 OA
ATOM      4  C   UNL     1      -1.634  13.591  22.315  0.00  0.00    +0.000 C 
ATOM      5  N   UNL     1      -0.816  12.620  23.014  0.00  0.00    +0.000 N 
ATOM      6  C   UNL     1      -0.851  11.311  22.602  0.00  0.00    +0.000 C 
ATOM      7  O   UNL     1      -0.765  10.430  23.451  0.00  0.00    +0.000 OA
ATOM      8  C   UNL     1      -0.745  11.100  21.051  0.00  0.00    +0.000 C 
ATOM      9  C   UNL     1       0.704  11.453  20.621  0.00  0.00    +0.000 C 
ATOM     10  C   UNL     1       1.733  10.411  21.055  0.00  0.00    +0.000 C 
ATOM     11  N   UNL     1       1.394   9.053  20.626  0.00  0.00    +0.000 NA
ATOM     12  C   UNL     1       0.086   8.673  21.174  0.00  0.00    +0.000 C 
ATOM     13  C   UNL     1      -1.055   9.614  20.755  0.00  0.00    +0.000 C 
ATOM     14  H   UNL     1      -0.797  12.699  24.026  0.00  0.00    +0.000 HD
ENDROOT
BRANCH   1  15
ATOM     15  C   UNL     1      -2.487  11.764  19.198  0.00  0.00    +0.000 C 
BRANCH  15  16
ATOM     16  C   UNL     1      -1.742  11.690  17.866  0.00  0.00    +0.000 C 
BRANCH  16  18
ATOM     17  C   UNL     1      -3.139   9.909  16.853  0.00  0.00    +0.000 C 
ATOM     18  C   UNL     1      -1.715  10.305  17.228  0.00  0.00    +0.000 C 
ENDBRANCH  16  18
ENDBRANCH  15  16
ENDBRANCH   1  15
BRANCH   4  19
ATOM     19  C   UNL     1      -3.129  13.437  22.659  0.00  0.00    +0.000 C 
BRANCH  19  20
ATOM     20  C   UNL     1      -3.454  13.346  24.158  0.00  0.00    +0.000 C 
ATOM     21  C   UNL     1      -3.361  14.702  24.854  0.00  0.00    +0.000 C 
ATOM     22  C   UNL     1      -4.856  12.758  24.334  0.00  0.00    +0.000 C 
ENDBRANCH  19  20
ENDBRANCH   4  19
BRANCH  11  23
ATOM     23  C   UNL     1       1.528   8.897  19.166  0.00  0.00    +0.000 C 
BRANCH  23  24
ATOM     24  C   UNL     1       2.311   7.672  18.758  0.00  0.00    +0.000 A 
ATOM     25  C   UNL     1       3.273   7.740  17.739  0.00  0.00    +0.000 A 
ATOM     26  C   UNL     1       4.061   6.628  17.439  0.00  0.00    +0.000 A 
ATOM     27  C   UNL     1       3.903   5.445  18.162  0.00  0.00    +0.000 A 
ATOM     28  C   UNL     1       2.951   5.379  19.185  0.00  0.00    +0.000 A 
ATOM     29  C   UNL     1       2.135   6.470  19.458  0.00  0.00    +0.000 A 
ATOM     30  O   UNL     1       2.785   4.277  19.987  0.00  0.00    +0.000 OA
ATOM     31  C   UNL     1       3.952   3.449  19.937  0.00  0.00    +0.000 C 
ATOM     32  C   UNL     1       4.344   3.192  18.491  0.00  0.00    +0.000 C 
ATOM     33  O   UNL     1       4.734   4.407  17.841  0.00  0.00    +0.000 OA
ENDBRANCH  23  24
ENDBRANCH  11  23
TORSDOF 7
ENDMDL
MODEL 8
REMARK VINA RESULT:      -6.3      2.496      4.063
REMARK  Name = 
REMARK  10 active torsions:
REMARK  status: ('A' for Active; 'I' for Inactive)
REMARK    1  A    between atoms: C_1  and  C_2
REMARK    2  A    between atoms: C_2  and  C_3
REMARK    3  A    between atoms: C_3  and  C_4
REMARK    4  A    between atoms: C_4  and  N_5
REMARK    5  A    between atoms: C_8  and  C_9
REMARK    6  A    between atoms: C_9  and  C_10
REMARK    7  A    between atoms: C_10  and  C_11
REMARK    8  A    between atoms: C_10  and  C_12
REMARK    9  A    between atoms: N_19  and  C_20
REMARK   10  A    between atoms: C_20  and  C_21
REMARK                            x       y       z     vdW  Elec       q    Type
REMARK                         _______ _______ _______ _____ _____    ______ ____
ROOT
ATOM      1  N   UNL     1      -1.368  12.250  21.540  0.00  0.00    +0.000 N 
ATOM      2  C   UNL     1      -2.735  12.569  21.397  0.00  0.00    +0.000 C 
ATOM      3  O   UNL     1      -3.652  12.137  22.089  0.00  0.00    +0.000 OA
ATOM      4  C   UNL     1      -2.956  13.794  20.501  0.00  0.00    +0.000 C 
ATOM      5  N   UNL     1      -2.194  13.702  19.272  0.00  0.00    +0.000 N 
ATOM      6  C   UNL     1      -0.878  13.319  19.339  0.00  0.00    +0.000 C 
ATOM      7  O   UNL     1      -0.080  13.829  18.560  0.00  0.00    +0.000 OA
ATOM      8  C   UNL     1      -0.594  12.075  20.253  0.00  0.00    +0.000 C 
ATOM      9  C   UNL     1      -1.177  10.823  19.545  0.00  0.00    +0.000 C 
ATOM     10  C   UNL     1      -0.367  10.388  18.325  0.00  0.00    +0.000 C 
ATOM     11  N   UNL     1       1.054  10.190  18.617  0.00  0.00    +0.000 NA
ATOM     12  C   UNL     1       1.630  11.435  19.140  0.00  0.00    +0.000 C 
ATOM     13  C   UNL     1       0.939  11.948  20.413  0.00  0.00    +0.000 C 
ATOM     14  H   UNL     1      -2.336  14.451  18.601  0.00  0.00    +0.000 HD
ENDROOT
BRANCH   1  15
ATOM     15  C   UNL     1      -0.816  11.893  22.866  0.00  0.00    +0.000 C 
BRANCH  15  16
ATOM     16  C   UNL     1      -1.082  10.462  23.328  0.00  0.00    +0.000 C 
BRANCH  16  18
ATOM     17  C   UNL     1      -0.417   8.403  22.115  0.00  0.00    +0.000 C 
ATOM     18  C   UNL     1       0.064   9.488  23.073  0.00  0.00    +0.000 C 
ENDBRANCH  16  18
ENDBRANCH  15  16
ENDBRANCH   1  15
BRANCH   4  19
ATOM     19  C   UNL     1      -2.554  15.028  21.334  0.00  0.00    +0.000 C 
BRANCH  19  20
ATOM     20  C   UNL     1      -3.711  15.958  21.732  0.00  0.00    +0.000 C 
ATOM     21  C   UNL     1      -4.858  15.919  20.725  0.00  0.00    +0.000 C 
ATOM     22  C   UNL     1      -4.215  15.566  23.122  0.00  0.00    +0.000 C 
ENDBRANCH  19  20
ENDBRANCH   4  19
BRANCH  11  23
ATOM     23  C   UNL     1       1.273   9.000  19.460  0.00  0.00    +0.000 C 
BRANCH  23  24
ATOM     24  C   UNL     1       2.178   7.969  18.828  0.00  0.00    +0.000 A 
ATOM     25  C   UNL     1       2.913   8.270  17.672  0.00  0.00    +0.000 A 
ATOM     26  C   UNL     1       3.821   7.345  17.154  0.00  0.00    +0.000 A 
ATOM     27  C   UNL     1       4.011   6.120  17.795  0.00  0.00    +0.000 A 
ATOM     28  C   UNL     1       3.286   5.823  18.953  0.00  0.00    +0.000 A 
ATOM     29  C   UNL     1       2.349   6.723  19.447  0.00  0.00    +0.000 A 
ATOM     30  O   UNL     1       3.467   4.672  19.678  0.00  0.00    +0.000 OA
ATOM     31  C   UNL     1       4.735   4.086  19.367  0.00  0.00    +0.000 C 
ATOM     32  C   UNL     1       4.901   3.980  17.859  0.00  0.00    +0.000 C 
ATOM     33  O   UNL     1       4.944   5.277  17.254  0.00  0.00    +0.000 OA
ENDBRANCH  23  24
ENDBRANCH  11  23
TORSDOF 7
ENDMDL
MODEL 9
REMARK VINA RESULT:      -6.2      1.124      1.242
REMARK  Name = 
REMARK  10 active torsions:
REMARK  status: ('A' for Active; 'I' for Inactive)
REMARK    1  A    between atoms: C_1  and  C_2
REMARK    2  A    between atoms: C_2  and  C_3
REMARK    3  A    between atoms: C_3  and  C_4
REMARK    4  A    between atoms: C_4  and  N_5
REMARK    5  A    between atoms: C_8  and  C_9
REMARK    6  A    between atoms: C_9  and  C_10
REMARK    7  A    between atoms: C_10  and  C_11
REMARK    8  A    between atoms: C_10  and  C_12
REMARK    9  A    between atoms: N_19  and  C_20
REMARK   10  A    between atoms: C_20  and  C_21
REMARK                            x       y       z     vdW  Elec       q    Type
REMARK                         _______ _______ _______ _____ _____    ______ ____
ROOT
ATOM      1  N   UNL     1       1.322  13.278  20.306  0.00  0.00    +0.000 N 
ATOM      2  C   UNL     1       0.993  14.059  21.435  0.00  0.00    +0.000 C 
ATOM      3  O   UNL     1       1.791  14.608  22.188  0.00  0.00    +0.000 OA
ATOM      4  C   UNL     1      -0.487  14.461  21.451  0.00  0.00    +0.000 C 
ATOM      5  N   UNL     1      -1.352  13.329  21.189  0.00  0.00    +0.000 N 
ATOM      6  C   UNL     1      -1.038  12.486  20.152  0.00  0.00    +0.000 C 
ATOM      7  O   UNL     1      -1.954  11.995  19.501  0.00  0.00    +0.000 OA
ATOM      8  C   UNL     1       0.469  12.051  20.082  0.00  0.00    +0.000 C 
ATOM      9  C   UNL     1       0.741  11.090  21.269  0.00  0.00    +0.000 C 
ATOM     10  C   UNL     1       0.107   9.712  21.088  0.00  0.00    +0.000 C 
ATOM     11  N   UNL     1       0.472   9.071  19.823  0.00  0.00    +0.000 NA
ATOM     12  C   UNL     1       0.063   9.925  18.701  0.00  0.00    +0.000 C 
ATOM     13  C   UNL     1       0.688  11.328  18.732  0.00  0.00    +0.000 C 
ATOM     14  H   UNL     1      -2.349  13.507  21.243  0.00  0.00    +0.000 HD
ENDROOT
BRANCH   1  15
ATOM     15  C   UNL     1       2.566  13.542  19.549  0.00  0.00    +0.000 C 
BRANCH  15  16
ATOM     16  C   UNL     1       2.447  14.563  18.418  0.00  0.00    +0.000 C 
BRANCH  16  18
ATOM     17  C   UNL     1       2.944  16.811  17.498  0.00  0.00    +0.000 C 
ATOM     18  C   UNL     1       3.285  15.823  18.607  0.00  0.00    +0.000 C 
ENDBRANCH  16  18
ENDBRANCH  15  16
ENDBRANCH   1  15
BRANCH   4  19
ATOM     19  C   UNL     1      -0.654  15.569  20.392  0.00  0.00    +0.000 C 
BRANCH  19  20
ATOM     20  C   UNL     1      -0.685  17.004  20.939  0.00  0.00    +0.000 C 
ATOM     21  C   UNL     1      -0.977  17.046  22.438  0.00  0.00    +0.000 C 
ATOM     22  C   UNL     1       0.654  17.683  20.643  0.00  0.00    +0.000 C 
ENDBRANCH  19  20
ENDBRANCH   4  19
BRANCH  11  23
ATOM     23  C   UNL     1       1.889   8.663  19.812  0.00  0.00    +0.000 C 
BRANCH  23  24
ATOM     24  C   UNL     1       2.086   7.167  19.758  0.00  0.00    +0.000 A 
ATOM     25  C   UNL     1       1.565   6.336  20.760  0.00  0.00    +0.000 A 
ATOM     26  C   UNL     1       1.667   4.948  20.649  0.00  0.00    +0.000 A 
ATOM     27  C   UNL     1       2.278   4.381  19.530  0.00  0.00    +0.000 A 
ATOM     28  C   UNL     1       2.789   5.208  18.525  0.00  0.00    +0.000 A 
ATOM     29  C   UNL     1       2.728   6.591  18.652  0.00  0.00    +0.000 A 
ATOM     30  O   UNL     1       3.339   4.727  17.363  0.00  0.00    +0.000 OA
ATOM     31  C   UNL     1       2.919   3.377  17.139  0.00  0.00    +0.000 C 
ATOM     32  C   UNL     1       3.138   2.550  18.396  0.00  0.00    +0.000 C 
ATOM     33  O   UNL     1       2.309   3.015  19.468  0.00  0.00    +0.000 OA
ENDBRANCH  23  24
ENDBRANCH  11  23
TORSDOF 7
ENDMDL
