MODEL 1
REMARK VINA RESULT:      -8.4      0.000      0.000
REMARK  Name = 
REMARK  6 active torsions:
REMARK  status: ('A' for Active; 'I' for Inactive)
REMARK    1  A    between atoms: C_1  and  C_2
REMARK    2  A    between atoms: C_2  and  N_3
REMARK    3  A    between atoms: C_7  and  C_8
REMARK    4  A    between atoms: C_8  and  C_10
REMARK    5  A    between atoms: C_16  and  C_17
REMARK    6  A    between atoms: C_17  and  C_19
REMARK                            x       y       z     vdW  Elec       q    Type
REMARK                         _______ _______ _______ _____ _____    ______ ____
ROOT
ATOM      1  N   UNL     1       6.443   5.463  17.342  0.00  0.00    +0.000 N 
ATOM      2  C   UNL     1       6.460   5.055  16.024  0.00  0.00    +0.000 A 
ATOM      3  C   UNL     1       7.432   5.233  15.026  0.00  0.00    +0.000 A 
ATOM      4  C   UNL     1       7.204   4.663  13.772  0.00  0.00    +0.000 A 
ATOM      5  C   UNL     1       6.039   3.939  13.515  0.00  0.00    +0.000 A 
ATOM      6  C   UNL     1       5.054   3.805  14.510  0.00  0.00    +0.000 A 
ATOM      7  C   UNL     1       5.270   4.367  15.789  0.00  0.00    +0.000 A 
ATOM      8  C   UNL     1       4.509   4.401  17.005  0.00  0.00    +0.000 A 
ATOM      9  C   UNL     1       3.248   3.889  17.386  0.00  0.00    +0.000 A 
ATOM     10  C   UNL     1       2.785   4.080  18.700  0.00  0.00    +0.000 A 
ATOM     11  C   UNL     1       3.546   4.809  19.615  0.00  0.00    +0.000 A 
ATOM     12  C   UNL     1       4.791   5.331  19.255  0.00  0.00    +0.000 A 
ATOM     13  C   UNL     1       5.259   5.103  17.951  0.00  0.00    +0.000 A 
ENDROOT
BRANCH   1  15
ATOM     14  C   UNL     1       7.620   7.606  17.702  0.00  0.00    +0.000 C 
ATOM     15  C   UNL     1       7.556   6.122  18.011  0.00  0.00    +0.000 C 
ENDBRANCH   1  15
BRANCH   5  16
ATOM     16  C   UNL     1       5.809   3.290  12.193  0.00  0.00    +0.000 C 
ATOM     17  O   UNL     1       4.675   3.285  11.715  0.00  0.00    +0.000 OA
BRANCH  16  18
ATOM     18  C   UNL     1       6.967   2.601  11.508  0.00  0.00    +0.000 C 
ATOM     19 CL   UNL     1       6.474   0.993  10.954  0.00  0.00    +0.000 Cl
ENDBRANCH  16  18
ENDBRANCH   5  16
BRANCH  10  20
ATOM     20  C   UNL     1       1.468   3.486  19.078  0.00  0.00    +0.000 C 
ATOM     21  O   UNL     1       0.877   2.777  18.265  0.00  0.00    +0.000 OA
BRANCH  20  22
ATOM     22  C   UNL     1       0.875   3.787  20.437  0.00  0.00    +0.000 C 
ATOM     23 CL   UNL     1       1.514   2.661  21.650  0.00  0.00    +0.000 Cl
ENDBRANCH  20  22
ENDBRANCH  10  20
TORSDOF 5
ENDMDL
MODEL 2
REMARK VINA RESULT:      -8.1      0.282      6.694
REMARK  Name = 
REMARK  6 active torsions:
REMARK  status: ('A' for Active; 'I' for Inactive)
REMARK    1  A    between atoms: C_1  and  C_2
REMARK    2  A    between atoms: C_2  and  N_3
REMARK    3  A    between atoms: C_7  and  C_8
REMARK    4  A    between atoms: C_8  and  C_10
REMARK    5  A    between atoms: C_16  and  C_17
REMARK    6  A    between atoms: C_17  and  C_19
REMARK                            x       y       z     vdW  Elec       q    Type
REMARK                         _______ _______ _______ _____ _____    ______ ____
ROOT
ATOM      1  N   UNL     1       6.306   5.631  17.218  0.00  0.00    +0.000 N 
ATOM      2  C   UNL     1       5.177   5.167  17.863  0.00  0.00    +0.000 A 
ATOM      3  C   UNL     1       4.709   5.403  19.165  0.00  0.00    +0.000 A 
ATOM      4  C   UNL     1       3.490   4.834  19.542  0.00  0.00    +0.000 A 
ATOM      5  C   UNL     1       2.760   4.048  18.650  0.00  0.00    +0.000 A 
ATOM      6  C   UNL     1       3.261   3.785  17.363  0.00  0.00    +0.000 A 
ATOM      7  C   UNL     1       4.488   4.360  16.959  0.00  0.00    +0.000 A 
ATOM      8  C   UNL     1       5.258   4.318  15.748  0.00  0.00    +0.000 A 
ATOM      9  C   UNL     1       5.085   3.682  14.498  0.00  0.00    +0.000 A 
ATOM     10  C   UNL     1       6.039   3.868  13.482  0.00  0.00    +0.000 A 
ATOM     11  C   UNL     1       7.176   4.642  13.718  0.00  0.00    +0.000 A 
ATOM     12  C   UNL     1       7.370   5.271  14.950  0.00  0.00    +0.000 A 
ATOM     13  C   UNL     1       6.393   5.109  15.945  0.00  0.00    +0.000 A 
ENDROOT
BRANCH   1  15
ATOM     14  C   UNL     1       7.984   6.041  18.986  0.00  0.00    +0.000 C 
ATOM     15  C   UNL     1       7.237   6.595  17.787  0.00  0.00    +0.000 C 
ENDBRANCH   1  15
BRANCH   5  16
ATOM     16  C   UNL     1       1.438   3.474  19.030  0.00  0.00    +0.000 C 
ATOM     17  O   UNL     1       0.845   2.749  18.232  0.00  0.00    +0.000 OA
BRANCH  16  18
ATOM     18  C   UNL     1       0.835   3.853  20.363  0.00  0.00    +0.000 C 
ATOM     19 CL   UNL     1       1.332   2.693  21.605  0.00  0.00    +0.000 Cl
ENDBRANCH  16  18
ENDBRANCH   5  16
BRANCH  10  20
ATOM     20  C   UNL     1       5.799   3.216  12.160  0.00  0.00    +0.000 C 
ATOM     21  O   UNL     1       4.672   3.257  11.670  0.00  0.00    +0.000 OA
BRANCH  20  22
ATOM     22  C   UNL     1       6.934   2.496  11.465  0.00  0.00    +0.000 C 
ATOM     23 CL   UNL     1       6.425   0.866  10.983  0.00  0.00    +0.000 Cl
ENDBRANCH  20  22
ENDBRANCH  10  20
TORSDOF 5
ENDMDL
MODEL 3
REMARK VINA RESULT:      -8.0      1.013      6.611
REMARK  Name = 
REMARK  6 active torsions:
REMARK  status: ('A' for Active; 'I' for Inactive)
REMARK    1  A    between atoms: C_1  and  C_2
REMARK    2  A    between atoms: C_2  and  N_3
REMARK    3  A    between atoms: C_7  and  C_8
REMARK    4  A    between atoms: C_8  and  C_10
REMARK    5  A    between atoms: C_16  and  C_17
REMARK    6  A    between atoms: C_17  and  C_19
REMARK                            x       y       z     vdW  Elec       q    Type
REMARK                         _______ _______ _______ _____ _____    ______ ____
ROOT
ATOM      1  N   UNL     1       6.509   5.578  17.431  0.00  0.00    +0.000 N 
ATOM      2  C   UNL     1       5.337   5.150  18.022  0.00  0.00    +0.000 A 
ATOM      3  C   UNL     1       4.843   5.352  19.321  0.00  0.00    +0.000 A 
ATOM      4  C   UNL     1       3.584   4.837  19.637  0.00  0.00    +0.000 A 
ATOM      5  C   UNL     1       2.838   4.136  18.688  0.00  0.00    +0.000 A 
ATOM      6  C   UNL     1       3.363   3.904  17.405  0.00  0.00    +0.000 A 
ATOM      7  C   UNL     1       4.631   4.425  17.062  0.00  0.00    +0.000 A 
ATOM      8  C   UNL     1       5.433   4.395  15.873  0.00  0.00    +0.000 A 
ATOM      9  C   UNL     1       5.263   3.828  14.589  0.00  0.00    +0.000 A 
ATOM     10  C   UNL     1       6.256   4.005  13.610  0.00  0.00    +0.000 A 
ATOM     11  C   UNL     1       7.427   4.701  13.913  0.00  0.00    +0.000 A 
ATOM     12  C   UNL     1       7.618   5.262  15.179  0.00  0.00    +0.000 A 
ATOM     13  C   UNL     1       6.605   5.110  16.138  0.00  0.00    +0.000 A 
ENDROOT
BRANCH   1  15
ATOM     14  C   UNL     1       7.437   7.867  17.504  0.00  0.00    +0.000 C 
ATOM     15  C   UNL     1       7.474   6.460  18.070  0.00  0.00    +0.000 C 
ENDBRANCH   1  15
BRANCH   5  16
ATOM     16  C   UNL     1       1.475   3.622  19.005  0.00  0.00    +0.000 C 
ATOM     17  O   UNL     1       0.854   2.998  18.145  0.00  0.00    +0.000 OA
BRANCH  16  18
ATOM     18  C   UNL     1       0.871   3.939  20.354  0.00  0.00    +0.000 C 
ATOM     19 CL   UNL     1       1.337   2.703  21.532  0.00  0.00    +0.000 Cl
ENDBRANCH  16  18
ENDBRANCH   5  16
BRANCH  10  20
ATOM     20  C   UNL     1       6.020   3.428  12.253  0.00  0.00    +0.000 C 
ATOM     21  O   UNL     1       6.947   3.408  11.444  0.00  0.00    +0.000 OA
BRANCH  20  22
ATOM     22  C   UNL     1       4.647   2.908  11.890  0.00  0.00    +0.000 C 
ATOM     23 CL   UNL     1       3.912   3.932  10.642  0.00  0.00    +0.000 Cl
ENDBRANCH  20  22
ENDBRANCH  10  20
TORSDOF 5
ENDMDL
MODEL 4
REMARK VINA RESULT:      -7.9      1.041      1.192
REMARK  Name = 
REMARK  6 active torsions:
REMARK  status: ('A' for Active; 'I' for Inactive)
REMARK    1  A    between atoms: C_1  and  C_2
REMARK    2  A    between atoms: C_2  and  N_3
REMARK    3  A    between atoms: C_7  and  C_8
REMARK    4  A    between atoms: C_8  and  C_10
REMARK    5  A    between atoms: C_16  and  C_17
REMARK    6  A    between atoms: C_17  and  C_19
REMARK                            x       y       z     vdW  Elec       q    Type
REMARK                         _______ _______ _______ _____ _____    ______ ____
ROOT
ATOM      1  N   UNL     1       6.289   5.729  17.383  0.00  0.00    +0.000 N 
ATOM      2  C   UNL     1       6.394   5.274  16.084  0.00  0.00    +0.000 A 
ATOM      3  C   UNL     1       7.388   5.495  15.117  0.00  0.00    +0.000 A 
ATOM      4  C   UNL     1       7.261   4.860  13.880  0.00  0.00    +0.000 A 
ATOM      5  C   UNL     1       6.171   4.031  13.610  0.00  0.00    +0.000 A 
ATOM      6  C   UNL     1       5.161   3.852  14.571  0.00  0.00    +0.000 A 
ATOM      7  C   UNL     1       5.277   4.479  15.833  0.00  0.00    +0.000 A 
ATOM      8  C   UNL     1       4.466   4.494  17.017  0.00  0.00    +0.000 A 
ATOM      9  C   UNL     1       3.237   3.892  17.371  0.00  0.00    +0.000 A 
ATOM     10  C   UNL     1       2.706   4.093  18.657  0.00  0.00    +0.000 A 
ATOM     11  C   UNL     1       3.365   4.918  19.569  0.00  0.00    +0.000 A 
ATOM     12  C   UNL     1       4.576   5.530  19.235  0.00  0.00    +0.000 A 
ATOM     13  C   UNL     1       5.115   5.293  17.961  0.00  0.00    +0.000 A 
ENDROOT
BRANCH   1  15
ATOM     14  C   UNL     1       8.014   5.710  19.153  0.00  0.00    +0.000 C 
ATOM     15  C   UNL     1       7.314   6.505  18.065  0.00  0.00    +0.000 C 
ENDBRANCH   1  15
BRANCH   5  16
ATOM     16  C   UNL     1       6.051   3.315  12.308  0.00  0.00    +0.000 C 
ATOM     17  O   UNL     1       7.044   3.199  11.591  0.00  0.00    +0.000 OA
BRANCH  16  18
ATOM     18  C   UNL     1       4.694   2.806  11.879  0.00  0.00    +0.000 C 
ATOM     19 CL   UNL     1       3.967   3.925  10.715  0.00  0.00    +0.000 Cl
ENDBRANCH  16  18
ENDBRANCH   5  16
BRANCH  10  20
ATOM     20  C   UNL     1       1.429   3.404  19.010  0.00  0.00    +0.000 C 
ATOM     21  O   UNL     1       0.910   2.651  18.187  0.00  0.00    +0.000 OA
BRANCH  20  22
ATOM     22  C   UNL     1       0.786   3.664  20.354  0.00  0.00    +0.000 C 
ATOM     23 CL   UNL     1       1.511   2.623  21.594  0.00  0.00    +0.000 Cl
ENDBRANCH  20  22
ENDBRANCH  10  20
TORSDOF 5
ENDMDL
MODEL 5
REMARK VINA RESULT:      -7.8      4.329      5.489
REMARK  Name = 
REMARK  6 active torsions:
REMARK  status: ('A' for Active; 'I' for Inactive)
REMARK    1  A    between atoms: C_1  and  C_2
REMARK    2  A    between atoms: C_2  and  N_3
REMARK    3  A    between atoms: C_7  and  C_8
REMARK    4  A    between atoms: C_8  and  C_10
REMARK    5  A    between atoms: C_16  and  C_17
REMARK    6  A    between atoms: C_17  and  C_19
REMARK                            x       y       z     vdW  Elec       q    Type
REMARK                         _______ _______ _______ _____ _____    ______ ____
ROOT
ATOM      1  N   UNL     1       2.634   5.615  20.057  0.00  0.00    +0.000 N 
ATOM      2  C   UNL     1       3.477   5.336  19.001  0.00  0.00    +0.000 A 
ATOM      3  C   UNL     1       4.245   4.193  18.724  0.00  0.00    +0.000 A 
ATOM      4  C   UNL     1       4.981   4.163  17.538  0.00  0.00    +0.000 A 
ATOM      5  C   UNL     1       4.958   5.241  16.653  0.00  0.00    +0.000 A 
ATOM      6  C   UNL     1       4.219   6.397  16.963  0.00  0.00    +0.000 A 
ATOM      7  C   UNL     1       3.460   6.443  18.154  0.00  0.00    +0.000 A 
ATOM      8  C   UNL     1       2.602   7.426  18.752  0.00  0.00    +0.000 A 
ATOM      9  C   UNL     1       2.192   8.727  18.379  0.00  0.00    +0.000 A 
ATOM     10  C   UNL     1       1.298   9.438  19.198  0.00  0.00    +0.000 A 
ATOM     11  C   UNL     1       0.847   8.884  20.396  0.00  0.00    +0.000 A 
ATOM     12  C   UNL     1       1.248   7.604  20.787  0.00  0.00    +0.000 A 
ATOM     13  C   UNL     1       2.112   6.887  19.945  0.00  0.00    +0.000 A 
ENDROOT
BRANCH   1  15
ATOM     14  C   UNL     1       1.157   3.742  20.706  0.00  0.00    +0.000 C 
ATOM     15  C   UNL     1       2.292   4.667  21.107  0.00  0.00    +0.000 C 
ENDBRANCH   1  15
BRANCH   5  16
ATOM     16  C   UNL     1       5.706   5.198  15.364  0.00  0.00    +0.000 C 
ATOM     17  O   UNL     1       5.805   6.224  14.692  0.00  0.00    +0.000 OA
BRANCH  16  18
ATOM     18  C   UNL     1       6.266   3.877  14.890  0.00  0.00    +0.000 C 
ATOM     19 CL   UNL     1       5.916   3.652  13.169  0.00  0.00    +0.000 Cl
ENDBRANCH  16  18
ENDBRANCH   5  16
BRANCH  10  20
ATOM     20  C   UNL     1       0.853  10.791  18.748  0.00  0.00    +0.000 C 
ATOM     21  O   UNL     1       1.700  11.655  18.528  0.00  0.00    +0.000 OA
BRANCH  20  22
ATOM     22  C   UNL     1      -0.624  11.081  18.600  0.00  0.00    +0.000 C 
ATOM     23 CL   UNL     1      -1.350   9.982  17.411  0.00  0.00    +0.000 Cl
ENDBRANCH  20  22
ENDBRANCH  10  20
TORSDOF 5
ENDMDL
MODEL 6
REMARK VINA RESULT:      -7.6      3.976      4.941
REMARK  Name = 
REMARK  6 active torsions:
REMARK  status: ('A' for Active; 'I' for Inactive)
REMARK    1  A    between atoms: C_1  and  C_2
REMARK    2  A    between atoms: C_2  and  N_3
REMARK    3  A    between atoms: C_7  and  C_8
REMARK    4  A    between atoms: C_8  and  C_10
REMARK    5  A    between atoms: C_16  and  C_17
REMARK    6  A    between atoms: C_17  and  C_19
REMARK                            x       y       z     vdW  Elec       q    Type
REMARK                         _______ _______ _______ _____ _____    ______ ____
ROOT
ATOM      1  N   UNL     1       3.170   5.057  19.320  0.00  0.00    +0.000 N 
ATOM      2  C   UNL     1       4.032   4.804  18.272  0.00  0.00    +0.000 A 
ATOM      3  C   UNL     1       4.771   3.653  17.957  0.00  0.00    +0.000 A 
ATOM      4  C   UNL     1       5.537   3.659  16.789  0.00  0.00    +0.000 A 
ATOM      5  C   UNL     1       5.571   4.781  15.960  0.00  0.00    +0.000 A 
ATOM      6  C   UNL     1       4.860   5.942  16.310  0.00  0.00    +0.000 A 
ATOM      7  C   UNL     1       4.071   5.953  17.483  0.00  0.00    +0.000 A 
ATOM      8  C   UNL     1       3.228   6.931  18.109  0.00  0.00    +0.000 A 
ATOM      9  C   UNL     1       2.868   8.261  17.793  0.00  0.00    +0.000 A 
ATOM     10  C   UNL     1       1.975   8.959  18.624  0.00  0.00    +0.000 A 
ATOM     11  C   UNL     1       1.476   8.360  19.781  0.00  0.00    +0.000 A 
ATOM     12  C   UNL     1       1.827   7.049  20.116  0.00  0.00    +0.000 A 
ATOM     13  C   UNL     1       2.691   6.349  19.260  0.00  0.00    +0.000 A 
ENDROOT
BRANCH   1  15
ATOM     14  C   UNL     1       1.423   3.447  20.000  0.00  0.00    +0.000 C 
ATOM     15  C   UNL     1       2.772   4.068  20.311  0.00  0.00    +0.000 C 
ENDBRANCH   1  15
BRANCH   5  16
ATOM     16  C   UNL     1       6.351   4.779  14.689  0.00  0.00    +0.000 C 
ATOM     17  O   UNL     1       7.354   5.485  14.598  0.00  0.00    +0.000 OA
BRANCH  16  18
ATOM     18  C   UNL     1       5.847   3.955  13.527  0.00  0.00    +0.000 C 
ATOM     19 CL   UNL     1       6.983   4.059  12.172  0.00  0.00    +0.000 Cl
ENDBRANCH  16  18
ENDBRANCH   5  16
BRANCH  10  20
ATOM     20  C   UNL     1       1.584  10.347  18.233  0.00  0.00    +0.000 C 
ATOM     21  O   UNL     1       2.364  11.020  17.562  0.00  0.00    +0.000 OA
BRANCH  20  22
ATOM     22  C   UNL     1       0.254  10.905  18.690  0.00  0.00    +0.000 C 
ATOM     23 CL   UNL     1      -1.074  10.137  17.799  0.00  0.00    +0.000 Cl
ENDBRANCH  20  22
ENDBRANCH  10  20
TORSDOF 5
ENDMDL
MODEL 7
REMARK VINA RESULT:      -7.5      4.279      7.797
REMARK  Name = 
REMARK  6 active torsions:
REMARK  status: ('A' for Active; 'I' for Inactive)
REMARK    1  A    between atoms: C_1  and  C_2
REMARK    2  A    between atoms: C_2  and  N_3
REMARK    3  A    between atoms: C_7  and  C_8
REMARK    4  A    between atoms: C_8  and  C_10
REMARK    5  A    between atoms: C_16  and  C_17
REMARK    6  A    between atoms: C_17  and  C_19
REMARK                            x       y       z     vdW  Elec       q    Type
REMARK                         _______ _______ _______ _____ _____    ______ ____
ROOT
ATOM      1  N   UNL     1       2.608   5.461  20.086  0.00  0.00    +0.000 N 
ATOM      2  C   UNL     1       2.058   6.720  19.958  0.00  0.00    +0.000 A 
ATOM      3  C   UNL     1       1.177   7.421  20.797  0.00  0.00    +0.000 A 
ATOM      4  C   UNL     1       0.815   8.721  20.438  0.00  0.00    +0.000 A 
ATOM      5  C   UNL     1       1.313   9.307  19.274  0.00  0.00    +0.000 A 
ATOM      6  C   UNL     1       2.160   8.579  18.420  0.00  0.00    +0.000 A 
ATOM      7  C   UNL     1       2.545   7.265  18.770  0.00  0.00    +0.000 A 
ATOM      8  C   UNL     1       3.387   6.276  18.159  0.00  0.00    +0.000 A 
ATOM      9  C   UNL     1       4.149   6.237  16.969  0.00  0.00    +0.000 A 
ATOM     10  C   UNL     1       4.905   5.093  16.662  0.00  0.00    +0.000 A 
ATOM     11  C   UNL     1       4.873   3.980  17.504  0.00  0.00    +0.000 A 
ATOM     12  C   UNL     1       4.118   3.995  18.679  0.00  0.00    +0.000 A 
ATOM     13  C   UNL     1       3.396   5.157  18.996  0.00  0.00    +0.000 A 
ENDROOT
BRANCH   1  15
ATOM     14  C   UNL     1       1.345   3.565  21.045  0.00  0.00    +0.000 C 
ATOM     15  C   UNL     1       2.433   4.604  21.250  0.00  0.00    +0.000 C 
ENDBRANCH   1  15
BRANCH   5  16
ATOM     16  C   UNL     1       0.967  10.710  18.907  0.00  0.00    +0.000 C 
ATOM     17  O   UNL     1       1.868  11.493  18.611  0.00  0.00    +0.000 OA
BRANCH  16  18
ATOM     18  C   UNL     1      -0.479  11.145  18.972  0.00  0.00    +0.000 C 
ATOM     19 CL   UNL     1      -1.458  10.165  17.869  0.00  0.00    +0.000 Cl
ENDBRANCH  16  18
ENDBRANCH   5  16
BRANCH  10  20
ATOM     20  C   UNL     1       5.733   5.106  15.419  0.00  0.00    +0.000 C 
ATOM     21  O   UNL     1       5.927   6.176  14.843  0.00  0.00    +0.000 OA
BRANCH  20  22
ATOM     22  C   UNL     1       6.290   3.808  14.878  0.00  0.00    +0.000 C 
ATOM     23 CL   UNL     1       5.951   3.669  13.142  0.00  0.00    +0.000 Cl
ENDBRANCH  20  22
ENDBRANCH  10  20
TORSDOF 5
ENDMDL
MODEL 8
REMARK VINA RESULT:      -7.5      0.922      6.452
REMARK  Name = 
REMARK  6 active torsions:
REMARK  status: ('A' for Active; 'I' for Inactive)
REMARK    1  A    between atoms: C_1  and  C_2
REMARK    2  A    between atoms: C_2  and  N_3
REMARK    3  A    between atoms: C_7  and  C_8
REMARK    4  A    between atoms: C_8  and  C_10
REMARK    5  A    between atoms: C_16  and  C_17
REMARK    6  A    between atoms: C_17  and  C_19
REMARK                            x       y       z     vdW  Elec       q    Type
REMARK                         _______ _______ _______ _____ _____    ______ ____
ROOT
ATOM      1  N   UNL     1       6.577   5.646  17.364  0.00  0.00    +0.000 N 
ATOM      2  C   UNL     1       5.414   5.312  18.030  0.00  0.00    +0.000 A 
ATOM      3  C   UNL     1       5.005   5.587  19.344  0.00  0.00    +0.000 A 
ATOM      4  C   UNL     1       3.736   5.163  19.743  0.00  0.00    +0.000 A 
ATOM      5  C   UNL     1       2.899   4.478  18.861  0.00  0.00    +0.000 A 
ATOM      6  C   UNL     1       3.338   4.172  17.561  0.00  0.00    +0.000 A 
ATOM      7  C   UNL     1       4.615   4.601  17.135  0.00  0.00    +0.000 A 
ATOM      8  C   UNL     1       5.349   4.482  15.907  0.00  0.00    +0.000 A 
ATOM      9  C   UNL     1       5.076   3.884  14.656  0.00  0.00    +0.000 A 
ATOM     10  C   UNL     1       6.024   3.967  13.621  0.00  0.00    +0.000 A 
ATOM     11  C   UNL     1       7.249   4.598  13.837  0.00  0.00    +0.000 A 
ATOM     12  C   UNL     1       7.542   5.187  15.070  0.00  0.00    +0.000 A 
ATOM     13  C   UNL     1       6.574   5.131  16.085  0.00  0.00    +0.000 A 
ENDROOT
BRANCH   1  15
ATOM     14  C   UNL     1       7.490   7.939  17.501  0.00  0.00    +0.000 C 
ATOM     15  C   UNL     1       7.627   6.486  17.920  0.00  0.00    +0.000 C 
ENDBRANCH   1  15
BRANCH   5  16
ATOM     16  C   UNL     1       1.526   4.061  19.266  0.00  0.00    +0.000 C 
ATOM     17  O   UNL     1       0.943   4.689  20.149  0.00  0.00    +0.000 OA
BRANCH  16  18
ATOM     18  C   UNL     1       0.915   2.839  18.621  0.00  0.00    +0.000 C 
ATOM     19 CL   UNL     1       1.868   1.401  19.024  0.00  0.00    +0.000 Cl
ENDBRANCH  16  18
ENDBRANCH   5  16
BRANCH  10  20
ATOM     20  C   UNL     1       5.681   3.362  12.299  0.00  0.00    +0.000 C 
ATOM     21  O   UNL     1       4.524   3.441  11.889  0.00  0.00    +0.000 OA
BRANCH  20  22
ATOM     22  C   UNL     1       6.750   2.643  11.506  0.00  0.00    +0.000 C 
ATOM     23 CL   UNL     1       6.218   0.999  11.106  0.00  0.00    +0.000 Cl
ENDBRANCH  20  22
ENDBRANCH  10  20
TORSDOF 5
ENDMDL
MODEL 9
REMARK VINA RESULT:      -7.4      4.375      5.608
REMARK  Name = 
REMARK  6 active torsions:
REMARK  status: ('A' for Active; 'I' for Inactive)
REMARK    1  A    between atoms: C_1  and  C_2
REMARK    2  A    between atoms: C_2  and  N_3
REMARK    3  A    between atoms: C_7  and  C_8
REMARK    4  A    between atoms: C_8  and  C_10
REMARK    5  A    between atoms: C_16  and  C_17
REMARK    6  A    between atoms: C_17  and  C_19
REMARK                            x       y       z     vdW  Elec       q    Type
REMARK                         _______ _______ _______ _____ _____    ______ ____
ROOT
ATOM      1  N   UNL     1       2.627   5.528  20.083  0.00  0.00    +0.000 N 
ATOM      2  C   UNL     1       3.469   5.263  19.021  0.00  0.00    +0.000 A 
ATOM      3  C   UNL     1       4.225   4.118  18.721  0.00  0.00    +0.000 A 
ATOM      4  C   UNL     1       4.961   4.106  17.534  0.00  0.00    +0.000 A 
ATOM      5  C   UNL     1       4.950   5.203  16.672  0.00  0.00    +0.000 A 
ATOM      6  C   UNL     1       4.222   6.359  17.006  0.00  0.00    +0.000 A 
ATOM      7  C   UNL     1       3.463   6.388  18.198  0.00  0.00    +0.000 A 
ATOM      8  C   UNL     1       2.614   7.366  18.816  0.00  0.00    +0.000 A 
ATOM      9  C   UNL     1       2.217   8.678  18.470  0.00  0.00    +0.000 A 
ATOM     10  C   UNL     1       1.329   9.381  19.303  0.00  0.00    +0.000 A 
ATOM     11  C   UNL     1       0.872   8.806  20.489  0.00  0.00    +0.000 A 
ATOM     12  C   UNL     1       1.261   7.514  20.854  0.00  0.00    +0.000 A 
ATOM     13  C   UNL     1       2.118   6.807  19.997  0.00  0.00    +0.000 A 
ENDROOT
BRANCH   1  15
ATOM     14  C   UNL     1       1.169   3.622  20.671  0.00  0.00    +0.000 C 
ATOM     15  C   UNL     1       2.276   4.561  21.112  0.00  0.00    +0.000 C 
ENDBRANCH   1  15
BRANCH   5  16
ATOM     16  C   UNL     1       5.698   5.180  15.383  0.00  0.00    +0.000 C 
ATOM     17  O   UNL     1       5.797   6.216  14.727  0.00  0.00    +0.000 OA
BRANCH  16  18
ATOM     18  C   UNL     1       6.259   3.866  14.890  0.00  0.00    +0.000 C 
ATOM     19 CL   UNL     1       5.888   3.655  13.171  0.00  0.00    +0.000 Cl
ENDBRANCH  16  18
ENDBRANCH   5  16
BRANCH  10  20
ATOM     20  C   UNL     1       0.898  10.748  18.882  0.00  0.00    +0.000 C 
ATOM     21  O   UNL     1      -0.302  11.020  18.877  0.00  0.00    +0.000 OA
BRANCH  20  22
ATOM     22  C   UNL     1       1.936  11.757  18.445  0.00  0.00    +0.000 C 
ATOM     23 CL   UNL     1       2.154  12.996  19.696  0.00  0.00    +0.000 Cl
ENDBRANCH  20  22
ENDBRANCH  10  20
TORSDOF 5
ENDMDL
