MODEL 1
REMARK VINA RESULT:      -8.1      0.000      0.000
REMARK  Name = 
REMARK  8 active torsions:
REMARK  status: ('A' for Active; 'I' for Inactive)
REMARK    1  A    between atoms: C_1  and  O_2
REMARK    2  A    between atoms: O_2  and  C_3
REMARK    3  A    between atoms: C_6  and  C_7
REMARK    4  A    between atoms: C_8  and  C_9
REMARK    5  A    between atoms: C_9  and  C_11
REMARK    6  A    between atoms: C_13  and  N_14
REMARK    7  A    between atoms: C_15  and  C_16
REMARK    8  A    between atoms: C_20  and  O_21
REMARK                            x       y       z     vdW  Elec       q    Type
REMARK                         _______ _______ _______ _____ _____    ______ ____
ROOT
ATOM      1  C   UNL     1       4.825   4.135  17.770  0.00  0.00    +0.000 A 
ATOM      2  C   UNL     1       4.894   3.841  16.392  0.00  0.00    +0.000 A 
ATOM      3  C   UNL     1       6.101   3.960  15.691  0.00  0.00    +0.000 A 
ATOM      4  C   UNL     1       7.231   4.429  16.369  0.00  0.00    +0.000 A 
ATOM      5  C   UNL     1       7.176   4.720  17.735  0.00  0.00    +0.000 A 
ATOM      6  C   UNL     1       5.984   4.546  18.437  0.00  0.00    +0.000 A 
ENDROOT
BRANCH   3   7
ATOM      7  N   UNL     1       6.269   3.583  14.333  0.00  0.00    +0.000 N 
ATOM      8  C   UNL     1       6.870   4.342  13.342  0.00  0.00    +0.000 C 
ATOM      9  C   UNL     1       6.772   3.736  11.967  0.00  0.00    +0.000 C 
ATOM     10  O   UNL     1       7.478   5.400  13.506  0.00  0.00    +0.000 OA
ATOM     11  H   UNL     1       5.929   2.673  14.070  0.00  0.00    +0.000 HD
ENDBRANCH   3   7
BRANCH   1  12
ATOM     12  C   UNL     1       3.491   4.026  18.435  0.00  0.00    +0.000 C 
ATOM     13  O   UNL     1       3.129   2.970  18.952  0.00  0.00    +0.000 OA
BRANCH  12  15
ATOM     14  C   UNL     1       3.146   6.449  18.774  0.00  0.00    +0.000 C 
ATOM     15  C   UNL     1       2.637   5.242  18.473  0.00  0.00    +0.000 C 
BRANCH  14  19
ATOM     16  C   UNL     1       0.658   9.917  19.271  0.00  0.00    +0.000 A 
ATOM     17  C   UNL     1       0.932   9.072  20.349  0.00  0.00    +0.000 A 
ATOM     18  C   UNL     1       1.761   7.954  20.184  0.00  0.00    +0.000 A 
ATOM     19  C   UNL     1       2.304   7.648  18.931  0.00  0.00    +0.000 A 
ATOM     20  C   UNL     1       2.028   8.507  17.859  0.00  0.00    +0.000 A 
ATOM     21  C   UNL     1       1.205   9.627  18.024  0.00  0.00    +0.000 A 
BRANCH  16  23
ATOM     22  C   UNL     1      -0.138  11.462  20.871  0.00  0.00    +0.000 C 
ATOM     23  O   UNL     1      -0.180  10.965  19.537  0.00  0.00    +0.000 OA
ENDBRANCH  16  23
ENDBRANCH  14  19
ENDBRANCH  12  15
ENDBRANCH   1  12
BRANCH   6  24
ATOM     24  O   UNL     1       5.971   4.807  19.778  0.00  0.00    +0.000 OA
ATOM     25  H   UNL     1       6.882   4.907  20.106  0.00  0.00    +0.000 HD
ENDBRANCH   6  24
TORSDOF 6
ENDMDL
MODEL 2
REMARK VINA RESULT:      -8.0      0.356      1.059
REMARK  Name = 
REMARK  8 active torsions:
REMARK  status: ('A' for Active; 'I' for Inactive)
REMARK    1  A    between atoms: C_1  and  O_2
REMARK    2  A    between atoms: O_2  and  C_3
REMARK    3  A    between atoms: C_6  and  C_7
REMARK    4  A    between atoms: C_8  and  C_9
REMARK    5  A    between atoms: C_9  and  C_11
REMARK    6  A    between atoms: C_13  and  N_14
REMARK    7  A    between atoms: C_15  and  C_16
REMARK    8  A    between atoms: C_20  and  O_21
REMARK                            x       y       z     vdW  Elec       q    Type
REMARK                         _______ _______ _______ _____ _____    ______ ____
ROOT
ATOM      1  C   UNL     1       4.846   4.338  17.743  0.00  0.00    +0.000 A 
ATOM      2  C   UNL     1       4.907   4.003  16.375  0.00  0.00    +0.000 A 
ATOM      3  C   UNL     1       6.130   3.988  15.692  0.00  0.00    +0.000 A 
ATOM      4  C   UNL     1       7.290   4.365  16.378  0.00  0.00    +0.000 A 
ATOM      5  C   UNL     1       7.242   4.695  17.735  0.00  0.00    +0.000 A 
ATOM      6  C   UNL     1       6.028   4.654  18.420  0.00  0.00    +0.000 A 
ENDROOT
BRANCH   3   7
ATOM      7  N   UNL     1       6.282   3.561  14.346  0.00  0.00    +0.000 N 
ATOM      8  C   UNL     1       6.861   4.287  13.319  0.00  0.00    +0.000 C 
ATOM      9  C   UNL     1       6.748   3.628  11.970  0.00  0.00    +0.000 C 
ATOM     10  O   UNL     1       7.461   5.356  13.433  0.00  0.00    +0.000 OA
ATOM     11  H   UNL     1       5.947   2.639  14.123  0.00  0.00    +0.000 HD
ENDBRANCH   3   7
BRANCH   1  12
ATOM     12  C   UNL     1       3.497   4.374  18.387  0.00  0.00    +0.000 C 
ATOM     13  O   UNL     1       3.056   3.390  18.980  0.00  0.00    +0.000 OA
BRANCH  12  15
ATOM     14  C   UNL     1       2.901   6.626  19.212  0.00  0.00    +0.000 C 
ATOM     15  C   UNL     1       2.729   5.643  18.310  0.00  0.00    +0.000 C 
BRANCH  14  19
ATOM     16  C   UNL     1       0.523  10.204  19.210  0.00  0.00    +0.000 A 
ATOM     17  C   UNL     1       1.110   9.734  18.033  0.00  0.00    +0.000 A 
ATOM     18  C   UNL     1       1.868   8.555  18.038  0.00  0.00    +0.000 A 
ATOM     19  C   UNL     1       2.074   7.844  19.225  0.00  0.00    +0.000 A 
ATOM     20  C   UNL     1       1.474   8.322  20.398  0.00  0.00    +0.000 A 
ATOM     21  C   UNL     1       0.714   9.497  20.394  0.00  0.00    +0.000 A 
BRANCH  16  23
ATOM     22  C   UNL     1      -0.355  12.100  20.311  0.00  0.00    +0.000 C 
ATOM     23  O   UNL     1      -0.175  11.375  19.098  0.00  0.00    +0.000 OA
ENDBRANCH  16  23
ENDBRANCH  14  19
ENDBRANCH  12  15
ENDBRANCH   1  12
BRANCH   6  24
ATOM     24  O   UNL     1       6.021   4.950  19.754  0.00  0.00    +0.000 OA
ATOM     25  H   UNL     1       6.838   5.418  19.995  0.00  0.00    +0.000 HD
ENDBRANCH   6  24
TORSDOF 6
ENDMDL
MODEL 3
REMARK VINA RESULT:      -7.9      1.003      1.408
REMARK  Name = 
REMARK  8 active torsions:
REMARK  status: ('A' for Active; 'I' for Inactive)
REMARK    1  A    between atoms: C_1  and  O_2
REMARK    2  A    between atoms: O_2  and  C_3
REMARK    3  A    between atoms: C_6  and  C_7
REMARK    4  A    between atoms: C_8  and  C_9
REMARK    5  A    between atoms: C_9  and  C_11
REMARK    6  A    between atoms: C_13  and  N_14
REMARK    7  A    between atoms: C_15  and  C_16
REMARK    8  A    between atoms: C_20  and  O_21
REMARK                            x       y       z     vdW  Elec       q    Type
REMARK                         _______ _______ _______ _____ _____    ______ ____
ROOT
ATOM      1  C   UNL     1       4.749   4.331  17.226  0.00  0.00    +0.000 A 
ATOM      2  C   UNL     1       5.128   4.652  15.906  0.00  0.00    +0.000 A 
ATOM      3  C   UNL     1       6.467   4.911  15.584  0.00  0.00    +0.000 A 
ATOM      4  C   UNL     1       7.420   4.899  16.608  0.00  0.00    +0.000 A 
ATOM      5  C   UNL     1       7.057   4.578  17.919  0.00  0.00    +0.000 A 
ATOM      6  C   UNL     1       5.731   4.269  18.219  0.00  0.00    +0.000 A 
ENDROOT
BRANCH   3   7
ATOM      7  N   UNL     1       6.936   5.136  14.263  0.00  0.00    +0.000 N 
ATOM      8  C   UNL     1       6.716   4.319  13.167  0.00  0.00    +0.000 C 
ATOM      9  C   UNL     1       7.461   4.746  11.930  0.00  0.00    +0.000 C 
ATOM     10  O   UNL     1       5.965   3.343  13.127  0.00  0.00    +0.000 OA
ATOM     11  H   UNL     1       7.469   5.976  14.109  0.00  0.00    +0.000 HD
ENDBRANCH   3   7
BRANCH   1  12
ATOM     12  C   UNL     1       3.295   4.114  17.495  0.00  0.00    +0.000 C 
ATOM     13  O   UNL     1       2.787   3.003  17.348  0.00  0.00    +0.000 OA
BRANCH  12  15
ATOM     14  C   UNL     1       3.030   6.508  18.047  0.00  0.00    +0.000 C 
ATOM     15  C   UNL     1       2.500   5.275  17.972  0.00  0.00    +0.000 C 
BRANCH  14  19
ATOM     16  C   UNL     1       0.936   9.881  19.688  0.00  0.00    +0.000 A 
ATOM     17  C   UNL     1       1.314   9.857  18.344  0.00  0.00    +0.000 A 
ATOM     18  C   UNL     1       1.979   8.745  17.811  0.00  0.00    +0.000 A 
ATOM     19  C   UNL     1       2.302   7.651  18.622  0.00  0.00    +0.000 A 
ATOM     20  C   UNL     1       1.911   7.684  19.967  0.00  0.00    +0.000 A 
ATOM     21  C   UNL     1       1.242   8.792  20.499  0.00  0.00    +0.000 A 
BRANCH  16  23
ATOM     22  C   UNL     1      -1.086  11.091  19.855  0.00  0.00    +0.000 C 
ATOM     23  O   UNL     1       0.313  11.024  20.110  0.00  0.00    +0.000 OA
ENDBRANCH  16  23
ENDBRANCH  14  19
ENDBRANCH  12  15
ENDBRANCH   1  12
BRANCH   6  24
ATOM     24  O   UNL     1       5.415   3.927  19.504  0.00  0.00    +0.000 OA
ATOM     25  H   UNL     1       4.736   3.231  19.505  0.00  0.00    +0.000 HD
ENDBRANCH   6  24
TORSDOF 6
ENDMDL
MODEL 4
REMARK VINA RESULT:      -7.8      1.030      1.037
REMARK  Name = 
REMARK  8 active torsions:
REMARK  status: ('A' for Active; 'I' for Inactive)
REMARK    1  A    between atoms: C_1  and  O_2
REMARK    2  A    between atoms: O_2  and  C_3
REMARK    3  A    between atoms: C_6  and  C_7
REMARK    4  A    between atoms: C_8  and  C_9
REMARK    5  A    between atoms: C_9  and  C_11
REMARK    6  A    between atoms: C_13  and  N_14
REMARK    7  A    between atoms: C_15  and  C_16
REMARK    8  A    between atoms: C_20  and  O_21
REMARK                            x       y       z     vdW  Elec       q    Type
REMARK                         _______ _______ _______ _____ _____    ______ ____
ROOT
ATOM      1  C   UNL     1       4.707   4.491  17.425  0.00  0.00    +0.000 A 
ATOM      2  C   UNL     1       5.183   4.945  16.178  0.00  0.00    +0.000 A 
ATOM      3  C   UNL     1       6.551   5.159  15.965  0.00  0.00    +0.000 A 
ATOM      4  C   UNL     1       7.437   4.966  17.030  0.00  0.00    +0.000 A 
ATOM      5  C   UNL     1       6.977   4.512  18.269  0.00  0.00    +0.000 A 
ATOM      6  C   UNL     1       5.621   4.249  18.456  0.00  0.00    +0.000 A 
ENDROOT
BRANCH   3   7
ATOM      7  N   UNL     1       7.113   5.513  14.710  0.00  0.00    +0.000 N 
ATOM      8  C   UNL     1       7.075   4.752  13.554  0.00  0.00    +0.000 C 
ATOM      9  C   UNL     1       7.883   5.327  12.420  0.00  0.00    +0.000 C 
ATOM     10  O   UNL     1       6.432   3.715  13.387  0.00  0.00    +0.000 OA
ATOM     11  H   UNL     1       7.571   6.408  14.655  0.00  0.00    +0.000 HD
ENDBRANCH   3   7
BRANCH   1  12
ATOM     12  C   UNL     1       3.229   4.331  17.585  0.00  0.00    +0.000 C 
ATOM     13  O   UNL     1       2.704   3.221  17.508  0.00  0.00    +0.000 OA
BRANCH  12  15
ATOM     14  C   UNL     1       2.961   6.610  18.502  0.00  0.00    +0.000 C 
ATOM     15  C   UNL     1       2.429   5.550  17.868  0.00  0.00    +0.000 C 
BRANCH  14  19
ATOM     16  C   UNL     1       0.601   9.997  19.689  0.00  0.00    +0.000 A 
ATOM     17  C   UNL     1       0.968   9.020  20.617  0.00  0.00    +0.000 A 
ATOM     18  C   UNL     1       1.755   7.928  20.226  0.00  0.00    +0.000 A 
ATOM     19  C   UNL     1       2.162   7.783  18.895  0.00  0.00    +0.000 A 
ATOM     20  C   UNL     1       1.794   8.773  17.976  0.00  0.00    +0.000 A 
ATOM     21  C   UNL     1       1.012   9.867  18.366  0.00  0.00    +0.000 A 
BRANCH  16  23
ATOM     22  C   UNL     1      -0.333  11.048  21.587  0.00  0.00    +0.000 C 
ATOM     23  O   UNL     1      -0.187  11.007  20.171  0.00  0.00    +0.000 OA
ENDBRANCH  16  23
ENDBRANCH  14  19
ENDBRANCH  12  15
ENDBRANCH   1  12
BRANCH   6  24
ATOM     24  O   UNL     1       5.208   3.774  19.669  0.00  0.00    +0.000 OA
ATOM     25  H   UNL     1       5.438   4.408  20.369  0.00  0.00    +0.000 HD
ENDBRANCH   6  24
TORSDOF 6
ENDMDL
MODEL 5
REMARK VINA RESULT:      -7.8      5.045      7.203
REMARK  Name = 
REMARK  8 active torsions:
REMARK  status: ('A' for Active; 'I' for Inactive)
REMARK    1  A    between atoms: C_1  and  O_2
REMARK    2  A    between atoms: O_2  and  C_3
REMARK    3  A    between atoms: C_6  and  C_7
REMARK    4  A    between atoms: C_8  and  C_9
REMARK    5  A    between atoms: C_9  and  C_11
REMARK    6  A    between atoms: C_13  and  N_14
REMARK    7  A    between atoms: C_15  and  C_16
REMARK    8  A    between atoms: C_20  and  O_21
REMARK                            x       y       z     vdW  Elec       q    Type
REMARK                         _______ _______ _______ _____ _____    ______ ____
ROOT
ATOM      1  C   UNL     1       5.788   6.049  17.873  0.00  0.00    +0.000 A 
ATOM      2  C   UNL     1       5.263   5.502  19.062  0.00  0.00    +0.000 A 
ATOM      3  C   UNL     1       3.880   5.452  19.282  0.00  0.00    +0.000 A 
ATOM      4  C   UNL     1       3.025   6.004  18.322  0.00  0.00    +0.000 A 
ATOM      5  C   UNL     1       3.534   6.545  17.139  0.00  0.00    +0.000 A 
ATOM      6  C   UNL     1       4.908   6.542  16.904  0.00  0.00    +0.000 A 
ENDROOT
BRANCH   3   7
ATOM      7  N   UNL     1       3.277   4.823  20.403  0.00  0.00    +0.000 N 
ATOM      8  C   UNL     1       2.824   3.516  20.461  0.00  0.00    +0.000 C 
ATOM      9  C   UNL     1       2.101   3.178  21.738  0.00  0.00    +0.000 C 
ATOM     10  O   UNL     1       2.996   2.648  19.604  0.00  0.00    +0.000 OA
ATOM     11  H   UNL     1       3.181   5.378  21.237  0.00  0.00    +0.000 HD
ENDBRANCH   3   7
BRANCH   1  12
ATOM     12  C   UNL     1       7.275   6.107  17.736  0.00  0.00    +0.000 C 
ATOM     13  O   UNL     1       7.892   5.197  17.183  0.00  0.00    +0.000 OA
BRANCH  12  15
ATOM     14  C   UNL     1       7.698   8.540  17.795  0.00  0.00    +0.000 C 
ATOM     15  C   UNL     1       7.971   7.309  18.261  0.00  0.00    +0.000 C 
BRANCH  14  19
ATOM     16  C   UNL     1       9.903  12.037  18.964  0.00  0.00    +0.000 A 
ATOM     17  C   UNL     1       9.061  12.061  17.850  0.00  0.00    +0.000 A 
ATOM     18  C   UNL     1       8.330  10.922  17.487  0.00  0.00    +0.000 A 
ATOM     19  C   UNL     1       8.452   9.734  18.215  0.00  0.00    +0.000 A 
ATOM     20  C   UNL     1       9.295   9.724  19.335  0.00  0.00    +0.000 A 
ATOM     21  C   UNL     1      10.022  10.862  19.701  0.00  0.00    +0.000 A 
BRANCH  16  23
ATOM     22  C   UNL     1      11.921  13.029  19.689  0.00  0.00    +0.000 C 
ATOM     23  O   UNL     1      10.588  13.195  19.215  0.00  0.00    +0.000 OA
ENDBRANCH  16  23
ENDBRANCH  14  19
ENDBRANCH  12  15
ENDBRANCH   1  12
BRANCH   6  24
ATOM     24  O   UNL     1       5.371   7.048  15.722  0.00  0.00    +0.000 OA
ATOM     25  H   UNL     1       5.725   6.330  15.170  0.00  0.00    +0.000 HD
ENDBRANCH   6  24
TORSDOF 6
ENDMDL
MODEL 6
REMARK VINA RESULT:      -7.7      5.002      7.053
REMARK  Name = 
REMARK  8 active torsions:
REMARK  status: ('A' for Active; 'I' for Inactive)
REMARK    1  A    between atoms: C_1  and  O_2
REMARK    2  A    between atoms: O_2  and  C_3
REMARK    3  A    between atoms: C_6  and  C_7
REMARK    4  A    between atoms: C_8  and  C_9
REMARK    5  A    between atoms: C_9  and  C_11
REMARK    6  A    between atoms: C_13  and  N_14
REMARK    7  A    between atoms: C_15  and  C_16
REMARK    8  A    between atoms: C_20  and  O_21
REMARK                            x       y       z     vdW  Elec       q    Type
REMARK                         _______ _______ _______ _____ _____    ______ ____
ROOT
ATOM      1  C   UNL     1       5.821   5.869  17.945  0.00  0.00    +0.000 A 
ATOM      2  C   UNL     1       5.271   5.335  19.128  0.00  0.00    +0.000 A 
ATOM      3  C   UNL     1       3.884   5.237  19.296  0.00  0.00    +0.000 A 
ATOM      4  C   UNL     1       3.046   5.729  18.289  0.00  0.00    +0.000 A 
ATOM      5  C   UNL     1       3.580   6.256  17.110  0.00  0.00    +0.000 A 
ATOM      6  C   UNL     1       4.962   6.301  16.929  0.00  0.00    +0.000 A 
ENDROOT
BRANCH   3   7
ATOM      7  N   UNL     1       3.262   4.616  20.411  0.00  0.00    +0.000 N 
ATOM      8  C   UNL     1       2.753   3.328  20.451  0.00  0.00    +0.000 C 
ATOM      9  C   UNL     1       2.024   3.001  21.727  0.00  0.00    +0.000 C 
ATOM     10  O   UNL     1       2.882   2.469  19.579  0.00  0.00    +0.000 OA
ATOM     11  H   UNL     1       3.195   5.161  21.254  0.00  0.00    +0.000 HD
ENDBRANCH   3   7
BRANCH   1  12
ATOM     12  C   UNL     1       7.310   5.982  17.862  0.00  0.00    +0.000 C 
ATOM     13  O   UNL     1       7.983   5.076  17.373  0.00  0.00    +0.000 OA
BRANCH  12  15
ATOM     14  C   UNL     1       7.729   8.415  17.760  0.00  0.00    +0.000 C 
ATOM     15  C   UNL     1       7.937   7.232  18.364  0.00  0.00    +0.000 C 
BRANCH  14  19
ATOM     16  C   UNL     1       9.759  11.991  19.002  0.00  0.00    +0.000 A 
ATOM     17  C   UNL     1       9.945  10.788  19.686  0.00  0.00    +0.000 A 
ATOM     18  C   UNL     1       9.295   9.621  19.263  0.00  0.00    +0.000 A 
ATOM     19  C   UNL     1       8.426   9.647  18.166  0.00  0.00    +0.000 A 
ATOM     20  C   UNL     1       8.254  10.858  17.483  0.00  0.00    +0.000 A 
ATOM     21  C   UNL     1       8.906  12.023  17.902  0.00  0.00    +0.000 A 
BRANCH  16  23
ATOM     22  C   UNL     1      11.066  13.907  18.555  0.00  0.00    +0.000 C 
ATOM     23  O   UNL     1      10.422  13.074  19.513  0.00  0.00    +0.000 OA
ENDBRANCH  16  23
ENDBRANCH  14  19
ENDBRANCH  12  15
ENDBRANCH   1  12
BRANCH   6  24
ATOM     24  O   UNL     1       5.451   6.792  15.751  0.00  0.00    +0.000 OA
ATOM     25  H   UNL     1       4.717   6.998  15.147  0.00  0.00    +0.000 HD
ENDBRANCH   6  24
TORSDOF 6
ENDMDL
MODEL 7
REMARK VINA RESULT:      -7.7      5.040      7.001
REMARK  Name = 
REMARK  8 active torsions:
REMARK  status: ('A' for Active; 'I' for Inactive)
REMARK    1  A    between atoms: C_1  and  O_2
REMARK    2  A    between atoms: O_2  and  C_3
REMARK    3  A    between atoms: C_6  and  C_7
REMARK    4  A    between atoms: C_8  and  C_9
REMARK    5  A    between atoms: C_9  and  C_11
REMARK    6  A    between atoms: C_13  and  N_14
REMARK    7  A    between atoms: C_15  and  C_16
REMARK    8  A    between atoms: C_20  and  O_21
REMARK                            x       y       z     vdW  Elec       q    Type
REMARK                         _______ _______ _______ _____ _____    ______ ____
ROOT
ATOM      1  C   UNL     1       5.630   6.170  17.729  0.00  0.00    +0.000 A 
ATOM      2  C   UNL     1       4.719   7.214  17.466  0.00  0.00    +0.000 A 
ATOM      3  C   UNL     1       3.351   7.059  17.725  0.00  0.00    +0.000 A 
ATOM      4  C   UNL     1       2.892   5.826  18.201  0.00  0.00    +0.000 A 
ATOM      5  C   UNL     1       3.785   4.785  18.469  0.00  0.00    +0.000 A 
ATOM      6  C   UNL     1       5.151   4.967  18.260  0.00  0.00    +0.000 A 
ENDROOT
BRANCH   3   7
ATOM      7  N   UNL     1       2.394   8.098  17.584  0.00  0.00    +0.000 N 
ATOM      8  C   UNL     1       1.659   8.675  18.606  0.00  0.00    +0.000 C 
ATOM      9  C   UNL     1       0.619   9.654  18.129  0.00  0.00    +0.000 C 
ATOM     10  O   UNL     1       1.816   8.483  19.812  0.00  0.00    +0.000 OA
ATOM     11  H   UNL     1       2.245   8.454  16.655  0.00  0.00    +0.000 HD
ENDBRANCH   3   7
BRANCH   1  12
ATOM     12  C   UNL     1       7.066   6.399  17.382  0.00  0.00    +0.000 C 
ATOM     13  O   UNL     1       7.791   5.462  17.055  0.00  0.00    +0.000 OA
BRANCH  12  15
ATOM     14  C   UNL     1       8.310   8.250  18.446  0.00  0.00    +0.000 C 
ATOM     15  C   UNL     1       7.571   7.796  17.419  0.00  0.00    +0.000 C 
BRANCH  14  19
ATOM     16  C   UNL     1       9.521  12.352  18.847  0.00  0.00    +0.000 A 
ATOM     17  C   UNL     1       9.908  11.396  19.789  0.00  0.00    +0.000 A 
ATOM     18  C   UNL     1       9.526  10.056  19.641  0.00  0.00    +0.000 A 
ATOM     19  C   UNL     1       8.727   9.658  18.563  0.00  0.00    +0.000 A 
ATOM     20  C   UNL     1       8.351  10.625  17.621  0.00  0.00    +0.000 A 
ATOM     21  C   UNL     1       8.736  11.962  17.766  0.00  0.00    +0.000 A 
BRANCH  16  23
ATOM     22  C   UNL     1      10.349  14.380  17.963  0.00  0.00    +0.000 C 
ATOM     23  O   UNL     1       9.929  13.634  19.101  0.00  0.00    +0.000 OA
ENDBRANCH  16  23
ENDBRANCH  14  19
ENDBRANCH  12  15
ENDBRANCH   1  12
BRANCH   6  24
ATOM     24  O   UNL     1       6.001   3.942  18.564  0.00  0.00    +0.000 OA
ATOM     25  H   UNL     1       6.702   3.881  17.892  0.00  0.00    +0.000 HD
ENDBRANCH   6  24
TORSDOF 6
ENDMDL
MODEL 8
REMARK VINA RESULT:      -7.6      4.758      6.884
REMARK  Name = 
REMARK  8 active torsions:
REMARK  status: ('A' for Active; 'I' for Inactive)
REMARK    1  A    between atoms: C_1  and  O_2
REMARK    2  A    between atoms: O_2  and  C_3
REMARK    3  A    between atoms: C_6  and  C_7
REMARK    4  A    between atoms: C_8  and  C_9
REMARK    5  A    between atoms: C_9  and  C_11
REMARK    6  A    between atoms: C_13  and  N_14
REMARK    7  A    between atoms: C_15  and  C_16
REMARK    8  A    between atoms: C_20  and  O_21
REMARK                            x       y       z     vdW  Elec       q    Type
REMARK                         _______ _______ _______ _____ _____    ______ ____
ROOT
ATOM      1  C   UNL     1       5.679   5.262  17.690  0.00  0.00    +0.000 A 
ATOM      2  C   UNL     1       4.908   6.026  18.590  0.00  0.00    +0.000 A 
ATOM      3  C   UNL     1       3.589   5.667  18.893  0.00  0.00    +0.000 A 
ATOM      4  C   UNL     1       3.026   4.562  18.245  0.00  0.00    +0.000 A 
ATOM      5  C   UNL     1       3.781   3.794  17.355  0.00  0.00    +0.000 A 
ATOM      6  C   UNL     1       5.111   4.128  17.101  0.00  0.00    +0.000 A 
ENDROOT
BRANCH   3   7
ATOM      7  N   UNL     1       2.791   6.325  19.865  0.00  0.00    +0.000 N 
ATOM      8  C   UNL     1       2.139   7.536  19.703  0.00  0.00    +0.000 C 
ATOM      9  C   UNL     1       1.488   8.050  20.960  0.00  0.00    +0.000 C 
ATOM     10  O   UNL     1       2.028   8.167  18.651  0.00  0.00    +0.000 OA
ATOM     11  H   UNL     1       2.681   5.861  20.752  0.00  0.00    +0.000 HD
ENDBRANCH   3   7
BRANCH   1  12
ATOM     12  C   UNL     1       7.063   5.738  17.386  0.00  0.00    +0.000 C 
ATOM     13  O   UNL     1       7.771   5.139  16.577  0.00  0.00    +0.000 OA
BRANCH  12  15
ATOM     14  C   UNL     1       7.732   8.117  17.396  0.00  0.00    +0.000 C 
ATOM     15  C   UNL     1       7.536   6.970  18.069  0.00  0.00    +0.000 C 
BRANCH  14  19
ATOM     16  C   UNL     1       9.420  11.643  19.177  0.00  0.00    +0.000 A 
ATOM     17  C   UNL     1       8.694  11.720  17.987  0.00  0.00    +0.000 A 
ATOM     18  C   UNL     1       8.129  10.568  17.422  0.00  0.00    +0.000 A 
ATOM     19  C   UNL     1       8.307   9.318  18.025  0.00  0.00    +0.000 A 
ATOM     20  C   UNL     1       9.032   9.255  19.222  0.00  0.00    +0.000 A 
ATOM     21  C   UNL     1       9.593  10.405  19.789  0.00  0.00    +0.000 A 
BRANCH  16  23
ATOM     22  C   UNL     1       9.971  13.886  18.680  0.00  0.00    +0.000 C 
ATOM     23  O   UNL     1       9.948  12.823  19.628  0.00  0.00    +0.000 OA
ENDBRANCH  16  23
ENDBRANCH  14  19
ENDBRANCH  12  15
ENDBRANCH   1  12
BRANCH   6  24
ATOM     24  O   UNL     1       5.832   3.337  16.251  0.00  0.00    +0.000 OA
ATOM     25  H   UNL     1       6.743   3.241  16.579  0.00  0.00    +0.000 HD
ENDBRANCH   6  24
TORSDOF 6
ENDMDL
MODEL 9
REMARK VINA RESULT:      -7.6      3.256      8.466
REMARK  Name = 
REMARK  8 active torsions:
REMARK  status: ('A' for Active; 'I' for Inactive)
REMARK    1  A    between atoms: C_1  and  O_2
REMARK    2  A    between atoms: O_2  and  C_3
REMARK    3  A    between atoms: C_6  and  C_7
REMARK    4  A    between atoms: C_8  and  C_9
REMARK    5  A    between atoms: C_9  and  C_11
REMARK    6  A    between atoms: C_13  and  N_14
REMARK    7  A    between atoms: C_15  and  C_16
REMARK    8  A    between atoms: C_20  and  O_21
REMARK                            x       y       z     vdW  Elec       q    Type
REMARK                         _______ _______ _______ _____ _____    ______ ____
ROOT
ATOM      1  C   UNL     1       0.544   9.722  19.829  0.00  0.00    +0.000 A 
ATOM      2  C   UNL     1      -0.133   9.748  18.592  0.00  0.00    +0.000 A 
ATOM      3  C   UNL     1      -0.982  10.811  18.259  0.00  0.00    +0.000 A 
ATOM      4  C   UNL     1      -1.191  11.827  19.198  0.00  0.00    +0.000 A 
ATOM      5  C   UNL     1      -0.523  11.814  20.425  0.00  0.00    +0.000 A 
ATOM      6  C   UNL     1       0.362  10.780  20.727  0.00  0.00    +0.000 A 
ENDROOT
BRANCH   3   7
ATOM      7  N   UNL     1      -1.612  10.956  16.995  0.00  0.00    +0.000 N 
ATOM      8  C   UNL     1      -2.723  10.259  16.551  0.00  0.00    +0.000 C 
ATOM      9  C   UNL     1      -3.074  10.526  15.111  0.00  0.00    +0.000 C 
ATOM     10  O   UNL     1      -3.427   9.508  17.226  0.00  0.00    +0.000 OA
ATOM     11  H   UNL     1      -1.218  11.638  16.368  0.00  0.00    +0.000 HD
ENDBRANCH   3   7
BRANCH   1  12
ATOM     12  C   UNL     1       1.396   8.530  20.128  0.00  0.00    +0.000 C 
ATOM     13  O   UNL     1       1.368   8.000  21.237  0.00  0.00    +0.000 OA
BRANCH  12  15
ATOM     14  C   UNL     1       2.557   6.692  18.954  0.00  0.00    +0.000 C 
ATOM     15  C   UNL     1       2.247   7.998  19.033  0.00  0.00    +0.000 C 
BRANCH  14  19
ATOM     16  C   UNL     1       5.284   5.081  16.051  0.00  0.00    +0.000 A 
ATOM     17  C   UNL     1       4.405   4.249  16.747  0.00  0.00    +0.000 A 
ATOM     18  C   UNL     1       3.505   4.784  17.678  0.00  0.00    +0.000 A 
ATOM     19  C   UNL     1       3.490   6.157  17.948  0.00  0.00    +0.000 A 
ATOM     20  C   UNL     1       4.371   6.983  17.238  0.00  0.00    +0.000 A 
ATOM     21  C   UNL     1       5.267   6.450  16.304  0.00  0.00    +0.000 A 
BRANCH  16  23
ATOM     22  C   UNL     1       5.576   4.099  13.923  0.00  0.00    +0.000 C 
ATOM     23  O   UNL     1       6.136   4.453  15.184  0.00  0.00    +0.000 OA
ENDBRANCH  16  23
ENDBRANCH  14  19
ENDBRANCH  12  15
ENDBRANCH   1  12
BRANCH   6  24
ATOM     24  O   UNL     1       1.025  10.814  21.921  0.00  0.00    +0.000 OA
ATOM     25  H   UNL     1       1.606  11.594  21.956  0.00  0.00    +0.000 HD
ENDBRANCH   6  24
TORSDOF 6
ENDMDL
