MODEL 1
REMARK VINA RESULT:      -7.9      0.000      0.000
REMARK  Name = 
REMARK  5 active torsions:
REMARK  status: ('A' for Active; 'I' for Inactive)
REMARK    1  A    between atoms: C_8  and  C_9
REMARK    2  A    between atoms: C_9  and  C_10
REMARK    3  A    between atoms: C_10  and  O_11
REMARK    4  A    between atoms: O_11  and  C_12
REMARK    5  A    between atoms: C_15  and  C_16
REMARK                            x       y       z     vdW  Elec       q    Type
REMARK                         _______ _______ _______ _____ _____    ______ ____
ROOT
ATOM      1  C   UNL     1       7.338   7.380  17.432  0.00  0.00    +0.000 A 
ATOM      2  C   UNL     1       7.868   6.434  18.283  0.00  0.00    +0.000 A 
ATOM      3  C   UNL     1       7.114   5.293  18.547  0.00  0.00    +0.000 A 
ATOM      4  C   UNL     1       5.870   5.138  17.941  0.00  0.00    +0.000 A 
ATOM      5  N   UNL     1       5.424   6.073  17.063  0.00  0.00    +0.000 NA
ATOM      6  N   UNL     1       6.161   7.198  16.802  0.00  0.00    +0.000 NA
ENDROOT
BRANCH   4   7
ATOM      7  C   UNL     1       4.954   4.016  18.233  0.00  0.00    +0.000 A 
ATOM      8  C   UNL     1       4.056   3.523  17.282  0.00  0.00    +0.000 A 
ATOM      9  C   UNL     1       3.179   2.496  17.627  0.00  0.00    +0.000 A 
ATOM     10  C   UNL     1       3.214   1.980  18.914  0.00  0.00    +0.000 A 
ATOM     11  C   UNL     1       4.131   2.510  19.803  0.00  0.00    +0.000 A 
ATOM     12  N   UNL     1       4.995   3.505  19.496  0.00  0.00    +0.000 NA
ENDBRANCH   4   7
BRANCH   1  13
ATOM     13  O   UNL     1       8.042   8.553  17.261  0.00  0.00    +0.000 OA
BRANCH  13  14
ATOM     14  C   UNL     1       8.602   9.032  18.492  0.00  0.00    +0.000 C 
BRANCH  14  15
ATOM     15  C   UNL     1       8.544  10.559  18.479  0.00  0.00    +0.000 C 
BRANCH  15  23
ATOM     16  F   UNL     1      10.756  11.043  16.827  0.00  0.00    +0.000 F 
ATOM     17  C   UNL     1      10.877  11.403  18.113  0.00  0.00    +0.000 A 
ATOM     18  C   UNL     1      12.077  11.978  18.529  0.00  0.00    +0.000 A 
ATOM     19  C   UNL     1      12.231  12.371  19.854  0.00  0.00    +0.000 A 
ATOM     20  C   UNL     1      11.178  12.192  20.750  0.00  0.00    +0.000 A 
ATOM     21  C   UNL     1       9.975  11.611  20.324  0.00  0.00    +0.000 A 
ATOM     22 CL   UNL     1       8.717  11.439  21.497  0.00  0.00    +0.000 Cl
ATOM     23  C   UNL     1       9.811  11.193  18.995  0.00  0.00    +0.000 A 
ENDBRANCH  15  23
ENDBRANCH  14  15
ENDBRANCH  13  14
ENDBRANCH   1  13
TORSDOF 5
ENDMDL
MODEL 2
REMARK VINA RESULT:      -7.8      3.543      8.964
REMARK  Name = 
REMARK  5 active torsions:
REMARK  status: ('A' for Active; 'I' for Inactive)
REMARK    1  A    between atoms: C_8  and  C_9
REMARK    2  A    between atoms: C_9  and  C_10
REMARK    3  A    between atoms: C_10  and  O_11
REMARK    4  A    between atoms: O_11  and  C_12
REMARK    5  A    between atoms: C_15  and  C_16
REMARK                            x       y       z     vdW  Elec       q    Type
REMARK                         _______ _______ _______ _____ _____    ______ ____
ROOT
ATOM      1  C   UNL     1       6.859   5.988  17.415  0.00  0.00    +0.000 A 
ATOM      2  C   UNL     1       7.720   6.029  18.490  0.00  0.00    +0.000 A 
ATOM      3  C   UNL     1       8.289   7.254  18.830  0.00  0.00    +0.000 A 
ATOM      4  C   UNL     1       7.964   8.389  18.091  0.00  0.00    +0.000 A 
ATOM      5  N   UNL     1       7.062   8.303  17.080  0.00  0.00    +0.000 NA
ATOM      6  N   UNL     1       6.502   7.099  16.741  0.00  0.00    +0.000 NA
ENDROOT
BRANCH   4   7
ATOM      7  C   UNL     1       8.588   9.710  18.309  0.00  0.00    +0.000 A 
ATOM      8  C   UNL     1       9.530   9.930  19.319  0.00  0.00    +0.000 A 
ATOM      9  C   UNL     1      10.049  11.209  19.512  0.00  0.00    +0.000 A 
ATOM     10  C   UNL     1       9.620  12.245  18.697  0.00  0.00    +0.000 A 
ATOM     11  C   UNL     1       8.690  11.956  17.713  0.00  0.00    +0.000 A 
ATOM     12  N   UNL     1       8.171  10.725  17.501  0.00  0.00    +0.000 NA
ENDBRANCH   4   7
BRANCH   1  13
ATOM     13  O   UNL     1       6.385   4.755  17.020  0.00  0.00    +0.000 OA
BRANCH  13  14
ATOM     14  C   UNL     1       5.453   4.207  17.963  0.00  0.00    +0.000 C 
BRANCH  14  15
ATOM     15  C   UNL     1       4.041   4.474  17.446  0.00  0.00    +0.000 C 
BRANCH  15  23
ATOM     16  F   UNL     1       3.174   1.809  17.542  0.00  0.00    +0.000 F 
ATOM     17  C   UNL     1       2.588   2.662  18.393  0.00  0.00    +0.000 A 
ATOM     18  C   UNL     1       1.602   2.171  19.248  0.00  0.00    +0.000 A 
ATOM     19  C   UNL     1       0.981   3.027  20.151  0.00  0.00    +0.000 A 
ATOM     20  C   UNL     1       1.358   4.369  20.195  0.00  0.00    +0.000 A 
ATOM     21  C   UNL     1       2.350   4.856  19.331  0.00  0.00    +0.000 A 
ATOM     22 CL   UNL     1       2.767   6.528  19.463  0.00  0.00    +0.000 Cl
ATOM     23  C   UNL     1       2.972   4.008  18.404  0.00  0.00    +0.000 A 
ENDBRANCH  15  23
ENDBRANCH  14  15
ENDBRANCH  13  14
ENDBRANCH   1  13
TORSDOF 5
ENDMDL
MODEL 3
REMARK VINA RESULT:      -7.7      3.587      8.913
REMARK  Name = 
REMARK  5 active torsions:
REMARK  status: ('A' for Active; 'I' for Inactive)
REMARK    1  A    between atoms: C_8  and  C_9
REMARK    2  A    between atoms: C_9  and  C_10
REMARK    3  A    between atoms: C_10  and  O_11
REMARK    4  A    between atoms: O_11  and  C_12
REMARK    5  A    between atoms: C_15  and  C_16
REMARK                            x       y       z     vdW  Elec       q    Type
REMARK                         _______ _______ _______ _____ _____    ______ ____
ROOT
ATOM      1  C   UNL     1       6.871   5.997  17.368  0.00  0.00    +0.000 A 
ATOM      2  C   UNL     1       7.729   6.030  18.446  0.00  0.00    +0.000 A 
ATOM      3  C   UNL     1       8.275   7.257  18.814  0.00  0.00    +0.000 A 
ATOM      4  C   UNL     1       7.933   8.402  18.099  0.00  0.00    +0.000 A 
ATOM      5  N   UNL     1       7.035   8.323  17.084  0.00  0.00    +0.000 NA
ATOM      6  N   UNL     1       6.496   7.116  16.717  0.00  0.00    +0.000 NA
ENDROOT
BRANCH   4   7
ATOM      7  C   UNL     1       8.533   9.729  18.347  0.00  0.00    +0.000 A 
ATOM      8  C   UNL     1       8.261  10.832  17.531  0.00  0.00    +0.000 A 
ATOM      9  C   UNL     1       8.895  12.048  17.781  0.00  0.00    +0.000 A 
ATOM     10  C   UNL     1       9.787  12.143  18.838  0.00  0.00    +0.000 A 
ATOM     11  C   UNL     1      10.005  11.015  19.609  0.00  0.00    +0.000 A 
ATOM     12  N   UNL     1       9.403   9.823  19.391  0.00  0.00    +0.000 NA
ENDBRANCH   4   7
BRANCH   1  13
ATOM     13  O   UNL     1       6.421   4.765  16.945  0.00  0.00    +0.000 OA
BRANCH  13  14
ATOM     14  C   UNL     1       5.475   4.193  17.859  0.00  0.00    +0.000 C 
BRANCH  14  15
ATOM     15  C   UNL     1       4.075   4.383  17.276  0.00  0.00    +0.000 C 
BRANCH  15  23
ATOM     16  F   UNL     1       3.166   1.741  17.510  0.00  0.00    +0.000 F 
ATOM     17  C   UNL     1       2.579   2.650  18.301  0.00  0.00    +0.000 A 
ATOM     18  C   UNL     1       1.572   2.224  19.166  0.00  0.00    +0.000 A 
ATOM     19  C   UNL     1       0.950   3.140  20.008  0.00  0.00    +0.000 A 
ATOM     20  C   UNL     1       1.348   4.476  19.982  0.00  0.00    +0.000 A 
ATOM     21  C   UNL     1       2.361   4.897  19.108  0.00  0.00    +0.000 A 
ATOM     22 CL   UNL     1       2.802   6.568  19.151  0.00  0.00    +0.000 Cl
ATOM     23  C   UNL     1       2.985   3.988  18.241  0.00  0.00    +0.000 A 
ENDBRANCH  15  23
ENDBRANCH  14  15
ENDBRANCH  13  14
ENDBRANCH   1  13
TORSDOF 5
ENDMDL
MODEL 4
REMARK VINA RESULT:      -7.7      4.625      8.470
REMARK  Name = 
REMARK  5 active torsions:
REMARK  status: ('A' for Active; 'I' for Inactive)
REMARK    1  A    between atoms: C_8  and  C_9
REMARK    2  A    between atoms: C_9  and  C_10
REMARK    3  A    between atoms: C_10  and  O_11
REMARK    4  A    between atoms: O_11  and  C_12
REMARK    5  A    between atoms: C_15  and  C_16
REMARK                            x       y       z     vdW  Elec       q    Type
REMARK                         _______ _______ _______ _____ _____    ______ ____
ROOT
ATOM      1  C   UNL     1       4.249   2.632  18.381  0.00  0.00    +0.000 A 
ATOM      2  C   UNL     1       4.352   3.186  17.123  0.00  0.00    +0.000 A 
ATOM      3  C   UNL     1       5.176   4.297  16.961  0.00  0.00    +0.000 A 
ATOM      4  C   UNL     1       5.872   4.801  18.057  0.00  0.00    +0.000 A 
ATOM      5  N   UNL     1       5.782   4.179  19.260  0.00  0.00    +0.000 NA
ATOM      6  N   UNL     1       4.970   3.086  19.425  0.00  0.00    +0.000 NA
ENDROOT
BRANCH   4   7
ATOM      7  C   UNL     1       6.691   6.030  18.009  0.00  0.00    +0.000 A 
ATOM      8  C   UNL     1       7.760   6.246  18.884  0.00  0.00    +0.000 A 
ATOM      9  C   UNL     1       8.466   7.446  18.828  0.00  0.00    +0.000 A 
ATOM     10  C   UNL     1       8.094   8.409  17.903  0.00  0.00    +0.000 A 
ATOM     11  C   UNL     1       7.030   8.129  17.064  0.00  0.00    +0.000 A 
ATOM     12  N   UNL     1       6.328   6.973  17.094  0.00  0.00    +0.000 NA
ENDBRANCH   4   7
BRANCH   1  13
ATOM     13  O   UNL     1       3.350   1.602  18.555  0.00  0.00    +0.000 OA
BRANCH  13  14
ATOM     14  C   UNL     1       2.143   1.806  17.807  0.00  0.00    +0.000 C 
BRANCH  14  15
ATOM     15  C   UNL     1       1.090   2.384  18.751  0.00  0.00    +0.000 C 
BRANCH  15  23
ATOM     16  F   UNL     1       1.333   4.619  17.077  0.00  0.00    +0.000 F 
ATOM     17  C   UNL     1       1.571   4.817  18.381  0.00  0.00    +0.000 A 
ATOM     18  C   UNL     1       1.920   6.099  18.803  0.00  0.00    +0.000 A 
ATOM     19  C   UNL     1       2.163   6.341  20.151  0.00  0.00    +0.000 A 
ATOM     20  C   UNL     1       2.046   5.297  21.067  0.00  0.00    +0.000 A 
ATOM     21  C   UNL     1       1.696   4.010  20.635  0.00  0.00    +0.000 A 
ATOM     22 CL   UNL     1       1.558   2.777  21.839  0.00  0.00    +0.000 Cl
ATOM     23  C   UNL     1       1.465   3.747  19.277  0.00  0.00    +0.000 A 
ENDBRANCH  15  23
ENDBRANCH  14  15
ENDBRANCH  13  14
ENDBRANCH   1  13
TORSDOF 5
ENDMDL
MODEL 5
REMARK VINA RESULT:      -7.7      6.116      8.675
REMARK  Name = 
REMARK  5 active torsions:
REMARK  status: ('A' for Active; 'I' for Inactive)
REMARK    1  A    between atoms: C_8  and  C_9
REMARK    2  A    between atoms: C_9  and  C_10
REMARK    3  A    between atoms: C_10  and  O_11
REMARK    4  A    between atoms: O_11  and  C_12
REMARK    5  A    between atoms: C_15  and  C_16
REMARK                            x       y       z     vdW  Elec       q    Type
REMARK                         _______ _______ _______ _____ _____    ______ ____
ROOT
ATOM      1  C   UNL     1       4.550   5.388  18.134  0.00  0.00    +0.000 A 
ATOM      2  C   UNL     1       4.734   6.493  17.331  0.00  0.00    +0.000 A 
ATOM      3  C   UNL     1       5.232   6.295  16.046  0.00  0.00    +0.000 A 
ATOM      4  C   UNL     1       5.513   5.002  15.611  0.00  0.00    +0.000 A 
ATOM      5  N   UNL     1       5.255   3.944  16.422  0.00  0.00    +0.000 NA
ATOM      6  N   UNL     1       4.767   4.135  17.689  0.00  0.00    +0.000 NA
ENDROOT
BRANCH   4   7
ATOM      7  C   UNL     1       6.136   4.697  14.306  0.00  0.00    +0.000 A 
ATOM      8  C   UNL     1       5.643   3.696  13.464  0.00  0.00    +0.000 A 
ATOM      9  C   UNL     1       6.300   3.416  12.267  0.00  0.00    +0.000 A 
ATOM     10  C   UNL     1       7.436   4.137  11.932  0.00  0.00    +0.000 A 
ATOM     11  C   UNL     1       7.866   5.117  12.809  0.00  0.00    +0.000 A 
ATOM     12  N   UNL     1       7.248   5.412  13.976  0.00  0.00    +0.000 NA
ENDBRANCH   4   7
BRANCH   1  13
ATOM     13  O   UNL     1       4.160   5.603  19.439  0.00  0.00    +0.000 OA
BRANCH  13  14
ATOM     14  C   UNL     1       3.104   6.570  19.535  0.00  0.00    +0.000 C 
BRANCH  14  15
ATOM     15  C   UNL     1       1.940   5.930  20.289  0.00  0.00    +0.000 C 
BRANCH  15  23
ATOM     16  F   UNL     1       2.360   3.996  22.275  0.00  0.00    +0.000 F 
ATOM     17  C   UNL     1       2.037   3.544  21.055  0.00  0.00    +0.000 A 
ATOM     18  C   UNL     1       1.940   2.166  20.864  0.00  0.00    +0.000 A 
ATOM     19  C   UNL     1       1.597   1.664  19.613  0.00  0.00    +0.000 A 
ATOM     20  C   UNL     1       1.347   2.548  18.564  0.00  0.00    +0.000 A 
ATOM     21  C   UNL     1       1.448   3.932  18.764  0.00  0.00    +0.000 A 
ATOM     22 CL   UNL     1       1.107   4.956  17.414  0.00  0.00    +0.000 Cl
ATOM     23  C   UNL     1       1.810   4.452  20.015  0.00  0.00    +0.000 A 
ENDBRANCH  15  23
ENDBRANCH  14  15
ENDBRANCH  13  14
ENDBRANCH   1  13
TORSDOF 5
ENDMDL
MODEL 6
REMARK VINA RESULT:      -7.6      6.507      9.486
REMARK  Name = 
REMARK  5 active torsions:
REMARK  status: ('A' for Active; 'I' for Inactive)
REMARK    1  A    between atoms: C_8  and  C_9
REMARK    2  A    between atoms: C_9  and  C_10
REMARK    3  A    between atoms: C_10  and  O_11
REMARK    4  A    between atoms: O_11  and  C_12
REMARK    5  A    between atoms: C_15  and  C_16
REMARK                            x       y       z     vdW  Elec       q    Type
REMARK                         _______ _______ _______ _____ _____    ______ ____
ROOT
ATOM      1  C   UNL     1       2.472   7.916  18.294  0.00  0.00    +0.000 A 
ATOM      2  C   UNL     1       2.326   7.322  19.530  0.00  0.00    +0.000 A 
ATOM      3  C   UNL     1       1.565   7.983  20.491  0.00  0.00    +0.000 A 
ATOM      4  C   UNL     1       0.970   9.202  20.175  0.00  0.00    +0.000 A 
ATOM      5  N   UNL     1       1.095   9.711  18.922  0.00  0.00    +0.000 NA
ATOM      6  N   UNL     1       1.845   9.065  17.974  0.00  0.00    +0.000 NA
ENDROOT
BRANCH   4   7
ATOM      7  C   UNL     1       0.229  10.026  21.152  0.00  0.00    +0.000 A 
ATOM      8  C   UNL     1      -0.193   9.517  22.384  0.00  0.00    +0.000 A 
ATOM      9  C   UNL     1      -0.933  10.324  23.247  0.00  0.00    +0.000 A 
ATOM     10  C   UNL     1      -1.239  11.621  22.865  0.00  0.00    +0.000 A 
ATOM     11  C   UNL     1      -0.786  12.062  21.635  0.00  0.00    +0.000 A 
ATOM     12  N   UNL     1      -0.064  11.303  20.779  0.00  0.00    +0.000 NA
ENDBRANCH   4   7
BRANCH   1  13
ATOM     13  O   UNL     1       3.313   7.309  17.387  0.00  0.00    +0.000 OA
BRANCH  13  14
ATOM     14  C   UNL     1       4.086   6.258  17.985  0.00  0.00    +0.000 C 
BRANCH  14  15
ATOM     15  C   UNL     1       3.676   4.937  17.338  0.00  0.00    +0.000 C 
BRANCH  15  23
ATOM     16  F   UNL     1       0.897   4.607  17.170  0.00  0.00    +0.000 F 
ATOM     17  C   UNL     1       1.525   3.925  18.138  0.00  0.00    +0.000 A 
ATOM     18  C   UNL     1       0.762   3.118  18.981  0.00  0.00    +0.000 A 
ATOM     19  C   UNL     1       1.384   2.390  19.989  0.00  0.00    +0.000 A 
ATOM     20  C   UNL     1       2.768   2.470  20.141  0.00  0.00    +0.000 A 
ATOM     21  C   UNL     1       3.528   3.286  19.290  0.00  0.00    +0.000 A 
ATOM     22 CL   UNL     1       5.238   3.316  19.537  0.00  0.00    +0.000 Cl
ATOM     23  C   UNL     1       2.913   4.039  18.280  0.00  0.00    +0.000 A 
ENDBRANCH  15  23
ENDBRANCH  14  15
ENDBRANCH  13  14
ENDBRANCH   1  13
TORSDOF 5
ENDMDL
MODEL 7
REMARK VINA RESULT:      -7.6      5.994      8.497
REMARK  Name = 
REMARK  5 active torsions:
REMARK  status: ('A' for Active; 'I' for Inactive)
REMARK    1  A    between atoms: C_8  and  C_9
REMARK    2  A    between atoms: C_9  and  C_10
REMARK    3  A    between atoms: C_10  and  O_11
REMARK    4  A    between atoms: O_11  and  C_12
REMARK    5  A    between atoms: C_15  and  C_16
REMARK                            x       y       z     vdW  Elec       q    Type
REMARK                         _______ _______ _______ _____ _____    ______ ____
ROOT
ATOM      1  C   UNL     1       4.649   5.511  18.219  0.00  0.00    +0.000 A 
ATOM      2  C   UNL     1       4.590   6.553  17.318  0.00  0.00    +0.000 A 
ATOM      3  C   UNL     1       5.076   6.337  16.031  0.00  0.00    +0.000 A 
ATOM      4  C   UNL     1       5.588   5.087  15.693  0.00  0.00    +0.000 A 
ATOM      5  N   UNL     1       5.565   4.077  16.601  0.00  0.00    +0.000 NA
ATOM      6  N   UNL     1       5.090   4.287  17.869  0.00  0.00    +0.000 NA
ENDROOT
BRANCH   4   7
ATOM      7  C   UNL     1       6.216   4.788  14.389  0.00  0.00    +0.000 A 
ATOM      8  C   UNL     1       5.695   3.829  13.515  0.00  0.00    +0.000 A 
ATOM      9  C   UNL     1       6.356   3.552  12.321  0.00  0.00    +0.000 A 
ATOM     10  C   UNL     1       7.525   4.234  12.019  0.00  0.00    +0.000 A 
ATOM     11  C   UNL     1       7.982   5.174  12.925  0.00  0.00    +0.000 A 
ATOM     12  N   UNL     1       7.360   5.465  14.091  0.00  0.00    +0.000 NA
ENDBRANCH   4   7
BRANCH   1  13
ATOM     13  O   UNL     1       4.266   5.765  19.519  0.00  0.00    +0.000 OA
BRANCH  13  14
ATOM     14  C   UNL     1       3.133   6.642  19.586  0.00  0.00    +0.000 C 
BRANCH  14  15
ATOM     15  C   UNL     1       1.984   5.886  20.251  0.00  0.00    +0.000 C 
BRANCH  15  23
ATOM     16  F   UNL     1       1.420   5.442  17.541  0.00  0.00    +0.000 F 
ATOM     17  C   UNL     1       1.511   4.356  18.321  0.00  0.00    +0.000 A 
ATOM     18  C   UNL     1       1.316   3.104  17.738  0.00  0.00    +0.000 A 
ATOM     19  C   UNL     1       1.414   1.957  18.518  0.00  0.00    +0.000 A 
ATOM     20  C   UNL     1       1.713   2.072  19.875  0.00  0.00    +0.000 A 
ATOM     21  C   UNL     1       1.905   3.334  20.454  0.00  0.00    +0.000 A 
ATOM     22 CL   UNL     1       2.286   3.385  22.139  0.00  0.00    +0.000 Cl
ATOM     23  C   UNL     1       1.793   4.501  19.684  0.00  0.00    +0.000 A 
ENDBRANCH  15  23
ENDBRANCH  14  15
ENDBRANCH  13  14
ENDBRANCH   1  13
TORSDOF 5
ENDMDL
MODEL 8
REMARK VINA RESULT:      -7.6      5.880      8.329
REMARK  Name = 
REMARK  5 active torsions:
REMARK  status: ('A' for Active; 'I' for Inactive)
REMARK    1  A    between atoms: C_8  and  C_9
REMARK    2  A    between atoms: C_9  and  C_10
REMARK    3  A    between atoms: C_10  and  O_11
REMARK    4  A    between atoms: O_11  and  C_12
REMARK    5  A    between atoms: C_15  and  C_16
REMARK                            x       y       z     vdW  Elec       q    Type
REMARK                         _______ _______ _______ _____ _____    ______ ____
ROOT
ATOM      1  C   UNL     1       2.513   6.828  19.144  0.00  0.00    +0.000 A 
ATOM      2  C   UNL     1       2.694   7.461  17.933  0.00  0.00    +0.000 A 
ATOM      3  C   UNL     1       2.142   8.728  17.766  0.00  0.00    +0.000 A 
ATOM      4  C   UNL     1       1.445   9.317  18.818  0.00  0.00    +0.000 A 
ATOM      5  N   UNL     1       1.351   8.674  20.010  0.00  0.00    +0.000 NA
ATOM      6  N   UNL     1       1.890   7.425  20.178  0.00  0.00    +0.000 NA
ENDROOT
BRANCH   4   7
ATOM      7  C   UNL     1       0.741  10.611  18.708  0.00  0.00    +0.000 A 
ATOM      8  C   UNL     1      -0.636  10.690  18.475  0.00  0.00    +0.000 A 
ATOM      9  C   UNL     1      -1.240  11.938  18.330  0.00  0.00    +0.000 A 
ATOM     10  C   UNL     1      -0.462  13.082  18.417  0.00  0.00    +0.000 A 
ATOM     11  C   UNL     1       0.892  12.932  18.655  0.00  0.00    +0.000 A 
ATOM     12  N   UNL     1       1.506  11.735  18.802  0.00  0.00    +0.000 NA
ENDBRANCH   4   7
BRANCH   1  13
ATOM     13  O   UNL     1       2.969   5.532  19.263  0.00  0.00    +0.000 OA
BRANCH  13  14
ATOM     14  C   UNL     1       4.374   5.478  19.550  0.00  0.00    +0.000 C 
BRANCH  14  15
ATOM     15  C   UNL     1       4.934   4.193  18.942  0.00  0.00    +0.000 C 
BRANCH  15  23
ATOM     16  F   UNL     1       3.495   3.644  16.601  0.00  0.00    +0.000 F 
ATOM     17  C   UNL     1       4.742   4.108  16.443  0.00  0.00    +0.000 A 
ATOM     18  C   UNL     1       5.227   4.276  15.147  0.00  0.00    +0.000 A 
ATOM     19  C   UNL     1       6.514   4.765  14.948  0.00  0.00    +0.000 A 
ATOM     20  C   UNL     1       7.303   5.088  16.051  0.00  0.00    +0.000 A 
ATOM     21  C   UNL     1       6.809   4.915  17.352  0.00  0.00    +0.000 A 
ATOM     22 CL   UNL     1       7.847   5.354  18.662  0.00  0.00    +0.000 Cl
ATOM     23  C   UNL     1       5.519   4.407  17.568  0.00  0.00    +0.000 A 
ENDBRANCH  15  23
ENDBRANCH  14  15
ENDBRANCH  13  14
ENDBRANCH   1  13
TORSDOF 5
ENDMDL
MODEL 9
REMARK VINA RESULT:      -7.5      1.151      1.281
REMARK  Name = 
REMARK  5 active torsions:
REMARK  status: ('A' for Active; 'I' for Inactive)
REMARK    1  A    between atoms: C_8  and  C_9
REMARK    2  A    between atoms: C_9  and  C_10
REMARK    3  A    between atoms: C_10  and  O_11
REMARK    4  A    between atoms: O_11  and  C_12
REMARK    5  A    between atoms: C_15  and  C_16
REMARK                            x       y       z     vdW  Elec       q    Type
REMARK                         _______ _______ _______ _____ _____    ______ ____
ROOT
ATOM      1  C   UNL     1       7.513   7.321  17.801  0.00  0.00    +0.000 A 
ATOM      2  C   UNL     1       6.297   7.359  17.152  0.00  0.00    +0.000 A 
ATOM      3  C   UNL     1       5.412   6.303  17.354  0.00  0.00    +0.000 A 
ATOM      4  C   UNL     1       5.772   5.260  18.204  0.00  0.00    +0.000 A 
ATOM      5  N   UNL     1       6.956   5.304  18.865  0.00  0.00    +0.000 NA
ATOM      6  N   UNL     1       7.831   6.340  18.668  0.00  0.00    +0.000 NA
ENDROOT
BRANCH   4   7
ATOM      7  C   UNL     1       4.947   4.050  18.405  0.00  0.00    +0.000 A 
ATOM      8  C   UNL     1       4.016   3.620  17.455  0.00  0.00    +0.000 A 
ATOM      9  C   UNL     1       3.229   2.500  17.719  0.00  0.00    +0.000 A 
ATOM     10  C   UNL     1       3.383   1.832  18.924  0.00  0.00    +0.000 A 
ATOM     11  C   UNL     1       4.327   2.308  19.816  0.00  0.00    +0.000 A 
ATOM     12  N   UNL     1       5.106   3.390  19.586  0.00  0.00    +0.000 NA
ENDBRANCH   4   7
BRANCH   1  13
ATOM     13  O   UNL     1       8.424   8.315  17.512  0.00  0.00    +0.000 OA
BRANCH  13  14
ATOM     14  C   UNL     1       8.147   9.526  18.229  0.00  0.00    +0.000 C 
BRANCH  14  15
ATOM     15  C   UNL     1       9.246   9.725  19.271  0.00  0.00    +0.000 C 
BRANCH  15  23
ATOM     16  F   UNL     1      10.650  10.971  17.189  0.00  0.00    +0.000 F 
ATOM     17  C   UNL     1      10.412  11.712  18.281  0.00  0.00    +0.000 A 
ATOM     18  C   UNL     1      10.877  13.027  18.303  0.00  0.00    +0.000 A 
ATOM     19  C   UNL     1      10.638  13.825  19.416  0.00  0.00    +0.000 A 
ATOM     20  C   UNL     1       9.929  13.303  20.496  0.00  0.00    +0.000 A 
ATOM     21  C   UNL     1       9.466  11.979  20.467  0.00  0.00    +0.000 A 
ATOM     22 CL   UNL     1       8.582  11.416  21.842  0.00  0.00    +0.000 Cl
ATOM     23  C   UNL     1       9.714  11.156  19.358  0.00  0.00    +0.000 A 
ENDBRANCH  15  23
ENDBRANCH  14  15
ENDBRANCH  13  14
ENDBRANCH   1  13
TORSDOF 5
ENDMDL
