MODEL 1
REMARK VINA RESULT:      -8.3      0.000      0.000
REMARK  Name = 
REMARK  6 active torsions:
REMARK  status: ('A' for Active; 'I' for Inactive)
REMARK    1  A    between atoms: C_1  and  C_2
REMARK    2  A    between atoms: C_2  and  C_3
REMARK    3  A    between atoms: N_11  and  C_12
REMARK    4  A    between atoms: C_12  and  C_13
REMARK    5  A    between atoms: C_17  and  C_18
REMARK    6  A    between atoms: C_20  and  C_21
REMARK                            x       y       z     vdW  Elec       q    Type
REMARK                         _______ _______ _______ _____ _____    ______ ____
ROOT
ATOM      1  C   UNL     1       4.862   4.753  17.066  0.00  0.00    +0.000 C 
ATOM      2  O   UNL     1       3.916   3.708  16.847  0.00  0.00    +0.000 OA
ATOM      3  C   UNL     1       2.909   3.663  17.776  0.00  0.00    +0.000 A 
ATOM      4  C   UNL     1       2.203   2.459  17.838  0.00  0.00    +0.000 A 
ATOM      5  C   UNL     1       1.168   2.300  18.754  0.00  0.00    +0.000 A 
ATOM      6  C   UNL     1       0.841   3.346  19.613  0.00  0.00    +0.000 A 
ATOM      7  C   UNL     1       1.535   4.558  19.540  0.00  0.00    +0.000 A 
ATOM      8  C   UNL     1       2.569   4.738  18.610  0.00  0.00    +0.000 A 
ATOM      9  N   UNL     1       3.244   5.978  18.450  0.00  0.00    +0.000 N 
ATOM     10  C   UNL     1       4.265   6.089  17.518  0.00  0.00    +0.000 C 
ATOM     11  O   UNL     1       4.771   7.163  17.181  0.00  0.00    +0.000 OA
ENDROOT
BRANCH   1  13
ATOM     12  C   UNL     1       7.360   4.681  17.717  0.00  0.00    +0.000 C 
ATOM     13  C   UNL     1       5.938   4.253  18.053  0.00  0.00    +0.000 C 
ENDBRANCH   1  13
BRANCH   9  14
ATOM     14  C   UNL     1       2.883   7.155  19.223  0.00  0.00    +0.000 C 
BRANCH  14  15
ATOM     15  C   UNL     1       2.159   8.297  18.485  0.00  0.00    +0.000 C 
ATOM     16  O   UNL     1       2.352   8.548  17.299  0.00  0.00    +0.000 OA
ATOM     17  N   UNL     1       1.224   9.002  19.265  0.00  0.00    +0.000 N 
ATOM     18  C   UNL     1       0.434  10.052  18.622  0.00  0.00    +0.000 C 
ATOM     19  C   UNL     1      -0.957  10.163  19.264  0.00  0.00    +0.000 C 
ATOM     20  C   UNL     1      -1.768  11.293  18.635  0.00  0.00    +0.000 C 
ATOM     21  C   UNL     1      -0.839  10.364  20.782  0.00  0.00    +0.000 C 
ATOM     22  C   UNL     1       0.004   9.251  21.417  0.00  0.00    +0.000 C 
ATOM     23  C   UNL     1       0.220   9.503  22.907  0.00  0.00    +0.000 C 
ATOM     24  C   UNL     1       1.357   9.124  20.715  0.00  0.00    +0.000 C 
ENDBRANCH  14  15
ENDBRANCH   9  14
TORSDOF 3
ENDMDL
MODEL 2
REMARK VINA RESULT:      -7.5      2.795      7.713
REMARK  Name = 
REMARK  6 active torsions:
REMARK  status: ('A' for Active; 'I' for Inactive)
REMARK    1  A    between atoms: C_1  and  C_2
REMARK    2  A    between atoms: C_2  and  C_3
REMARK    3  A    between atoms: N_11  and  C_12
REMARK    4  A    between atoms: C_12  and  C_13
REMARK    5  A    between atoms: C_17  and  C_18
REMARK    6  A    between atoms: C_20  and  C_21
REMARK                            x       y       z     vdW  Elec       q    Type
REMARK                         _______ _______ _______ _____ _____    ______ ____
ROOT
ATOM      1  C   UNL     1      -0.433  13.008  20.347  0.00  0.00    +0.000 C 
ATOM      2  O   UNL     1      -1.770  12.763  19.913  0.00  0.00    +0.000 OA
ATOM      3  C   UNL     1      -1.882  11.747  19.000  0.00  0.00    +0.000 A 
ATOM      4  C   UNL     1      -3.071  11.726  18.267  0.00  0.00    +0.000 A 
ATOM      5  C   UNL     1      -3.284  10.745  17.304  0.00  0.00    +0.000 A 
ATOM      6  C   UNL     1      -2.305   9.783  17.071  0.00  0.00    +0.000 A 
ATOM      7  C   UNL     1      -1.122   9.791  17.816  0.00  0.00    +0.000 A 
ATOM      8  C   UNL     1      -0.900  10.764  18.801  0.00  0.00    +0.000 A 
ATOM      9  N   UNL     1       0.252  10.760  19.633  0.00  0.00    +0.000 N 
ATOM     10  C   UNL     1       0.416  11.757  20.584  0.00  0.00    +0.000 C 
ATOM     11  O   UNL     1       1.278  11.725  21.466  0.00  0.00    +0.000 OA
ENDROOT
BRANCH   1  13
ATOM     12  C   UNL     1      -0.421  15.334  19.225  0.00  0.00    +0.000 C 
ATOM     13  C   UNL     1       0.246  13.971  19.349  0.00  0.00    +0.000 C 
ENDBRANCH   1  13
BRANCH   9  14
ATOM     14  C   UNL     1       1.266   9.722  19.537  0.00  0.00    +0.000 C 
BRANCH  14  15
ATOM     15  C   UNL     1       1.147   8.521  20.494  0.00  0.00    +0.000 C 
ATOM     16  O   UNL     1       0.575   8.590  21.578  0.00  0.00    +0.000 OA
ATOM     17  N   UNL     1       1.707   7.324  20.008  0.00  0.00    +0.000 N 
ATOM     18  C   UNL     1       1.571   6.115  20.818  0.00  0.00    +0.000 C 
ATOM     19  C   UNL     1       1.487   4.865  19.928  0.00  0.00    +0.000 C 
ATOM     20  C   UNL     1       1.399   3.593  20.768  0.00  0.00    +0.000 C 
ATOM     21  C   UNL     1       2.687   4.799  18.973  0.00  0.00    +0.000 C 
ATOM     22  C   UNL     1       2.802   6.088  18.150  0.00  0.00    +0.000 C 
ATOM     23  C   UNL     1       4.056   6.077  17.278  0.00  0.00    +0.000 C 
ATOM     24  C   UNL     1       2.820   7.317  19.061  0.00  0.00    +0.000 C 
ENDBRANCH  14  15
ENDBRANCH   9  14
TORSDOF 3
ENDMDL
MODEL 3
REMARK VINA RESULT:      -7.4      1.848      7.176
REMARK  Name = 
REMARK  6 active torsions:
REMARK  status: ('A' for Active; 'I' for Inactive)
REMARK    1  A    between atoms: C_1  and  C_2
REMARK    2  A    between atoms: C_2  and  C_3
REMARK    3  A    between atoms: N_11  and  C_12
REMARK    4  A    between atoms: C_12  and  C_13
REMARK    5  A    between atoms: C_17  and  C_18
REMARK    6  A    between atoms: C_20  and  C_21
REMARK                            x       y       z     vdW  Elec       q    Type
REMARK                         _______ _______ _______ _____ _____    ______ ____
ROOT
ATOM      1  C   UNL     1      -0.365  10.603  18.390  0.00  0.00    +0.000 C 
ATOM      2  O   UNL     1      -0.747  11.401  19.509  0.00  0.00    +0.000 OA
ATOM      3  C   UNL     1      -0.495  10.816  20.723  0.00  0.00    +0.000 A 
ATOM      4  C   UNL     1      -1.187  11.361  21.807  0.00  0.00    +0.000 A 
ATOM      5  C   UNL     1      -1.015  10.836  23.084  0.00  0.00    +0.000 A 
ATOM      6  C   UNL     1      -0.153   9.760  23.277  0.00  0.00    +0.000 A 
ATOM      7  C   UNL     1       0.554   9.224  22.196  0.00  0.00    +0.000 A 
ATOM      8  C   UNL     1       0.404   9.755  20.907  0.00  0.00    +0.000 A 
ATOM      9  N   UNL     1       1.163   9.292  19.798  0.00  0.00    +0.000 N 
ATOM     10  C   UNL     1       0.961   9.853  18.545  0.00  0.00    +0.000 C 
ATOM     11  O   UNL     1       1.698   9.649  17.578  0.00  0.00    +0.000 OA
ENDROOT
BRANCH   1  13
ATOM     12  C   UNL     1      -2.204   9.911  16.714  0.00  0.00    +0.000 C 
ATOM     13  C   UNL     1      -1.522   9.639  18.048  0.00  0.00    +0.000 C 
ENDBRANCH   1  13
BRANCH   9  14
ATOM     14  C   UNL     1       2.172   8.254  19.936  0.00  0.00    +0.000 C 
BRANCH  14  15
ATOM     15  C   UNL     1       1.684   6.822  20.223  0.00  0.00    +0.000 C 
ATOM     16  O   UNL     1       0.847   6.566  21.084  0.00  0.00    +0.000 OA
ATOM     17  N   UNL     1       2.240   5.833  19.390  0.00  0.00    +0.000 N 
ATOM     18  C   UNL     1       1.775   4.455  19.542  0.00  0.00    +0.000 C 
ATOM     19  C   UNL     1       1.820   3.710  18.199  0.00  0.00    +0.000 C 
ATOM     20  C   UNL     1       1.387   2.255  18.358  0.00  0.00    +0.000 C 
ATOM     21  C   UNL     1       3.225   3.790  17.582  0.00  0.00    +0.000 C 
ATOM     22  C   UNL     1       3.681   5.249  17.450  0.00  0.00    +0.000 C 
ATOM     23  C   UNL     1       5.118   5.335  16.942  0.00  0.00    +0.000 C 
ATOM     24  C   UNL     1       3.564   5.980  18.789  0.00  0.00    +0.000 C 
ENDBRANCH  14  15
ENDBRANCH   9  14
TORSDOF 3
ENDMDL
MODEL 4
REMARK VINA RESULT:      -7.2      1.665      1.876
REMARK  Name = 
REMARK  6 active torsions:
REMARK  status: ('A' for Active; 'I' for Inactive)
REMARK    1  A    between atoms: C_1  and  C_2
REMARK    2  A    between atoms: C_2  and  C_3
REMARK    3  A    between atoms: N_11  and  C_12
REMARK    4  A    between atoms: C_12  and  C_13
REMARK    5  A    between atoms: C_17  and  C_18
REMARK    6  A    between atoms: C_20  and  C_21
REMARK                            x       y       z     vdW  Elec       q    Type
REMARK                         _______ _______ _______ _____ _____    ______ ____
ROOT
ATOM      1  C   UNL     1       5.482   4.455  18.384  0.00  0.00    +0.000 C 
ATOM      2  O   UNL     1       5.075   3.322  19.149  0.00  0.00    +0.000 OA
ATOM      3  C   UNL     1       3.876   3.486  19.794  0.00  0.00    +0.000 A 
ATOM      4  C   UNL     1       3.629   2.592  20.838  0.00  0.00    +0.000 A 
ATOM      5  C   UNL     1       2.448   2.676  21.568  0.00  0.00    +0.000 A 
ATOM      6  C   UNL     1       1.512   3.659  21.256  0.00  0.00    +0.000 A 
ATOM      7  C   UNL     1       1.750   4.543  20.199  0.00  0.00    +0.000 A 
ATOM      8  C   UNL     1       2.929   4.459  19.444  0.00  0.00    +0.000 A 
ATOM      9  N   UNL     1       3.171   5.286  18.313  0.00  0.00    +0.000 N 
ATOM     10  C   UNL     1       4.362   5.159  17.613  0.00  0.00    +0.000 C 
ATOM     11  O   UNL     1       4.574   5.694  16.522  0.00  0.00    +0.000 OA
ENDROOT
BRANCH   1  13
ATOM     12  C   UNL     1       7.681   5.702  18.918  0.00  0.00    +0.000 C 
ATOM     13  C   UNL     1       6.234   5.437  19.310  0.00  0.00    +0.000 C 
ENDBRANCH   1  13
BRANCH   9  14
ATOM     14  C   UNL     1       2.194   6.256  17.846  0.00  0.00    +0.000 C 
BRANCH  14  15
ATOM     15  C   UNL     1       2.654   7.719  17.706  0.00  0.00    +0.000 C 
ATOM     16  O   UNL     1       3.469   8.080  16.863  0.00  0.00    +0.000 OA
ATOM     17  N   UNL     1       2.031   8.618  18.592  0.00  0.00    +0.000 N 
ATOM     18  C   UNL     1       2.351  10.041  18.476  0.00  0.00    +0.000 C 
ATOM     19  C   UNL     1       1.146  10.907  18.872  0.00  0.00    +0.000 C 
ATOM     20  C   UNL     1       1.489  12.394  18.806  0.00  0.00    +0.000 C 
ATOM     21  C   UNL     1       0.646  10.532  20.274  0.00  0.00    +0.000 C 
ATOM     22  C   UNL     1       0.332   9.033  20.358  0.00  0.00    +0.000 C 
ATOM     23  C   UNL     1      -0.060   8.629  21.778  0.00  0.00    +0.000 C 
ATOM     24  C   UNL     1       1.529   8.198  19.898  0.00  0.00    +0.000 C 
ENDBRANCH  14  15
ENDBRANCH   9  14
TORSDOF 3
ENDMDL
MODEL 5
REMARK VINA RESULT:      -7.1      2.417      7.487
REMARK  Name = 
REMARK  6 active torsions:
REMARK  status: ('A' for Active; 'I' for Inactive)
REMARK    1  A    between atoms: C_1  and  C_2
REMARK    2  A    between atoms: C_2  and  C_3
REMARK    3  A    between atoms: N_11  and  C_12
REMARK    4  A    between atoms: C_12  and  C_13
REMARK    5  A    between atoms: C_17  and  C_18
REMARK    6  A    between atoms: C_20  and  C_21
REMARK                            x       y       z     vdW  Elec       q    Type
REMARK                         _______ _______ _______ _____ _____    ______ ____
ROOT
ATOM      1  C   UNL     1       0.026  12.735  20.163  0.00  0.00    +0.000 C 
ATOM      2  O   UNL     1      -1.320  12.744  19.690  0.00  0.00    +0.000 OA
ATOM      3  C   UNL     1      -1.611  11.731  18.814  0.00  0.00    +0.000 A 
ATOM      4  C   UNL     1      -2.759  11.918  18.040  0.00  0.00    +0.000 A 
ATOM      5  C   UNL     1      -3.139  10.956  17.109  0.00  0.00    +0.000 A 
ATOM      6  C   UNL     1      -2.369   9.808  16.948  0.00  0.00    +0.000 A 
ATOM      7  C   UNL     1      -1.230   9.612  17.734  0.00  0.00    +0.000 A 
ATOM      8  C   UNL     1      -0.843  10.564  18.689  0.00  0.00    +0.000 A 
ATOM      9  N   UNL     1       0.261  10.365  19.562  0.00  0.00    +0.000 N 
ATOM     10  C   UNL     1       0.598  11.350  20.478  0.00  0.00    +0.000 C 
ATOM     11  O   UNL     1       1.410  11.185  21.392  0.00  0.00    +0.000 OA
ENDROOT
BRANCH   1  13
ATOM     12  C   UNL     1       0.576  14.972  18.995  0.00  0.00    +0.000 C 
ATOM     13  C   UNL     1       0.913  13.496  19.154  0.00  0.00    +0.000 C 
ENDBRANCH   1  13
BRANCH   9  14
ATOM     14  C   UNL     1       1.046   9.141  19.542  0.00  0.00    +0.000 C 
BRANCH  14  15
ATOM     15  C   UNL     1       1.977   8.912  18.337  0.00  0.00    +0.000 C 
ATOM     16  O   UNL     1       2.105   9.732  17.432  0.00  0.00    +0.000 OA
ATOM     17  N   UNL     1       2.706   7.709  18.377  0.00  0.00    +0.000 N 
ATOM     18  C   UNL     1       3.673   7.447  17.311  0.00  0.00    +0.000 C 
ATOM     19  C   UNL     1       4.855   6.617  17.836  0.00  0.00    +0.000 C 
ATOM     20  C   UNL     1       5.842   6.293  16.717  0.00  0.00    +0.000 C 
ATOM     21  C   UNL     1       4.357   5.328  18.506  0.00  0.00    +0.000 C 
ATOM     22  C   UNL     1       3.339   5.644  19.608  0.00  0.00    +0.000 C 
ATOM     23  C   UNL     1       2.755   4.365  20.205  0.00  0.00    +0.000 C 
ATOM     24  C   UNL     1       2.208   6.523  19.070  0.00  0.00    +0.000 C 
ENDBRANCH  14  15
ENDBRANCH   9  14
TORSDOF 3
ENDMDL
MODEL 6
REMARK VINA RESULT:      -7.1      1.792      6.920
REMARK  Name = 
REMARK  6 active torsions:
REMARK  status: ('A' for Active; 'I' for Inactive)
REMARK    1  A    between atoms: C_1  and  C_2
REMARK    2  A    between atoms: C_2  and  C_3
REMARK    3  A    between atoms: N_11  and  C_12
REMARK    4  A    between atoms: C_12  and  C_13
REMARK    5  A    between atoms: C_17  and  C_18
REMARK    6  A    between atoms: C_20  and  C_21
REMARK                            x       y       z     vdW  Elec       q    Type
REMARK                         _______ _______ _______ _____ _____    ______ ____
ROOT
ATOM      1  C   UNL     1       1.061   9.848  17.919  0.00  0.00    +0.000 C 
ATOM      2  O   UNL     1       0.749  10.720  19.004  0.00  0.00    +0.000 OA
ATOM      3  C   UNL     1       0.643  10.088  20.215  0.00  0.00    +0.000 A 
ATOM      4  C   UNL     1      -0.028  10.804  21.210  0.00  0.00    +0.000 A 
ATOM      5  C   UNL     1      -0.204  10.251  22.474  0.00  0.00    +0.000 A 
ATOM      6  C   UNL     1       0.288   8.976  22.744  0.00  0.00    +0.000 A 
ATOM      7  C   UNL     1       0.974   8.265  21.756  0.00  0.00    +0.000 A 
ATOM      8  C   UNL     1       1.174   8.817  20.482  0.00  0.00    +0.000 A 
ATOM      9  N   UNL     1       1.935   8.161  19.476  0.00  0.00    +0.000 N 
ATOM     10  C   UNL     1       2.088   8.756  18.233  0.00  0.00    +0.000 C 
ATOM     11  O   UNL     1       2.878   8.355  17.375  0.00  0.00    +0.000 OA
ENDROOT
BRANCH   1  13
ATOM     12  C   UNL     1      -1.476  10.138  17.530  0.00  0.00    +0.000 C 
ATOM     13  C   UNL     1      -0.252   9.247  17.371  0.00  0.00    +0.000 C 
ENDBRANCH   1  13
BRANCH   9  14
ATOM     14  C   UNL     1       2.584   6.882  19.716  0.00  0.00    +0.000 C 
BRANCH  14  15
ATOM     15  C   UNL     1       2.624   5.875  18.551  0.00  0.00    +0.000 C 
ATOM     16  O   UNL     1       1.609   5.426  18.027  0.00  0.00    +0.000 OA
ATOM     17  N   UNL     1       3.917   5.544  18.103  0.00  0.00    +0.000 N 
ATOM     18  C   UNL     1       4.046   4.655  16.950  0.00  0.00    +0.000 C 
ATOM     19  C   UNL     1       5.305   4.992  16.136  0.00  0.00    +0.000 C 
ATOM     20  C   UNL     1       5.476   4.033  14.960  0.00  0.00    +0.000 C 
ATOM     21  C   UNL     1       6.551   4.973  17.034  0.00  0.00    +0.000 C 
ATOM     22  C   UNL     1       6.372   5.908  18.236  0.00  0.00    +0.000 C 
ATOM     23  C   UNL     1       7.559   5.813  19.192  0.00  0.00    +0.000 C 
ATOM     24  C   UNL     1       5.079   5.589  18.988  0.00  0.00    +0.000 C 
ENDBRANCH  14  15
ENDBRANCH   9  14
TORSDOF 3
ENDMDL
MODEL 7
REMARK VINA RESULT:      -7.1      1.445      3.268
REMARK  Name = 
REMARK  6 active torsions:
REMARK  status: ('A' for Active; 'I' for Inactive)
REMARK    1  A    between atoms: C_1  and  C_2
REMARK    2  A    between atoms: C_2  and  C_3
REMARK    3  A    between atoms: N_11  and  C_12
REMARK    4  A    between atoms: C_12  and  C_13
REMARK    5  A    between atoms: C_17  and  C_18
REMARK    6  A    between atoms: C_20  and  C_21
REMARK                            x       y       z     vdW  Elec       q    Type
REMARK                         _______ _______ _______ _____ _____    ______ ____
ROOT
ATOM      1  C   UNL     1       2.511   4.005  19.424  0.00  0.00    +0.000 C 
ATOM      2  O   UNL     1       3.762   3.655  18.835  0.00  0.00    +0.000 OA
ATOM      3  C   UNL     1       4.322   4.653  18.081  0.00  0.00    +0.000 A 
ATOM      4  C   UNL     1       5.316   4.246  17.188  0.00  0.00    +0.000 A 
ATOM      5  C   UNL     1       5.943   5.176  16.366  0.00  0.00    +0.000 A 
ATOM      6  C   UNL     1       5.573   6.517  16.432  0.00  0.00    +0.000 A 
ATOM      7  C   UNL     1       4.591   6.929  17.338  0.00  0.00    +0.000 A 
ATOM      8  C   UNL     1       3.962   6.005  18.185  0.00  0.00    +0.000 A 
ATOM      9  N   UNL     1       3.018   6.396  19.174  0.00  0.00    +0.000 N 
ATOM     10  C   UNL     1       2.424   5.431  19.975  0.00  0.00    +0.000 C 
ATOM     11  O   UNL     1       1.747   5.693  20.972  0.00  0.00    +0.000 OA
ENDROOT
BRANCH   1  13
ATOM     12  C   UNL     1       0.692   2.379  18.575  0.00  0.00    +0.000 C 
ATOM     13  C   UNL     1       1.384   3.725  18.406  0.00  0.00    +0.000 C 
ENDBRANCH   1  13
BRANCH   9  14
ATOM     14  C   UNL     1       2.665   7.789  19.391  0.00  0.00    +0.000 C 
BRANCH  14  15
ATOM     15  C   UNL     1       1.832   8.491  18.302  0.00  0.00    +0.000 C 
ATOM     16  O   UNL     1       2.003   8.289  17.103  0.00  0.00    +0.000 OA
ATOM     17  N   UNL     1       0.828   9.348  18.790  0.00  0.00    +0.000 N 
ATOM     18  C   UNL     1      -0.061   9.996  17.826  0.00  0.00    +0.000 C 
ATOM     19  C   UNL     1      -1.458  10.210  18.427  0.00  0.00    +0.000 C 
ATOM     20  C   UNL     1      -2.377  10.935  17.446  0.00  0.00    +0.000 C 
ATOM     21  C   UNL     1      -1.365  10.984  19.751  0.00  0.00    +0.000 C 
ATOM     22  C   UNL     1      -0.417  10.280  20.729  0.00  0.00    +0.000 C 
ATOM     23  C   UNL     1      -0.231  11.098  22.005  0.00  0.00    +0.000 C 
ATOM     24  C   UNL     1       0.945  10.024  20.080  0.00  0.00    +0.000 C 
ENDBRANCH  14  15
ENDBRANCH   9  14
TORSDOF 3
ENDMDL
MODEL 8
REMARK VINA RESULT:      -7.0      1.269      2.201
REMARK  Name = 
REMARK  6 active torsions:
REMARK  status: ('A' for Active; 'I' for Inactive)
REMARK    1  A    between atoms: C_1  and  C_2
REMARK    2  A    between atoms: C_2  and  C_3
REMARK    3  A    between atoms: N_11  and  C_12
REMARK    4  A    between atoms: C_12  and  C_13
REMARK    5  A    between atoms: C_17  and  C_18
REMARK    6  A    between atoms: C_20  and  C_21
REMARK                            x       y       z     vdW  Elec       q    Type
REMARK                         _______ _______ _______ _____ _____    ______ ____
ROOT
ATOM      1  C   UNL     1       5.877   5.225  17.438  0.00  0.00    +0.000 C 
ATOM      2  O   UNL     1       5.262   4.017  16.994  0.00  0.00    +0.000 OA
ATOM      3  C   UNL     1       3.975   3.851  17.436  0.00  0.00    +0.000 A 
ATOM      4  C   UNL     1       3.478   2.548  17.362  0.00  0.00    +0.000 A 
ATOM      5  C   UNL     1       2.187   2.265  17.796  0.00  0.00    +0.000 A 
ATOM      6  C   UNL     1       1.392   3.286  18.309  0.00  0.00    +0.000 A 
ATOM      7  C   UNL     1       1.881   4.595  18.366  0.00  0.00    +0.000 A 
ATOM      8  C   UNL     1       3.174   4.898  17.916  0.00  0.00    +0.000 A 
ATOM      9  N   UNL     1       3.679   6.226  17.884  0.00  0.00    +0.000 N 
ATOM     10  C   UNL     1       4.971   6.459  17.436  0.00  0.00    +0.000 C 
ATOM     11  O   UNL     1       5.420   7.583  17.196  0.00  0.00    +0.000 OA
ENDROOT
BRANCH   1  13
ATOM     12  C   UNL     1       7.751   5.800  19.120  0.00  0.00    +0.000 C 
ATOM     13  C   UNL     1       6.499   4.984  18.831  0.00  0.00    +0.000 C 
ENDBRANCH   1  13
BRANCH   9  14
ATOM     14  C   UNL     1       2.871   7.366  18.287  0.00  0.00    +0.000 C 
BRANCH  14  15
ATOM     15  C   UNL     1       2.254   7.336  19.698  0.00  0.00    +0.000 C 
ATOM     16  O   UNL     1       2.561   6.497  20.539  0.00  0.00    +0.000 OA
ATOM     17  N   UNL     1       1.343   8.376  19.963  0.00  0.00    +0.000 N 
ATOM     18  C   UNL     1       0.768   8.470  21.304  0.00  0.00    +0.000 C 
ATOM     19  C   UNL     1       0.482   9.933  21.677  0.00  0.00    +0.000 C 
ATOM     20  C   UNL     1      -0.170  10.036  23.054  0.00  0.00    +0.000 C 
ATOM     21  C   UNL     1      -0.402  10.600  20.612  0.00  0.00    +0.000 C 
ATOM     22  C   UNL     1       0.229  10.471  19.220  0.00  0.00    +0.000 C 
ATOM     23  C   UNL     1      -0.693  11.033  18.140  0.00  0.00    +0.000 C 
ATOM     24  C   UNL     1       0.561   9.011  18.905  0.00  0.00    +0.000 C 
ENDBRANCH  14  15
ENDBRANCH   9  14
TORSDOF 3
ENDMDL
MODEL 9
REMARK VINA RESULT:      -6.9      5.000      8.195
REMARK  Name = 
REMARK  6 active torsions:
REMARK  status: ('A' for Active; 'I' for Inactive)
REMARK    1  A    between atoms: C_1  and  C_2
REMARK    2  A    between atoms: C_2  and  C_3
REMARK    3  A    between atoms: N_11  and  C_12
REMARK    4  A    between atoms: C_12  and  C_13
REMARK    5  A    between atoms: C_17  and  C_18
REMARK    6  A    between atoms: C_20  and  C_21
REMARK                            x       y       z     vdW  Elec       q    Type
REMARK                         _______ _______ _______ _____ _____    ______ ____
ROOT
ATOM      1  C   UNL     1       0.584  10.664  20.591  0.00  0.00    +0.000 C 
ATOM      2  O   UNL     1       0.447  10.292  19.221  0.00  0.00    +0.000 OA
ATOM      3  C   UNL     1      -0.793  10.545  18.695  0.00  0.00    +0.000 A 
ATOM      4  C   UNL     1      -1.097   9.861  17.516  0.00  0.00    +0.000 A 
ATOM      5  C   UNL     1      -2.335  10.036  16.904  0.00  0.00    +0.000 A 
ATOM      6  C   UNL     1      -3.272  10.893  17.474  0.00  0.00    +0.000 A 
ATOM      7  C   UNL     1      -2.963  11.592  18.645  0.00  0.00    +0.000 A 
ATOM      8  C   UNL     1      -1.714  11.439  19.264  0.00  0.00    +0.000 A 
ATOM      9  N   UNL     1      -1.332  12.190  20.408  0.00  0.00    +0.000 N 
ATOM     10  C   UNL     1      -0.084  11.986  20.979  0.00  0.00    +0.000 C 
ATOM     11  O   UNL     1       0.400  12.718  21.846  0.00  0.00    +0.000 OA
ENDROOT
BRANCH   1  13
ATOM     12  C   UNL     1       0.864   8.200  21.314  0.00  0.00    +0.000 C 
ATOM     13  C   UNL     1       0.087   9.499  21.476  0.00  0.00    +0.000 C 
ENDBRANCH   1  13
BRANCH   9  14
ATOM     14  C   UNL     1      -2.205  13.194  20.995  0.00  0.00    +0.000 C 
BRANCH  14  15
ATOM     15  C   UNL     1      -3.192  12.729  22.082  0.00  0.00    +0.000 C 
ATOM     16  O   UNL     1      -2.863  11.993  23.007  0.00  0.00    +0.000 OA
ATOM     17  N   UNL     1      -4.493  13.252  21.957  0.00  0.00    +0.000 N 
ATOM     18  C   UNL     1      -5.475  12.926  22.990  0.00  0.00    +0.000 C 
ATOM     19  C   UNL     1      -6.476  14.076  23.178  0.00  0.00    +0.000 C 
ATOM     20  C   UNL     1      -7.538  13.721  24.217  0.00  0.00    +0.000 C 
ATOM     21  C   UNL     1      -7.134  14.446  21.840  0.00  0.00    +0.000 C 
ATOM     22  C   UNL     1      -6.072  14.770  20.782  0.00  0.00    +0.000 C 
ATOM     23  C   UNL     1      -6.712  15.031  19.420  0.00  0.00    +0.000 C 
ATOM     24  C   UNL     1      -5.055  13.634  20.663  0.00  0.00    +0.000 C 
ENDBRANCH  14  15
ENDBRANCH   9  14
TORSDOF 3
ENDMDL
