MODEL 1
REMARK VINA RESULT:      -8.9      0.000      0.000
REMARK  Name = 
REMARK  8 active torsions:
REMARK  status: ('A' for Active; 'I' for Inactive)
REMARK    1  A    between atoms: C_1  and  O_2
REMARK    2  A    between atoms: O_2  and  C_3
REMARK    3  A    between atoms: C_3  and  C_5
REMARK    4  A    between atoms: C_5  and  O_6
REMARK    5  A    between atoms: C_5  and  C_14
REMARK    6  A    between atoms: O_6  and  C_7
REMARK    7  A    between atoms: C_17  and  O_18
REMARK    8  A    between atoms: O_18  and  C_19
REMARK                            x       y       z     vdW  Elec       q    Type
REMARK                         _______ _______ _______ _____ _____    ______ ____
ROOT
ATOM      1  C   UNL     1       2.375   7.183  19.234  0.00  0.00    +0.000 A 
ATOM      2  C   UNL     1       2.514   7.878  18.024  0.00  0.00    +0.000 A 
ATOM      3  C   UNL     1       1.955   9.154  17.862  0.00  0.00    +0.000 A 
ATOM      4  C   UNL     1       1.180   9.747  18.873  0.00  0.00    +0.000 A 
ATOM      5  C   UNL     1       1.095   9.095  20.104  0.00  0.00    +0.000 A 
ATOM      6  C   UNL     1       1.683   7.829  20.282  0.00  0.00    +0.000 A 
ENDROOT
BRANCH   1   7
ATOM      7  C   UNL     1       3.075   5.818  19.438  0.00  0.00    +0.000 C 
BRANCH   7   8
ATOM      8  C   UNL     1       2.286   4.698  18.719  0.00  0.00    +0.000 C 
ATOM      9  O   UNL     1       1.696   4.844  17.656  0.00  0.00    +0.000 OA
BRANCH   8  11
ATOM     10  C   UNL     1       1.772   2.378  18.758  0.00  0.00    +0.000 C 
ATOM     11  O   UNL     1       2.340   3.518  19.401  0.00  0.00    +0.000 OA
ENDBRANCH   8  11
ENDBRANCH   7   8
BRANCH   7  12
ATOM     12  O   UNL     1       4.441   5.936  19.024  0.00  0.00    +0.000 OA
BRANCH  12  13
ATOM     13  C   UNL     1       4.849   5.384  17.840  0.00  0.00    +0.000 A 
ATOM     14  C   UNL     1       5.101   4.036  17.592  0.00  0.00    +0.000 A 
ATOM     15  C   UNL     1       5.439   3.601  16.298  0.00  0.00    +0.000 A 
ATOM     16  C   UNL     1       5.535   4.514  15.256  0.00  0.00    +0.000 A 
ATOM     17 CL   UNL     1       5.940   3.970  13.670  0.00  0.00    +0.000 Cl
ATOM     18  C   UNL     1       5.295   5.865  15.486  0.00  0.00    +0.000 A 
ATOM     19  C   UNL     1       4.946   6.290  16.773  0.00  0.00    +0.000 A 
ENDBRANCH  12  13
ENDBRANCH   7  12
ENDBRANCH   1   7
BRANCH   4  20
ATOM     20  O   UNL     1       0.468  10.940  18.730  0.00  0.00    +0.000 OA
BRANCH  20  21
ATOM     21  C   UNL     1      -0.914  10.861  18.634  0.00  0.00    +0.000 A 
ATOM     22  C   UNL     1      -1.501  10.133  17.598  0.00  0.00    +0.000 A 
ATOM     23  C   UNL     1      -2.842  10.316  17.268  0.00  0.00    +0.000 A 
ATOM     24  C   UNL     1      -3.593  11.241  17.981  0.00  0.00    +0.000 A 
ATOM     25 CL   UNL     1      -5.237  11.437  17.458  0.00  0.00    +0.000 Cl
ATOM     26  C   UNL     1      -3.089  11.854  19.139  0.00  0.00    +0.000 A 
ATOM     27  C   UNL     1      -3.889  12.688  19.949  0.00  0.00    +0.000 A 
ATOM     28  C   UNL     1      -3.560  12.919  21.271  0.00  0.00    +0.000 A 
ATOM     29  C   UNL     1      -2.340  12.462  21.761  0.00  0.00    +0.000 A 
ATOM     30  C   UNL     1      -1.414  11.887  20.886  0.00  0.00    +0.000 A 
ATOM     31  C   UNL     1      -1.750  11.566  19.554  0.00  0.00    +0.000 A 
ENDBRANCH  20  21
ENDBRANCH   4  20
TORSDOF 7
ENDMDL
MODEL 2
REMARK VINA RESULT:      -8.8      1.891      9.543
REMARK  Name = 
REMARK  8 active torsions:
REMARK  status: ('A' for Active; 'I' for Inactive)
REMARK    1  A    between atoms: C_1  and  O_2
REMARK    2  A    between atoms: O_2  and  C_3
REMARK    3  A    between atoms: C_3  and  C_5
REMARK    4  A    between atoms: C_5  and  O_6
REMARK    5  A    between atoms: C_5  and  C_14
REMARK    6  A    between atoms: O_6  and  C_7
REMARK    7  A    between atoms: C_17  and  O_18
REMARK    8  A    between atoms: O_18  and  C_19
REMARK                            x       y       z     vdW  Elec       q    Type
REMARK                         _______ _______ _______ _____ _____    ______ ____
ROOT
ATOM      1  C   UNL     1       0.143  10.368  19.226  0.00  0.00    +0.000 A 
ATOM      2  C   UNL     1       0.892   9.905  18.134  0.00  0.00    +0.000 A 
ATOM      3  C   UNL     1       1.742   8.798  18.265  0.00  0.00    +0.000 A 
ATOM      4  C   UNL     1       1.928   8.161  19.504  0.00  0.00    +0.000 A 
ATOM      5  C   UNL     1       1.136   8.569  20.578  0.00  0.00    +0.000 A 
ATOM      6  C   UNL     1       0.256   9.659  20.442  0.00  0.00    +0.000 A 
ENDROOT
BRANCH   1   7
ATOM      7  C   UNL     1      -0.864  11.529  19.049  0.00  0.00    +0.000 C 
BRANCH   7   8
ATOM      8  C   UNL     1      -0.115  12.881  18.968  0.00  0.00    +0.000 C 
ATOM      9  O   UNL     1      -0.392  13.776  18.179  0.00  0.00    +0.000 OA
BRANCH   8  11
ATOM     10  C   UNL     1       2.102  13.577  19.468  0.00  0.00    +0.000 C 
ATOM     11  O   UNL     1       0.885  12.967  19.893  0.00  0.00    +0.000 OA
ENDBRANCH   8  11
ENDBRANCH   7   8
BRANCH   7  12
ATOM     12  O   UNL     1      -1.697  11.248  17.919  0.00  0.00    +0.000 OA
BRANCH  12  13
ATOM     13  C   UNL     1      -3.034  11.540  17.963  0.00  0.00    +0.000 A 
ATOM     14  C   UNL     1      -3.961  11.353  16.940  0.00  0.00    +0.000 A 
ATOM     15  C   UNL     1      -5.323  11.626  17.156  0.00  0.00    +0.000 A 
ATOM     16  C   UNL     1      -5.757  12.096  18.389  0.00  0.00    +0.000 A 
ATOM     17 CL   UNL     1      -7.431  12.419  18.647  0.00  0.00    +0.000 Cl
ATOM     18  C   UNL     1      -4.844  12.299  19.419  0.00  0.00    +0.000 A 
ATOM     19  C   UNL     1      -3.491  12.012  19.203  0.00  0.00    +0.000 A 
ENDBRANCH  12  13
ENDBRANCH   7  12
ENDBRANCH   1   7
BRANCH   4  20
ATOM     20  O   UNL     1       2.867   7.155  19.745  0.00  0.00    +0.000 OA
BRANCH  20  21
ATOM     21  C   UNL     1       2.755   5.978  19.018  0.00  0.00    +0.000 A 
ATOM     22  C   UNL     1       1.773   5.043  19.351  0.00  0.00    +0.000 A 
ATOM     23  C   UNL     1       1.852   3.732  18.889  0.00  0.00    +0.000 A 
ATOM     24  C   UNL     1       2.928   3.358  18.094  0.00  0.00    +0.000 A 
ATOM     25 CL   UNL     1       2.966   1.690  17.617  0.00  0.00    +0.000 Cl
ATOM     26  C   UNL     1       3.831   4.310  17.593  0.00  0.00    +0.000 A 
ATOM     27  C   UNL     1       4.845   3.964  16.675  0.00  0.00    +0.000 A 
ATOM     28  C   UNL     1       5.421   4.921  15.862  0.00  0.00    +0.000 A 
ATOM     29  C   UNL     1       5.120   6.264  16.069  0.00  0.00    +0.000 A 
ATOM     30  C   UNL     1       4.339   6.637  17.167  0.00  0.00    +0.000 A 
ATOM     31  C   UNL     1       3.673   5.683  17.964  0.00  0.00    +0.000 A 
ENDBRANCH  20  21
ENDBRANCH   4  20
TORSDOF 7
ENDMDL
MODEL 3
REMARK VINA RESULT:      -8.7      2.241      9.460
REMARK  Name = 
REMARK  8 active torsions:
REMARK  status: ('A' for Active; 'I' for Inactive)
REMARK    1  A    between atoms: C_1  and  O_2
REMARK    2  A    between atoms: O_2  and  C_3
REMARK    3  A    between atoms: C_3  and  C_5
REMARK    4  A    between atoms: C_5  and  O_6
REMARK    5  A    between atoms: C_5  and  C_14
REMARK    6  A    between atoms: O_6  and  C_7
REMARK    7  A    between atoms: C_17  and  O_18
REMARK    8  A    between atoms: O_18  and  C_19
REMARK                            x       y       z     vdW  Elec       q    Type
REMARK                         _______ _______ _______ _____ _____    ______ ____
ROOT
ATOM      1  C   UNL     1       0.360  10.137  19.669  0.00  0.00    +0.000 A 
ATOM      2  C   UNL     1       0.985   9.009  20.221  0.00  0.00    +0.000 A 
ATOM      3  C   UNL     1       1.928   8.279  19.485  0.00  0.00    +0.000 A 
ATOM      4  C   UNL     1       2.226   8.606  18.151  0.00  0.00    +0.000 A 
ATOM      5  C   UNL     1       1.664   9.766  17.617  0.00  0.00    +0.000 A 
ATOM      6  C   UNL     1       0.741  10.521  18.365  0.00  0.00    +0.000 A 
ENDROOT
BRANCH   1   7
ATOM      7  C   UNL     1      -0.607  10.993  20.522  0.00  0.00    +0.000 C 
BRANCH   7   8
ATOM      8  C   UNL     1       0.133  11.579  21.747  0.00  0.00    +0.000 C 
ATOM      9  O   UNL     1       1.059  12.377  21.676  0.00  0.00    +0.000 OA
BRANCH   8  11
ATOM     10  C   UNL     1      -1.741  11.436  23.202  0.00  0.00    +0.000 C 
ATOM     11  O   UNL     1      -0.379  11.115  22.923  0.00  0.00    +0.000 OA
ENDBRANCH   8  11
ENDBRANCH   7   8
BRANCH   7  12
ATOM     12  O   UNL     1      -1.219  11.974  19.678  0.00  0.00    +0.000 OA
BRANCH  12  13
ATOM     13  C   UNL     1      -2.561  11.912  19.414  0.00  0.00    +0.000 A 
ATOM     14  C   UNL     1      -3.578  12.556  20.116  0.00  0.00    +0.000 A 
ATOM     15  C   UNL     1      -4.912  12.464  19.680  0.00  0.00    +0.000 A 
ATOM     16  C   UNL     1      -5.230  11.720  18.551  0.00  0.00    +0.000 A 
ATOM     17 CL   UNL     1      -6.867  11.620  18.019  0.00  0.00    +0.000 Cl
ATOM     18  C   UNL     1      -4.228  11.062  17.844  0.00  0.00    +0.000 A 
ATOM     19  C   UNL     1      -2.901  11.169  18.274  0.00  0.00    +0.000 A 
ENDBRANCH  12  13
ENDBRANCH   7  12
ENDBRANCH   1   7
BRANCH   4  20
ATOM     20  O   UNL     1       3.035   7.840  17.308  0.00  0.00    +0.000 OA
BRANCH  20  21
ATOM     21  C   UNL     1       3.405   6.575  17.742  0.00  0.00    +0.000 A 
ATOM     22  C   UNL     1       2.427   5.611  17.995  0.00  0.00    +0.000 A 
ATOM     23  C   UNL     1       2.722   4.477  18.749  0.00  0.00    +0.000 A 
ATOM     24  C   UNL     1       4.006   4.316  19.254  0.00  0.00    +0.000 A 
ATOM     25 CL   UNL     1       4.258   2.900  20.227  0.00  0.00    +0.000 Cl
ATOM     26  C   UNL     1       5.054   5.167  18.869  0.00  0.00    +0.000 A 
ATOM     27  C   UNL     1       6.388   4.932  19.265  0.00  0.00    +0.000 A 
ATOM     28  C   UNL     1       7.444   5.470  18.554  0.00  0.00    +0.000 A 
ATOM     29  C   UNL     1       7.186   6.390  17.541  0.00  0.00    +0.000 A 
ATOM     30  C   UNL     1       5.881   6.847  17.336  0.00  0.00    +0.000 A 
ATOM     31  C   UNL     1       4.777   6.260  17.989  0.00  0.00    +0.000 A 
ENDBRANCH  20  21
ENDBRANCH   4  20
TORSDOF 7
ENDMDL
MODEL 4
REMARK VINA RESULT:      -8.6      2.486      9.459
REMARK  Name = 
REMARK  8 active torsions:
REMARK  status: ('A' for Active; 'I' for Inactive)
REMARK    1  A    between atoms: C_1  and  O_2
REMARK    2  A    between atoms: O_2  and  C_3
REMARK    3  A    between atoms: C_3  and  C_5
REMARK    4  A    between atoms: C_5  and  O_6
REMARK    5  A    between atoms: C_5  and  C_14
REMARK    6  A    between atoms: O_6  and  C_7
REMARK    7  A    between atoms: C_17  and  O_18
REMARK    8  A    between atoms: O_18  and  C_19
REMARK                            x       y       z     vdW  Elec       q    Type
REMARK                         _______ _______ _______ _____ _____    ______ ____
ROOT
ATOM      1  C   UNL     1      -0.197  10.050  18.990  0.00  0.00    +0.000 A 
ATOM      2  C   UNL     1       0.028   9.529  20.272  0.00  0.00    +0.000 A 
ATOM      3  C   UNL     1       1.106   8.666  20.517  0.00  0.00    +0.000 A 
ATOM      4  C   UNL     1       1.951   8.238  19.478  0.00  0.00    +0.000 A 
ATOM      5  C   UNL     1       1.778   8.805  18.215  0.00  0.00    +0.000 A 
ATOM      6  C   UNL     1       0.717   9.698  17.973  0.00  0.00    +0.000 A 
ENDROOT
BRANCH   1   7
ATOM      7  C   UNL     1      -1.330  11.076  18.749  0.00  0.00    +0.000 C 
BRANCH   7   8
ATOM      8  C   UNL     1      -2.306  10.552  17.668  0.00  0.00    +0.000 C 
ATOM      9  O   UNL     1      -3.050   9.591  17.818  0.00  0.00    +0.000 OA
BRANCH   8  11
ATOM     10  C   UNL     1      -3.021  10.835  15.419  0.00  0.00    +0.000 C 
ATOM     11  O   UNL     1      -2.255  11.301  16.529  0.00  0.00    +0.000 OA
ENDBRANCH   8  11
ENDBRANCH   7   8
BRANCH   7  12
ATOM     12  O   UNL     1      -1.949  11.381  20.004  0.00  0.00    +0.000 OA
BRANCH  12  13
ATOM     13  C   UNL     1      -1.546  12.477  20.718  0.00  0.00    +0.000 A 
ATOM     14  C   UNL     1      -1.277  13.748  20.214  0.00  0.00    +0.000 A 
ATOM     15  C   UNL     1      -0.947  14.803  21.082  0.00  0.00    +0.000 A 
ATOM     16  C   UNL     1      -0.875  14.586  22.452  0.00  0.00    +0.000 A 
ATOM     17 CL   UNL     1      -0.479  15.889  23.511  0.00  0.00    +0.000 Cl
ATOM     18  C   UNL     1      -1.131  13.322  22.973  0.00  0.00    +0.000 A 
ATOM     19  C   UNL     1      -1.473  12.278  22.105  0.00  0.00    +0.000 A 
ENDBRANCH  12  13
ENDBRANCH   7  12
ENDBRANCH   1   7
BRANCH   4  20
ATOM     20  O   UNL     1       2.945   7.267  19.614  0.00  0.00    +0.000 OA
BRANCH  20  21
ATOM     21  C   UNL     1       2.792   6.081  18.910  0.00  0.00    +0.000 A 
ATOM     22  C   UNL     1       1.770   5.194  19.252  0.00  0.00    +0.000 A 
ATOM     23  C   UNL     1       1.799   3.871  18.817  0.00  0.00    +0.000 A 
ATOM     24  C   UNL     1       2.865   3.438  18.039  0.00  0.00    +0.000 A 
ATOM     25 CL   UNL     1       2.840   1.760  17.596  0.00  0.00    +0.000 Cl
ATOM     26  C   UNL     1       3.810   4.342  17.528  0.00  0.00    +0.000 A 
ATOM     27  C   UNL     1       4.816   3.937  16.625  0.00  0.00    +0.000 A 
ATOM     28  C   UNL     1       5.437   4.853  15.798  0.00  0.00    +0.000 A 
ATOM     29  C   UNL     1       5.189   6.211  15.976  0.00  0.00    +0.000 A 
ATOM     30  C   UNL     1       4.416   6.638  17.059  0.00  0.00    +0.000 A 
ATOM     31  C   UNL     1       3.705   5.727  17.869  0.00  0.00    +0.000 A 
ENDBRANCH  20  21
ENDBRANCH   4  20
TORSDOF 7
ENDMDL
MODEL 5
REMARK VINA RESULT:      -8.6      1.924      9.473
REMARK  Name = 
REMARK  8 active torsions:
REMARK  status: ('A' for Active; 'I' for Inactive)
REMARK    1  A    between atoms: C_1  and  O_2
REMARK    2  A    between atoms: O_2  and  C_3
REMARK    3  A    between atoms: C_3  and  C_5
REMARK    4  A    between atoms: C_5  and  O_6
REMARK    5  A    between atoms: C_5  and  C_14
REMARK    6  A    between atoms: O_6  and  C_7
REMARK    7  A    between atoms: C_17  and  O_18
REMARK    8  A    between atoms: O_18  and  C_19
REMARK                            x       y       z     vdW  Elec       q    Type
REMARK                         _______ _______ _______ _____ _____    ______ ____
ROOT
ATOM      1  C   UNL     1       0.018  10.307  20.340  0.00  0.00    +0.000 A 
ATOM      2  C   UNL     1       0.666  10.017  19.131  0.00  0.00    +0.000 A 
ATOM      3  C   UNL     1       1.521   8.911  19.022  0.00  0.00    +0.000 A 
ATOM      4  C   UNL     1       1.814   8.102  20.133  0.00  0.00    +0.000 A 
ATOM      5  C   UNL     1       1.121   8.340  21.321  0.00  0.00    +0.000 A 
ATOM      6  C   UNL     1       0.236   9.429  21.424  0.00  0.00    +0.000 A 
ENDROOT
BRANCH   1   7
ATOM      7  C   UNL     1      -0.998  11.472  20.425  0.00  0.00    +0.000 C 
BRANCH   7   8
ATOM      8  C   UNL     1      -0.358  12.691  21.132  0.00  0.00    +0.000 C 
ATOM      9  O   UNL     1      -0.163  12.764  22.338  0.00  0.00    +0.000 OA
BRANCH   8  11
ATOM     10  C   UNL     1       1.110  14.479  20.586  0.00  0.00    +0.000 C 
ATOM     11  O   UNL     1      -0.016  13.672  20.247  0.00  0.00    +0.000 OA
ENDBRANCH   8  11
ENDBRANCH   7   8
BRANCH   7  12
ATOM     12  O   UNL     1      -1.493  11.747  19.110  0.00  0.00    +0.000 OA
BRANCH  12  13
ATOM     13  C   UNL     1      -2.841  11.854  18.893  0.00  0.00    +0.000 A 
ATOM     14  C   UNL     1      -3.771  12.477  19.723  0.00  0.00    +0.000 A 
ATOM     15  C   UNL     1      -5.117  12.580  19.331  0.00  0.00    +0.000 A 
ATOM     16  C   UNL     1      -5.536  12.051  18.117  0.00  0.00    +0.000 A 
ATOM     17 CL   UNL     1      -7.188  12.190  17.641  0.00  0.00    +0.000 Cl
ATOM     18  C   UNL     1      -4.623  11.416  17.280  0.00  0.00    +0.000 A 
ATOM     19  C   UNL     1      -3.281  11.329  17.669  0.00  0.00    +0.000 A 
ENDBRANCH  12  13
ENDBRANCH   7  12
ENDBRANCH   1   7
BRANCH   4  20
ATOM     20  O   UNL     1       2.767   7.081  20.141  0.00  0.00    +0.000 OA
BRANCH  20  21
ATOM     21  C   UNL     1       2.585   6.019  19.266  0.00  0.00    +0.000 A 
ATOM     22  C   UNL     1       1.566   5.092  19.496  0.00  0.00    +0.000 A 
ATOM     23  C   UNL     1       1.574   3.853  18.861  0.00  0.00    +0.000 A 
ATOM     24  C   UNL     1       2.615   3.543  17.995  0.00  0.00    +0.000 A 
ATOM     25 CL   UNL     1       2.564   1.954  17.298  0.00  0.00    +0.000 Cl
ATOM     26  C   UNL     1       3.551   4.512  17.602  0.00  0.00    +0.000 A 
ATOM     27  C   UNL     1       4.528   4.249  16.619  0.00  0.00    +0.000 A 
ATOM     28  C   UNL     1       5.133   5.281  15.927  0.00  0.00    +0.000 A 
ATOM     29  C   UNL     1       4.900   6.596  16.320  0.00  0.00    +0.000 A 
ATOM     30  C   UNL     1       4.160   6.852  17.478  0.00  0.00    +0.000 A 
ATOM     31  C   UNL     1       3.466   5.828  18.158  0.00  0.00    +0.000 A 
ENDBRANCH  20  21
ENDBRANCH   4  20
TORSDOF 7
ENDMDL
MODEL 6
REMARK VINA RESULT:      -8.6      2.177      9.542
REMARK  Name = 
REMARK  8 active torsions:
REMARK  status: ('A' for Active; 'I' for Inactive)
REMARK    1  A    between atoms: C_1  and  O_2
REMARK    2  A    between atoms: O_2  and  C_3
REMARK    3  A    between atoms: C_3  and  C_5
REMARK    4  A    between atoms: C_5  and  O_6
REMARK    5  A    between atoms: C_5  and  C_14
REMARK    6  A    between atoms: O_6  and  C_7
REMARK    7  A    between atoms: C_17  and  O_18
REMARK    8  A    between atoms: O_18  and  C_19
REMARK                            x       y       z     vdW  Elec       q    Type
REMARK                         _______ _______ _______ _____ _____    ______ ____
ROOT
ATOM      1  C   UNL     1      -0.205  10.260  19.721  0.00  0.00    +0.000 A 
ATOM      2  C   UNL     1      -0.104   9.705  21.005  0.00  0.00    +0.000 A 
ATOM      3  C   UNL     1       0.856   8.723  21.289  0.00  0.00    +0.000 A 
ATOM      4  C   UNL     1       1.698   8.212  20.286  0.00  0.00    +0.000 A 
ATOM      5  C   UNL     1       1.653   8.807  19.025  0.00  0.00    +0.000 A 
ATOM      6  C   UNL     1       0.713   9.816  18.745  0.00  0.00    +0.000 A 
ENDROOT
BRANCH   1   7
ATOM      7  C   UNL     1      -1.202  11.410  19.442  0.00  0.00    +0.000 C 
BRANCH   7   8
ATOM      8  C   UNL     1      -0.437  12.722  19.145  0.00  0.00    +0.000 C 
ATOM      9  O   UNL     1      -0.474  13.315  18.074  0.00  0.00    +0.000 OA
BRANCH   8  11
ATOM     10  C   UNL     1       1.649  13.462  20.012  0.00  0.00    +0.000 C 
ATOM     11  O   UNL     1       0.272  13.155  20.227  0.00  0.00    +0.000 OA
ENDBRANCH   8  11
ENDBRANCH   7   8
BRANCH   7  12
ATOM     12  O   UNL     1      -2.095  11.001  18.400  0.00  0.00    +0.000 OA
BRANCH  12  13
ATOM     13  C   UNL     1      -3.382  11.468  18.378  0.00  0.00    +0.000 A 
ATOM     14  C   UNL     1      -4.053  12.113  19.415  0.00  0.00    +0.000 A 
ATOM     15  C   UNL     1      -5.353  12.611  19.221  0.00  0.00    +0.000 A 
ATOM     16  C   UNL     1      -5.987  12.455  17.995  0.00  0.00    +0.000 A 
ATOM     17 CL   UNL     1      -7.578  13.077  17.763  0.00  0.00    +0.000 Cl
ATOM     18  C   UNL     1      -5.337  11.805  16.951  0.00  0.00    +0.000 A 
ATOM     19  C   UNL     1      -4.037  11.323  17.145  0.00  0.00    +0.000 A 
ENDBRANCH  12  13
ENDBRANCH   7  12
ENDBRANCH   1   7
BRANCH   4  20
ATOM     20  O   UNL     1       2.569   7.133  20.455  0.00  0.00    +0.000 OA
BRANCH  20  21
ATOM     21  C   UNL     1       2.231   5.929  19.853  0.00  0.00    +0.000 A 
ATOM     22  C   UNL     1       1.130   5.204  20.313  0.00  0.00    +0.000 A 
ATOM     23  C   UNL     1       0.974   3.860  19.981  0.00  0.00    +0.000 A 
ATOM     24  C   UNL     1       1.932   3.243  19.188  0.00  0.00    +0.000 A 
ATOM     25 CL   UNL     1       1.676   1.554  18.878  0.00  0.00    +0.000 Cl
ATOM     26  C   UNL     1       2.947   3.982  18.562  0.00  0.00    +0.000 A 
ATOM     27  C   UNL     1       3.842   3.391  17.645  0.00  0.00    +0.000 A 
ATOM     28  C   UNL     1       4.521   4.161  16.720  0.00  0.00    +0.000 A 
ATOM     29  C   UNL     1       4.451   5.549  16.804  0.00  0.00    +0.000 A 
ATOM     30  C   UNL     1       3.800   6.145  17.887  0.00  0.00    +0.000 A 
ATOM     31  C   UNL     1       3.033   5.390  18.800  0.00  0.00    +0.000 A 
ENDBRANCH  20  21
ENDBRANCH   4  20
TORSDOF 7
ENDMDL
MODEL 7
REMARK VINA RESULT:      -8.5      1.880      9.483
REMARK  Name = 
REMARK  8 active torsions:
REMARK  status: ('A' for Active; 'I' for Inactive)
REMARK    1  A    between atoms: C_1  and  O_2
REMARK    2  A    between atoms: O_2  and  C_3
REMARK    3  A    between atoms: C_3  and  C_5
REMARK    4  A    between atoms: C_5  and  O_6
REMARK    5  A    between atoms: C_5  and  C_14
REMARK    6  A    between atoms: O_6  and  C_7
REMARK    7  A    between atoms: C_17  and  O_18
REMARK    8  A    between atoms: O_18  and  C_19
REMARK                            x       y       z     vdW  Elec       q    Type
REMARK                         _______ _______ _______ _____ _____    ______ ____
ROOT
ATOM      1  C   UNL     1       0.026  10.126  19.418  0.00  0.00    +0.000 A 
ATOM      2  C   UNL     1       0.235   9.538  20.674  0.00  0.00    +0.000 A 
ATOM      3  C   UNL     1       1.237   8.574  20.857  0.00  0.00    +0.000 A 
ATOM      4  C   UNL     1       2.015   8.115  19.780  0.00  0.00    +0.000 A 
ATOM      5  C   UNL     1       1.862   8.744  18.544  0.00  0.00    +0.000 A 
ATOM      6  C   UNL     1       0.879   9.735  18.364  0.00  0.00    +0.000 A 
ENDROOT
BRANCH   1   7
ATOM      7  C   UNL     1      -1.017  11.257  19.247  0.00  0.00    +0.000 C 
BRANCH   7   8
ATOM      8  C   UNL     1      -0.349  12.638  19.449  0.00  0.00    +0.000 C 
ATOM      9  O   UNL     1      -0.293  13.226  20.521  0.00  0.00    +0.000 OA
BRANCH   8  11
ATOM     10  C   UNL     1       1.565  13.491  18.328  0.00  0.00    +0.000 C 
ATOM     11  O   UNL     1       0.189  13.118  18.290  0.00  0.00    +0.000 OA
ENDBRANCH   8  11
ENDBRANCH   7   8
BRANCH   7  12
ATOM     12  O   UNL     1      -1.667  11.095  17.982  0.00  0.00    +0.000 OA
BRANCH  12  13
ATOM     13  C   UNL     1      -2.990  11.420  17.843  0.00  0.00    +0.000 A 
ATOM     14  C   UNL     1      -3.776  11.244  16.706  0.00  0.00    +0.000 A 
ATOM     15  C   UNL     1      -5.147  11.552  16.735  0.00  0.00    +0.000 A 
ATOM     16  C   UNL     1      -5.730  12.044  17.896  0.00  0.00    +0.000 A 
ATOM     17 CL   UNL     1      -7.416  12.410  17.925  0.00  0.00    +0.000 Cl
ATOM     18  C   UNL     1      -4.959  12.235  19.038  0.00  0.00    +0.000 A 
ATOM     19  C   UNL     1      -3.597  11.914  19.008  0.00  0.00    +0.000 A 
ENDBRANCH  12  13
ENDBRANCH   7  12
ENDBRANCH   1   7
BRANCH   4  20
ATOM     20  O   UNL     1       2.922   7.055  19.852  0.00  0.00    +0.000 OA
BRANCH  20  21
ATOM     21  C   UNL     1       2.715   5.968  19.014  0.00  0.00    +0.000 A 
ATOM     22  C   UNL     1       1.651   5.095  19.254  0.00  0.00    +0.000 A 
ATOM     23  C   UNL     1       1.620   3.833  18.667  0.00  0.00    +0.000 A 
ATOM     24  C   UNL     1       2.667   3.445  17.840  0.00  0.00    +0.000 A 
ATOM     25 CL   UNL     1       2.563   1.833  17.203  0.00  0.00    +0.000 Cl
ATOM     26  C   UNL     1       3.653   4.357  17.434  0.00  0.00    +0.000 A 
ATOM     27  C   UNL     1       4.641   4.014  16.487  0.00  0.00    +0.000 A 
ATOM     28  C   UNL     1       5.306   4.991  15.771  0.00  0.00    +0.000 A 
ATOM     29  C   UNL     1       5.122   6.329  16.107  0.00  0.00    +0.000 A 
ATOM     30  C   UNL     1       4.366   6.662  17.236  0.00  0.00    +0.000 A 
ATOM     31  C   UNL     1       3.613   5.696  17.936  0.00  0.00    +0.000 A 
ENDBRANCH  20  21
ENDBRANCH   4  20
TORSDOF 7
ENDMDL
MODEL 8
REMARK VINA RESULT:      -8.5      3.196      8.967
REMARK  Name = 
REMARK  8 active torsions:
REMARK  status: ('A' for Active; 'I' for Inactive)
REMARK    1  A    between atoms: C_1  and  O_2
REMARK    2  A    between atoms: O_2  and  C_3
REMARK    3  A    between atoms: C_3  and  C_5
REMARK    4  A    between atoms: C_5  and  O_6
REMARK    5  A    between atoms: C_5  and  C_14
REMARK    6  A    between atoms: O_6  and  C_7
REMARK    7  A    between atoms: C_17  and  O_18
REMARK    8  A    between atoms: O_18  and  C_19
REMARK                            x       y       z     vdW  Elec       q    Type
REMARK                         _______ _______ _______ _____ _____    ______ ____
ROOT
ATOM      1  C   UNL     1       0.077  10.257  18.766  0.00  0.00    +0.000 A 
ATOM      2  C   UNL     1       0.021   9.879  20.115  0.00  0.00    +0.000 A 
ATOM      3  C   UNL     1       0.897   8.910  20.625  0.00  0.00    +0.000 A 
ATOM      4  C   UNL     1       1.807   8.237  19.793  0.00  0.00    +0.000 A 
ATOM      5  C   UNL     1       1.918   8.655  18.466  0.00  0.00    +0.000 A 
ATOM      6  C   UNL     1       1.063   9.651  17.958  0.00  0.00    +0.000 A 
ENDROOT
BRANCH   1   7
ATOM      7  C   UNL     1      -0.828  11.394  18.233  0.00  0.00    +0.000 C 
BRANCH   7   8
ATOM      8  C   UNL     1      -2.223  10.839  17.859  0.00  0.00    +0.000 C 
ATOM      9  O   UNL     1      -3.266  11.164  18.411  0.00  0.00    +0.000 OA
BRANCH   8  11
ATOM     10  C   UNL     1      -2.758  10.355  15.594  0.00  0.00    +0.000 C 
ATOM     11  O   UNL     1      -2.158   9.952  16.824  0.00  0.00    +0.000 OA
ENDBRANCH   8  11
ENDBRANCH   7   8
BRANCH   7  12
ATOM     12  O   UNL     1      -0.855  12.451  19.199  0.00  0.00    +0.000 OA
BRANCH  12  13
ATOM     13  C   UNL     1      -0.072  13.561  19.023  0.00  0.00    +0.000 A 
ATOM     14  C   UNL     1      -0.448  14.887  19.231  0.00  0.00    +0.000 A 
ATOM     15  C   UNL     1       0.491  15.923  19.086  0.00  0.00    +0.000 A 
ATOM     16  C   UNL     1       1.800  15.636  18.722  0.00  0.00    +0.000 A 
ATOM     17 CL   UNL     1       2.947  16.913  18.555  0.00  0.00    +0.000 Cl
ATOM     18  C   UNL     1       2.191  14.319  18.500  0.00  0.00    +0.000 A 
ATOM     19  C   UNL     1       1.256  13.290  18.660  0.00  0.00    +0.000 A 
ENDBRANCH  12  13
ENDBRANCH   7  12
ENDBRANCH   1   7
BRANCH   4  20
ATOM     20  O   UNL     1       2.601   7.160  20.193  0.00  0.00    +0.000 OA
BRANCH  20  21
ATOM     21  C   UNL     1       2.294   5.906  19.685  0.00  0.00    +0.000 A 
ATOM     22  C   UNL     1       1.193   5.203  20.178  0.00  0.00    +0.000 A 
ATOM     23  C   UNL     1       1.062   3.834  19.954  0.00  0.00    +0.000 A 
ATOM     24  C   UNL     1       2.047   3.170  19.234  0.00  0.00    +0.000 A 
ATOM     25 CL   UNL     1       1.822   1.457  19.058  0.00  0.00    +0.000 Cl
ATOM     26  C   UNL     1       3.067   3.871  18.572  0.00  0.00    +0.000 A 
ATOM     27  C   UNL     1       3.990   3.221  17.727  0.00  0.00    +0.000 A 
ATOM     28  C   UNL     1       4.680   3.924  16.757  0.00  0.00    +0.000 A 
ATOM     29  C   UNL     1       4.589   5.313  16.726  0.00  0.00    +0.000 A 
ATOM     30  C   UNL     1       3.904   5.985  17.742  0.00  0.00    +0.000 A 
ATOM     31  C   UNL     1       3.127   5.295  18.696  0.00  0.00    +0.000 A 
ENDBRANCH  20  21
ENDBRANCH   4  20
TORSDOF 7
ENDMDL
MODEL 9
REMARK VINA RESULT:      -8.5      2.549      9.835
REMARK  Name = 
REMARK  8 active torsions:
REMARK  status: ('A' for Active; 'I' for Inactive)
REMARK    1  A    between atoms: C_1  and  O_2
REMARK    2  A    between atoms: O_2  and  C_3
REMARK    3  A    between atoms: C_3  and  C_5
REMARK    4  A    between atoms: C_5  and  O_6
REMARK    5  A    between atoms: C_5  and  C_14
REMARK    6  A    between atoms: O_6  and  C_7
REMARK    7  A    between atoms: C_17  and  O_18
REMARK    8  A    between atoms: O_18  and  C_19
REMARK                            x       y       z     vdW  Elec       q    Type
REMARK                         _______ _______ _______ _____ _____    ______ ____
ROOT
ATOM      1  C   UNL     1       0.128  10.380  20.164  0.00  0.00    +0.000 A 
ATOM      2  C   UNL     1       0.807  10.060  18.980  0.00  0.00    +0.000 A 
ATOM      3  C   UNL     1       1.639   8.934  18.911  0.00  0.00    +0.000 A 
ATOM      4  C   UNL     1       1.878   8.132  20.040  0.00  0.00    +0.000 A 
ATOM      5  C   UNL     1       1.154   8.400  21.202  0.00  0.00    +0.000 A 
ATOM      6  C   UNL     1       0.292   9.511  21.265  0.00  0.00    +0.000 A 
ENDROOT
BRANCH   1   7
ATOM      7  C   UNL     1      -0.863  11.568  20.203  0.00  0.00    +0.000 C 
BRANCH   7   8
ATOM      8  C   UNL     1      -1.545  11.742  18.826  0.00  0.00    +0.000 C 
ATOM      9  O   UNL     1      -2.506  11.086  18.444  0.00  0.00    +0.000 OA
BRANCH   8  11
ATOM     10  C   UNL     1      -0.332  13.787  18.813  0.00  0.00    +0.000 C 
ATOM     11  O   UNL     1      -0.960  12.730  18.088  0.00  0.00    +0.000 OA
ENDBRANCH   8  11
ENDBRANCH   7   8
BRANCH   7  12
ATOM     12  O   UNL     1      -1.773  11.373  21.291  0.00  0.00    +0.000 OA
BRANCH  12  13
ATOM     13  C   UNL     1      -1.912  12.339  22.251  0.00  0.00    +0.000 A 
ATOM     14  C   UNL     1      -0.913  13.179  22.738  0.00  0.00    +0.000 A 
ATOM     15  C   UNL     1      -1.221  14.184  23.672  0.00  0.00    +0.000 A 
ATOM     16  C   UNL     1      -2.525  14.342  24.127  0.00  0.00    +0.000 A 
ATOM     17 CL   UNL     1      -2.895  15.583  25.265  0.00  0.00    +0.000 Cl
ATOM     18  C   UNL     1      -3.534  13.506  23.658  0.00  0.00    +0.000 A 
ATOM     19  C   UNL     1      -3.224  12.516  22.718  0.00  0.00    +0.000 A 
ENDBRANCH  12  13
ENDBRANCH   7  12
ENDBRANCH   1   7
BRANCH   4  20
ATOM     20  O   UNL     1       2.807   7.090  20.091  0.00  0.00    +0.000 OA
BRANCH  20  21
ATOM     21  C   UNL     1       2.625   6.019  19.227  0.00  0.00    +0.000 A 
ATOM     22  C   UNL     1       1.598   5.102  19.460  0.00  0.00    +0.000 A 
ATOM     23  C   UNL     1       1.602   3.855  18.840  0.00  0.00    +0.000 A 
ATOM     24  C   UNL     1       2.647   3.527  17.986  0.00  0.00    +0.000 A 
ATOM     25 CL   UNL     1       2.591   1.930  17.308  0.00  0.00    +0.000 Cl
ATOM     26  C   UNL     1       3.594   4.484  17.590  0.00  0.00    +0.000 A 
ATOM     27  C   UNL     1       4.578   4.202  16.619  0.00  0.00    +0.000 A 
ATOM     28  C   UNL     1       5.196   5.221  15.919  0.00  0.00    +0.000 A 
ATOM     29  C   UNL     1       4.969   6.542  16.294  0.00  0.00    +0.000 A 
ATOM     30  C   UNL     1       4.221   6.818  17.443  0.00  0.00    +0.000 A 
ATOM     31  C   UNL     1       3.514   5.808  18.129  0.00  0.00    +0.000 A 
ENDBRANCH  20  21
ENDBRANCH   4  20
TORSDOF 7
ENDMDL
