MODEL 1
REMARK VINA RESULT:      -7.9      0.000      0.000
REMARK  Name = 
REMARK  8 active torsions:
REMARK  status: ('A' for Active; 'I' for Inactive)
REMARK    1  A    between atoms: C_1  and  C_2
REMARK    2  A    between atoms: C_5  and  C_6
REMARK    3  A    between atoms: C_7  and  N_8
REMARK    4  A    between atoms: C_9  and  C_11
REMARK    5  A    between atoms: C_11  and  S_12
REMARK    6  A    between atoms: S_12  and  C_13
REMARK    7  A    between atoms: C_16  and  S_17
REMARK    8  A    between atoms: S_17  and  N_20
REMARK                            x       y       z     vdW  Elec       q    Type
REMARK                         _______ _______ _______ _____ _____    ______ ____
ROOT
ATOM      1  S   UNL     1       2.598   2.419  19.913  0.00  0.00    +0.000 S 
ENDROOT
BRANCH   1   2
ATOM      2  C   UNL     1       3.726   3.107  18.708  0.00  0.00    +0.000 A 
ATOM      3  C   UNL     1       3.364   3.304  17.378  0.00  0.00    +0.000 A 
ATOM      4  C   UNL     1       4.217   4.032  16.543  0.00  0.00    +0.000 A 
ATOM      5  C   UNL     1       5.396   4.559  17.071  0.00  0.00    +0.000 A 
ATOM      6  C   UNL     1       5.713   4.279  18.384  0.00  0.00    +0.000 A 
ATOM      7  N   UNL     1       4.898   3.568  19.208  0.00  0.00    +0.000 NA
BRANCH   5   8
ATOM      8  S   UNL     1       6.441   5.610  16.118  0.00  0.00    +0.000 S 
ATOM      9  O   UNL     1       5.577   6.489  15.354  0.00  0.00    +0.000 OA
ATOM     10  O   UNL     1       7.458   6.139  16.997  0.00  0.00    +0.000 OA
BRANCH   8  11
ATOM     11  N   UNL     1       7.224   4.562  15.016  0.00  0.00    +0.000 NA
ATOM     12  C   UNL     1       7.946   5.178  13.877  0.00  0.00    +0.000 C 
ATOM     13  C   UNL     1       6.997   5.077  12.701  0.00  0.00    +0.000 C 
ATOM     14  C   UNL     1       6.296   3.751  12.919  0.00  0.00    +0.000 C 
ATOM     15  C   UNL     1       6.324   3.515  14.429  0.00  0.00    +0.000 C 
ENDBRANCH   8  11
ENDBRANCH   5   8
ENDBRANCH   1   2
BRANCH   1  16
ATOM     16  C   UNL     1       2.569   3.716  21.198  0.00  0.00    +0.000 C 
BRANCH  16  18
ATOM     17  N   UNL     1       2.455   6.119  20.705  0.00  0.00    +0.000 N 
ATOM     18  C   UNL     1       1.746   4.922  20.734  0.00  0.00    +0.000 C 
ATOM     19  O   UNL     1       0.560   4.798  20.440  0.00  0.00    +0.000 OA
ATOM     20  H   UNL     1       3.459   6.013  20.613  0.00  0.00    +0.000 HD
BRANCH  17  27
ATOM     21  C   UNL     1      -0.321  10.149  21.531  0.00  0.00    +0.000 C 
ATOM     22  C   UNL     1       0.531   9.319  20.615  0.00  0.00    +0.000 A 
ATOM     23  C   UNL     1       0.831   9.766  19.326  0.00  0.00    +0.000 A 
ATOM     24  C   UNL     1       1.659   9.007  18.497  0.00  0.00    +0.000 A 
ATOM     25  C   UNL     1       2.216   7.794  18.942  0.00  0.00    +0.000 A 
ATOM     26  C   UNL     1       3.052   6.992  17.987  0.00  0.00    +0.000 C 
ATOM     27  C   UNL     1       1.896   7.331  20.231  0.00  0.00    +0.000 A 
ATOM     28  C   UNL     1       1.052   8.094  21.054  0.00  0.00    +0.000 A 
ENDBRANCH  17  27
ENDBRANCH  16  18
ENDBRANCH   1  16
TORSDOF 6
ENDMDL
MODEL 2
REMARK VINA RESULT:      -7.8      5.945      7.965
REMARK  Name = 
REMARK  8 active torsions:
REMARK  status: ('A' for Active; 'I' for Inactive)
REMARK    1  A    between atoms: C_1  and  C_2
REMARK    2  A    between atoms: C_5  and  C_6
REMARK    3  A    between atoms: C_7  and  N_8
REMARK    4  A    between atoms: C_9  and  C_11
REMARK    5  A    between atoms: C_11  and  S_12
REMARK    6  A    between atoms: S_12  and  C_13
REMARK    7  A    between atoms: C_16  and  S_17
REMARK    8  A    between atoms: S_17  and  N_20
REMARK                            x       y       z     vdW  Elec       q    Type
REMARK                         _______ _______ _______ _____ _____    ______ ____
ROOT
ATOM      1  S   UNL     1       7.873   8.618  17.435  0.00  0.00    +0.000 S 
ENDROOT
BRANCH   1   2
ATOM      2  C   UNL     1       7.058   7.049  17.707  0.00  0.00    +0.000 A 
ATOM      3  C   UNL     1       7.544   6.106  18.610  0.00  0.00    +0.000 A 
ATOM      4  C   UNL     1       6.752   4.998  18.924  0.00  0.00    +0.000 A 
ATOM      5  C   UNL     1       5.489   4.879  18.341  0.00  0.00    +0.000 A 
ATOM      6  C   UNL     1       5.099   5.825  17.417  0.00  0.00    +0.000 A 
ATOM      7  N   UNL     1       5.858   6.906  17.096  0.00  0.00    +0.000 NA
BRANCH   5   8
ATOM      8  S   UNL     1       4.380   3.591  18.805  0.00  0.00    +0.000 S 
ATOM      9  O   UNL     1       4.004   2.896  17.589  0.00  0.00    +0.000 OA
ATOM     10  O   UNL     1       4.962   2.884  19.922  0.00  0.00    +0.000 OA
BRANCH   8  11
ATOM     11  N   UNL     1       2.992   4.402  19.391  0.00  0.00    +0.000 NA
ATOM     12  C   UNL     1       2.715   4.326  20.846  0.00  0.00    +0.000 C 
ATOM     13  C   UNL     1       1.669   3.242  20.997  0.00  0.00    +0.000 C 
ATOM     14  C   UNL     1       0.807   3.401  19.761  0.00  0.00    +0.000 C 
ATOM     15  C   UNL     1       1.721   4.011  18.698  0.00  0.00    +0.000 C 
ENDBRANCH   8  11
ENDBRANCH   5   8
ENDBRANCH   1   2
BRANCH   1  16
ATOM     16  C   UNL     1       8.794   8.848  18.995  0.00  0.00    +0.000 C 
BRANCH  16  18
ATOM     17  N   UNL     1       9.177  11.072  18.028  0.00  0.00    +0.000 N 
ATOM     18  C   UNL     1       9.154  10.323  19.200  0.00  0.00    +0.000 C 
ATOM     19  O   UNL     1       9.410  10.757  20.320  0.00  0.00    +0.000 OA
ATOM     20  H   UNL     1       8.610  10.698  17.276  0.00  0.00    +0.000 HD
BRANCH  17  27
ATOM     21  C   UNL     1       7.386  15.698  18.168  0.00  0.00    +0.000 C 
ATOM     22  C   UNL     1       8.549  14.754  18.080  0.00  0.00    +0.000 A 
ATOM     23  C   UNL     1       9.859  15.241  18.054  0.00  0.00    +0.000 A 
ATOM     24  C   UNL     1      10.935  14.352  18.015  0.00  0.00    +0.000 A 
ATOM     25  C   UNL     1      10.728  12.961  18.014  0.00  0.00    +0.000 A 
ATOM     26  C   UNL     1      11.921  12.055  17.913  0.00  0.00    +0.000 C 
ATOM     27  C   UNL     1       9.410  12.469  18.015  0.00  0.00    +0.000 A 
ATOM     28  C   UNL     1       8.332  13.369  18.043  0.00  0.00    +0.000 A 
ENDBRANCH  17  27
ENDBRANCH  16  18
ENDBRANCH   1  16
TORSDOF 6
ENDMDL
MODEL 3
REMARK VINA RESULT:      -7.6      1.946      2.599
REMARK  Name = 
REMARK  8 active torsions:
REMARK  status: ('A' for Active; 'I' for Inactive)
REMARK    1  A    between atoms: C_1  and  C_2
REMARK    2  A    between atoms: C_5  and  C_6
REMARK    3  A    between atoms: C_7  and  N_8
REMARK    4  A    between atoms: C_9  and  C_11
REMARK    5  A    between atoms: C_11  and  S_12
REMARK    6  A    between atoms: S_12  and  C_13
REMARK    7  A    between atoms: C_16  and  S_17
REMARK    8  A    between atoms: S_17  and  N_20
REMARK                            x       y       z     vdW  Elec       q    Type
REMARK                         _______ _______ _______ _____ _____    ______ ____
ROOT
ATOM      1  S   UNL     1       2.240   1.883  19.795  0.00  0.00    +0.000 S 
ENDROOT
BRANCH   1   2
ATOM      2  C   UNL     1       3.586   2.622  18.878  0.00  0.00    +0.000 A 
ATOM      3  C   UNL     1       3.522   2.830  17.502  0.00  0.00    +0.000 A 
ATOM      4  C   UNL     1       4.516   3.594  16.886  0.00  0.00    +0.000 A 
ATOM      5  C   UNL     1       5.533   4.144  17.668  0.00  0.00    +0.000 A 
ATOM      6  C   UNL     1       5.559   3.851  19.015  0.00  0.00    +0.000 A 
ATOM      7  N   UNL     1       4.602   3.106  19.631  0.00  0.00    +0.000 NA
BRANCH   5   8
ATOM      8  S   UNL     1       6.732   5.239  16.982  0.00  0.00    +0.000 S 
ATOM      9  O   UNL     1       8.019   4.581  17.091  0.00  0.00    +0.000 OA
ATOM     10  O   UNL     1       6.233   5.702  15.708  0.00  0.00    +0.000 OA
BRANCH   8  11
ATOM     11  N   UNL     1       6.744   6.586  18.037  0.00  0.00    +0.000 NA
ATOM     12  C   UNL     1       6.525   7.926  17.442  0.00  0.00    +0.000 C 
ATOM     13  C   UNL     1       7.907   8.525  17.287  0.00  0.00    +0.000 C 
ATOM     14  C   UNL     1       8.657   8.014  18.500  0.00  0.00    +0.000 C 
ATOM     15  C   UNL     1       7.986   6.692  18.872  0.00  0.00    +0.000 C 
ENDBRANCH   8  11
ENDBRANCH   5   8
ENDBRANCH   1   2
BRANCH   1  16
ATOM     16  C   UNL     1       2.040   3.047  21.189  0.00  0.00    +0.000 C 
BRANCH  16  18
ATOM     17  N   UNL     1       2.124   5.495  21.029  0.00  0.00    +0.000 N 
ATOM     18  C   UNL     1       1.393   4.353  20.717  0.00  0.00    +0.000 C 
ATOM     19  O   UNL     1       0.312   4.344  20.135  0.00  0.00    +0.000 OA
ATOM     20  H   UNL     1       3.116   5.338  21.164  0.00  0.00    +0.000 HD
BRANCH  17  27
ATOM     21  C   UNL     1      -0.239   9.754  21.978  0.00  0.00    +0.000 C 
ATOM     22  C   UNL     1       0.576   8.894  21.057  0.00  0.00    +0.000 A 
ATOM     23  C   UNL     1       1.011   9.388  19.824  0.00  0.00    +0.000 A 
ATOM     24  C   UNL     1       1.806   8.595  18.993  0.00  0.00    +0.000 A 
ATOM     25  C   UNL     1       2.193   7.299  19.381  0.00  0.00    +0.000 A 
ATOM     26  C   UNL     1       2.999   6.471  18.423  0.00  0.00    +0.000 C 
ATOM     27  C   UNL     1       1.736   6.792  20.611  0.00  0.00    +0.000 A 
ATOM     28  C   UNL     1       0.928   7.591  21.436  0.00  0.00    +0.000 A 
ENDBRANCH  17  27
ENDBRANCH  16  18
ENDBRANCH   1  16
TORSDOF 6
ENDMDL
MODEL 4
REMARK VINA RESULT:      -7.6      3.267      5.555
REMARK  Name = 
REMARK  8 active torsions:
REMARK  status: ('A' for Active; 'I' for Inactive)
REMARK    1  A    between atoms: C_1  and  C_2
REMARK    2  A    between atoms: C_5  and  C_6
REMARK    3  A    between atoms: C_7  and  N_8
REMARK    4  A    between atoms: C_9  and  C_11
REMARK    5  A    between atoms: C_11  and  S_12
REMARK    6  A    between atoms: S_12  and  C_13
REMARK    7  A    between atoms: C_16  and  S_17
REMARK    8  A    between atoms: S_17  and  N_20
REMARK                            x       y       z     vdW  Elec       q    Type
REMARK                         _______ _______ _______ _____ _____    ______ ____
ROOT
ATOM      1  S   UNL     1       1.170   9.145  20.035  0.00  0.00    +0.000 S 
ENDROOT
BRANCH   1   2
ATOM      2  C   UNL     1       2.038   7.742  19.346  0.00  0.00    +0.000 A 
ATOM      3  C   UNL     1       2.695   7.805  18.119  0.00  0.00    +0.000 A 
ATOM      4  C   UNL     1       3.522   6.744  17.738  0.00  0.00    +0.000 A 
ATOM      5  C   UNL     1       3.683   5.663  18.606  0.00  0.00    +0.000 A 
ATOM      6  C   UNL     1       2.959   5.647  19.779  0.00  0.00    +0.000 A 
ATOM      7  N   UNL     1       2.146   6.668  20.163  0.00  0.00    +0.000 NA
BRANCH   5   8
ATOM      8  S   UNL     1       4.824   4.365  18.258  0.00  0.00    +0.000 S 
ATOM      9  O   UNL     1       5.633   4.801  17.136  0.00  0.00    +0.000 OA
ATOM     10  O   UNL     1       5.429   3.960  19.505  0.00  0.00    +0.000 OA
BRANCH   8  11
ATOM     11  N   UNL     1       3.851   3.063  17.723  0.00  0.00    +0.000 NA
ATOM     12  C   UNL     1       2.524   3.388  17.146  0.00  0.00    +0.000 C 
ATOM     13  C   UNL     1       1.534   3.161  18.268  0.00  0.00    +0.000 C 
ATOM     14  C   UNL     1       2.103   1.969  19.012  0.00  0.00    +0.000 C 
ATOM     15  C   UNL     1       3.611   2.015  18.769  0.00  0.00    +0.000 C 
ENDBRANCH   8  11
ENDBRANCH   5   8
ENDBRANCH   1   2
BRANCH   1  16
ATOM     16  C   UNL     1       1.096   8.717  21.809  0.00  0.00    +0.000 C 
BRANCH  16  18
ATOM     17  N   UNL     1      -0.137  10.840  21.818  0.00  0.00    +0.000 N 
ATOM     18  C   UNL     1       0.377   9.812  22.603  0.00  0.00    +0.000 C 
ATOM     19  O   UNL     1       0.301   9.754  23.827  0.00  0.00    +0.000 OA
ATOM     20  H   UNL     1      -0.322  10.584  20.855  0.00  0.00    +0.000 HD
BRANCH  17  27
ATOM     21  C   UNL     1      -4.073  12.376  24.422  0.00  0.00    +0.000 C 
ATOM     22  C   UNL     1      -2.836  12.681  23.629  0.00  0.00    +0.000 A 
ATOM     23  C   UNL     1      -2.399  13.999  23.473  0.00  0.00    +0.000 A 
ATOM     24  C   UNL     1      -1.224  14.270  22.769  0.00  0.00    +0.000 A 
ATOM     25  C   UNL     1      -0.453  13.230  22.218  0.00  0.00    +0.000 A 
ATOM     26  C   UNL     1       0.770  13.584  21.423  0.00  0.00    +0.000 C 
ATOM     27  C   UNL     1      -0.903  11.904  22.353  0.00  0.00    +0.000 A 
ATOM     28  C   UNL     1      -2.092  11.641  23.052  0.00  0.00    +0.000 A 
ENDBRANCH  17  27
ENDBRANCH  16  18
ENDBRANCH   1  16
TORSDOF 6
ENDMDL
MODEL 5
REMARK VINA RESULT:      -7.5      4.361      5.917
REMARK  Name = 
REMARK  8 active torsions:
REMARK  status: ('A' for Active; 'I' for Inactive)
REMARK    1  A    between atoms: C_1  and  C_2
REMARK    2  A    between atoms: C_5  and  C_6
REMARK    3  A    between atoms: C_7  and  N_8
REMARK    4  A    between atoms: C_9  and  C_11
REMARK    5  A    between atoms: C_11  and  S_12
REMARK    6  A    between atoms: S_12  and  C_13
REMARK    7  A    between atoms: C_16  and  S_17
REMARK    8  A    between atoms: S_17  and  N_20
REMARK                            x       y       z     vdW  Elec       q    Type
REMARK                         _______ _______ _______ _____ _____    ______ ____
ROOT
ATOM      1  S   UNL     1       0.689  10.194  20.336  0.00  0.00    +0.000 S 
ENDROOT
BRANCH   1   2
ATOM      2  C   UNL     1       1.379   8.738  19.561  0.00  0.00    +0.000 A 
ATOM      3  C   UNL     1       1.719   8.706  18.210  0.00  0.00    +0.000 A 
ATOM      4  C   UNL     1       2.440   7.614  17.719  0.00  0.00    +0.000 A 
ATOM      5  C   UNL     1       2.816   6.598  18.598  0.00  0.00    +0.000 A 
ATOM      6  C   UNL     1       2.399   6.673  19.910  0.00  0.00    +0.000 A 
ATOM      7  N   UNL     1       1.692   7.726  20.404  0.00  0.00    +0.000 NA
BRANCH   5   8
ATOM      8  S   UNL     1       3.852   5.269  18.080  0.00  0.00    +0.000 S 
ATOM      9  O   UNL     1       4.735   4.961  19.188  0.00  0.00    +0.000 OA
ATOM     10  O   UNL     1       3.011   4.255  17.489  0.00  0.00    +0.000 OA
BRANCH   8  11
ATOM     11  N   UNL     1       4.807   5.927  16.821  0.00  0.00    +0.000 NA
ATOM     12  C   UNL     1       5.405   4.983  15.847  0.00  0.00    +0.000 C 
ATOM     13  C   UNL     1       6.834   4.789  16.306  0.00  0.00    +0.000 C 
ATOM     14  C   UNL     1       7.228   6.152  16.839  0.00  0.00    +0.000 C 
ATOM     15  C   UNL     1       5.925   6.803  17.302  0.00  0.00    +0.000 C 
ENDBRANCH   8  11
ENDBRANCH   5   8
ENDBRANCH   1   2
BRANCH   1  16
ATOM     16  C   UNL     1       0.877  11.453  19.027  0.00  0.00    +0.000 C 
BRANCH  16  18
ATOM     17  N   UNL     1      -1.487  11.028  18.521  0.00  0.00    +0.000 N 
ATOM     18  C   UNL     1      -0.488  11.995  18.594  0.00  0.00    +0.000 C 
ATOM     19  O   UNL     1      -0.637  13.184  18.326  0.00  0.00    +0.000 OA
ATOM     20  H   UNL     1      -1.328  10.211  19.099  0.00  0.00    +0.000 HD
BRANCH  17  27
ATOM     21  C   UNL     1      -5.852  12.926  19.928  0.00  0.00    +0.000 C 
ATOM     22  C   UNL     1      -4.992  12.266  18.890  0.00  0.00    +0.000 A 
ATOM     23  C   UNL     1      -5.490  12.020  17.607  0.00  0.00    +0.000 A 
ATOM     24  C   UNL     1      -4.669  11.445  16.635  0.00  0.00    +0.000 A 
ATOM     25  C   UNL     1      -3.331  11.115  16.919  0.00  0.00    +0.000 A 
ATOM     26  C   UNL     1      -2.512  10.446  15.853  0.00  0.00    +0.000 C 
ATOM     27  C   UNL     1      -2.835  11.340  18.216  0.00  0.00    +0.000 A 
ATOM     28  C   UNL     1      -3.670  11.908  19.191  0.00  0.00    +0.000 A 
ENDBRANCH  17  27
ENDBRANCH  16  18
ENDBRANCH   1  16
TORSDOF 6
ENDMDL
MODEL 6
REMARK VINA RESULT:      -7.5      4.140      6.610
REMARK  Name = 
REMARK  8 active torsions:
REMARK  status: ('A' for Active; 'I' for Inactive)
REMARK    1  A    between atoms: C_1  and  C_2
REMARK    2  A    between atoms: C_5  and  C_6
REMARK    3  A    between atoms: C_7  and  N_8
REMARK    4  A    between atoms: C_9  and  C_11
REMARK    5  A    between atoms: C_11  and  S_12
REMARK    6  A    between atoms: S_12  and  C_13
REMARK    7  A    between atoms: C_16  and  S_17
REMARK    8  A    between atoms: S_17  and  N_20
REMARK                            x       y       z     vdW  Elec       q    Type
REMARK                         _______ _______ _______ _____ _____    ______ ____
ROOT
ATOM      1  S   UNL     1       0.496  10.397  21.082  0.00  0.00    +0.000 S 
ENDROOT
BRANCH   1   2
ATOM      2  C   UNL     1       1.308   8.956  20.403  0.00  0.00    +0.000 A 
ATOM      3  C   UNL     1       1.409   7.759  21.108  0.00  0.00    +0.000 A 
ATOM      4  C   UNL     1       1.869   6.618  20.443  0.00  0.00    +0.000 A 
ATOM      5  C   UNL     1       2.196   6.706  19.089  0.00  0.00    +0.000 A 
ATOM      6  C   UNL     1       2.121   7.937  18.473  0.00  0.00    +0.000 A 
ATOM      7  N   UNL     1       1.680   9.058  19.105  0.00  0.00    +0.000 NA
BRANCH   5   8
ATOM      8  S   UNL     1       2.639   5.279  18.155  0.00  0.00    +0.000 S 
ATOM      9  O   UNL     1       1.444   4.838  17.461  0.00  0.00    +0.000 OA
ATOM     10  O   UNL     1       3.855   5.579  17.435  0.00  0.00    +0.000 OA
BRANCH   8  11
ATOM     11  N   UNL     1       3.027   4.095  19.327  0.00  0.00    +0.000 NA
ATOM     12  C   UNL     1       4.174   3.199  19.045  0.00  0.00    +0.000 C 
ATOM     13  C   UNL     1       3.560   1.919  18.518  0.00  0.00    +0.000 C 
ATOM     14  C   UNL     1       2.279   1.781  19.316  0.00  0.00    +0.000 C 
ATOM     15  C   UNL     1       1.877   3.206  19.696  0.00  0.00    +0.000 C 
ENDBRANCH   8  11
ENDBRANCH   5   8
ENDBRANCH   1   2
BRANCH   1  16
ATOM     16  C   UNL     1       1.007  11.710  19.920  0.00  0.00    +0.000 C 
BRANCH  16  18
ATOM     17  N   UNL     1      -1.056  10.994  18.799  0.00  0.00    +0.000 N 
ATOM     18  C   UNL     1      -0.106  12.004  18.909  0.00  0.00    +0.000 C 
ATOM     19  O   UNL     1      -0.107  13.046  18.261  0.00  0.00    +0.000 OA
ATOM     20  H   UNL     1      -1.137  10.398  19.615  0.00  0.00    +0.000 HD
BRANCH  17  27
ATOM     21  C   UNL     1      -3.319  10.091  14.475  0.00  0.00    +0.000 C 
ATOM     22  C   UNL     1      -3.336  10.677  15.857  0.00  0.00    +0.000 A 
ATOM     23  C   UNL     1      -4.495  11.271  16.362  0.00  0.00    +0.000 A 
ATOM     24  C   UNL     1      -4.514  11.774  17.664  0.00  0.00    +0.000 A 
ATOM     25  C   UNL     1      -3.381  11.684  18.494  0.00  0.00    +0.000 A 
ATOM     26  C   UNL     1      -3.441  12.293  19.864  0.00  0.00    +0.000 C 
ATOM     27  C   UNL     1      -2.205  11.108  17.978  0.00  0.00    +0.000 A 
ATOM     28  C   UNL     1      -2.191  10.614  16.664  0.00  0.00    +0.000 A 
ENDBRANCH  17  27
ENDBRANCH  16  18
ENDBRANCH   1  16
TORSDOF 6
ENDMDL
MODEL 7
REMARK VINA RESULT:      -7.4      4.432      6.876
REMARK  Name = 
REMARK  8 active torsions:
REMARK  status: ('A' for Active; 'I' for Inactive)
REMARK    1  A    between atoms: C_1  and  C_2
REMARK    2  A    between atoms: C_5  and  C_6
REMARK    3  A    between atoms: C_7  and  N_8
REMARK    4  A    between atoms: C_9  and  C_11
REMARK    5  A    between atoms: C_11  and  S_12
REMARK    6  A    between atoms: S_12  and  C_13
REMARK    7  A    between atoms: C_16  and  S_17
REMARK    8  A    between atoms: S_17  and  N_20
REMARK                            x       y       z     vdW  Elec       q    Type
REMARK                         _______ _______ _______ _____ _____    ______ ____
ROOT
ATOM      1  S   UNL     1       1.454  11.347  18.659  0.00  0.00    +0.000 S 
ENDROOT
BRANCH   1   2
ATOM      2  C   UNL     1       1.631   9.575  18.825  0.00  0.00    +0.000 A 
ATOM      3  C   UNL     1       2.143   8.781  17.802  0.00  0.00    +0.000 A 
ATOM      4  C   UNL     1       2.445   7.443  18.070  0.00  0.00    +0.000 A 
ATOM      5  C   UNL     1       2.245   6.946  19.359  0.00  0.00    +0.000 A 
ATOM      6  C   UNL     1       1.686   7.779  20.305  0.00  0.00    +0.000 A 
ATOM      7  N   UNL     1       1.381   9.082  20.061  0.00  0.00    +0.000 NA
BRANCH   5   8
ATOM      8  S   UNL     1       2.743   5.316  19.805  0.00  0.00    +0.000 S 
ATOM      9  O   UNL     1       4.167   5.221  19.545  0.00  0.00    +0.000 OA
ATOM     10  O   UNL     1       2.200   5.027  21.111  0.00  0.00    +0.000 OA
BRANCH   8  11
ATOM     11  N   UNL     1       1.942   4.296  18.689  0.00  0.00    +0.000 NA
ATOM     12  C   UNL     1       1.146   3.171  19.236  0.00  0.00    +0.000 C 
ATOM     13  C   UNL     1       2.039   1.954  19.115  0.00  0.00    +0.000 C 
ATOM     14  C   UNL     1       2.791   2.189  17.821  0.00  0.00    +0.000 C 
ATOM     15  C   UNL     1       2.845   3.707  17.647  0.00  0.00    +0.000 C 
ENDBRANCH   8  11
ENDBRANCH   5   8
ENDBRANCH   1   2
BRANCH   1  16
ATOM     16  C   UNL     1       0.339  11.754  20.046  0.00  0.00    +0.000 C 
BRANCH  16  18
ATOM     17  N   UNL     1      -1.846  11.315  19.016  0.00  0.00    +0.000 N 
ATOM     18  C   UNL     1      -0.998  12.293  19.527  0.00  0.00    +0.000 C 
ATOM     19  O   UNL     1      -1.249  13.494  19.564  0.00  0.00    +0.000 OA
ATOM     20  H   UNL     1      -1.680  10.382  19.374  0.00  0.00    +0.000 HD
BRANCH  17  27
ATOM     21  C   UNL     1      -6.381  13.118  19.922  0.00  0.00    +0.000 C 
ATOM     22  C   UNL     1      -5.396  12.478  18.987  0.00  0.00    +0.000 A 
ATOM     23  C   UNL     1      -5.741  12.224  17.657  0.00  0.00    +0.000 A 
ATOM     24  C   UNL     1      -4.804  11.668  16.784  0.00  0.00    +0.000 A 
ATOM     25  C   UNL     1      -3.499  11.366  17.216  0.00  0.00    +0.000 A 
ATOM     26  C   UNL     1      -2.552  10.717  16.250  0.00  0.00    +0.000 C 
ATOM     27  C   UNL     1      -3.157  11.599  18.561  0.00  0.00    +0.000 A 
ATOM     28  C   UNL     1      -4.109  12.148  19.436  0.00  0.00    +0.000 A 
ENDBRANCH  17  27
ENDBRANCH  16  18
ENDBRANCH   1  16
TORSDOF 6
ENDMDL
MODEL 8
REMARK VINA RESULT:      -7.4      3.944      5.773
REMARK  Name = 
REMARK  8 active torsions:
REMARK  status: ('A' for Active; 'I' for Inactive)
REMARK    1  A    between atoms: C_1  and  C_2
REMARK    2  A    between atoms: C_5  and  C_6
REMARK    3  A    between atoms: C_7  and  N_8
REMARK    4  A    between atoms: C_9  and  C_11
REMARK    5  A    between atoms: C_11  and  S_12
REMARK    6  A    between atoms: S_12  and  C_13
REMARK    7  A    between atoms: C_16  and  S_17
REMARK    8  A    between atoms: S_17  and  N_20
REMARK                            x       y       z     vdW  Elec       q    Type
REMARK                         _______ _______ _______ _____ _____    ______ ____
ROOT
ATOM      1  S   UNL     1       1.098   9.211  19.978  0.00  0.00    +0.000 S 
ENDROOT
BRANCH   1   2
ATOM      2  C   UNL     1       2.003   7.819  19.315  0.00  0.00    +0.000 A 
ATOM      3  C   UNL     1       2.621   7.861  18.067  0.00  0.00    +0.000 A 
ATOM      4  C   UNL     1       3.480   6.820  17.701  0.00  0.00    +0.000 A 
ATOM      5  C   UNL     1       3.711   5.781  18.604  0.00  0.00    +0.000 A 
ATOM      6  C   UNL     1       3.024   5.782  19.799  0.00  0.00    +0.000 A 
ATOM      7  N   UNL     1       2.180   6.783  20.169  0.00  0.00    +0.000 NA
BRANCH   5   8
ATOM      8  S   UNL     1       4.894   4.518  18.270  0.00  0.00    +0.000 S 
ATOM      9  O   UNL     1       5.656   4.946  17.112  0.00  0.00    +0.000 OA
ATOM     10  O   UNL     1       5.547   4.181  19.513  0.00  0.00    +0.000 OA
BRANCH   8  11
ATOM     11  N   UNL     1       3.962   3.160  17.806  0.00  0.00    +0.000 NA
ATOM     12  C   UNL     1       2.691   3.414  17.086  0.00  0.00    +0.000 C 
ATOM     13  C   UNL     1       1.608   3.312  18.139  0.00  0.00    +0.000 C 
ATOM     14  C   UNL     1       2.105   2.214  19.059  0.00  0.00    +0.000 C 
ATOM     15  C   UNL     1       3.628   2.237  18.940  0.00  0.00    +0.000 C 
ENDBRANCH   8  11
ENDBRANCH   5   8
ENDBRANCH   1   2
BRANCH   1  16
ATOM     16  C   UNL     1       1.178  10.412  18.604  0.00  0.00    +0.000 C 
BRANCH  16  18
ATOM     17  N   UNL     1      -1.205  10.383  18.015  0.00  0.00    +0.000 N 
ATOM     18  C   UNL     1      -0.147  11.167  18.465  0.00  0.00    +0.000 C 
ATOM     19  O   UNL     1      -0.217  12.365  18.723  0.00  0.00    +0.000 OA
ATOM     20  H   UNL     1      -1.102   9.391  18.195  0.00  0.00    +0.000 HD
BRANCH  17  27
ATOM     21  C   UNL     1      -5.043  12.827  19.997  0.00  0.00    +0.000 C 
ATOM     22  C   UNL     1      -4.430  12.072  18.854  0.00  0.00    +0.000 A 
ATOM     23  C   UNL     1      -5.126  11.911  17.654  0.00  0.00    +0.000 A 
ATOM     24  C   UNL     1      -4.530  11.244  16.581  0.00  0.00    +0.000 A 
ATOM     25  C   UNL     1      -3.222  10.735  16.680  0.00  0.00    +0.000 A 
ATOM     26  C   UNL     1      -2.654   9.977  15.516  0.00  0.00    +0.000 C 
ATOM     27  C   UNL     1      -2.528  10.875  17.896  0.00  0.00    +0.000 A 
ATOM     28  C   UNL     1      -3.139  11.537  18.974  0.00  0.00    +0.000 A 
ENDBRANCH  17  27
ENDBRANCH  16  18
ENDBRANCH   1  16
TORSDOF 6
ENDMDL
MODEL 9
REMARK VINA RESULT:      -7.4      2.516      3.981
REMARK  Name = 
REMARK  8 active torsions:
REMARK  status: ('A' for Active; 'I' for Inactive)
REMARK    1  A    between atoms: C_1  and  C_2
REMARK    2  A    between atoms: C_5  and  C_6
REMARK    3  A    between atoms: C_7  and  N_8
REMARK    4  A    between atoms: C_9  and  C_11
REMARK    5  A    between atoms: C_11  and  S_12
REMARK    6  A    between atoms: S_12  and  C_13
REMARK    7  A    between atoms: C_16  and  S_17
REMARK    8  A    between atoms: S_17  and  N_20
REMARK                            x       y       z     vdW  Elec       q    Type
REMARK                         _______ _______ _______ _____ _____    ______ ____
ROOT
ATOM      1  S   UNL     1       1.761   5.991  20.518  0.00  0.00    +0.000 S 
ENDROOT
BRANCH   1   2
ATOM      2  C   UNL     1       2.723   5.864  19.016  0.00  0.00    +0.000 A 
ATOM      3  C   UNL     1       3.235   6.983  18.364  0.00  0.00    +0.000 A 
ATOM      4  C   UNL     1       4.145   6.802  17.318  0.00  0.00    +0.000 A 
ATOM      5  C   UNL     1       4.531   5.506  16.972  0.00  0.00    +0.000 A 
ATOM      6  C   UNL     1       3.943   4.446  17.628  0.00  0.00    +0.000 A 
ATOM      7  N   UNL     1       3.052   4.604  18.643  0.00  0.00    +0.000 NA
BRANCH   5   8
ATOM      8  S   UNL     1       5.784   5.211  15.768  0.00  0.00    +0.000 S 
ATOM      9  O   UNL     1       5.680   3.818  15.379  0.00  0.00    +0.000 OA
ATOM     10  O   UNL     1       5.717   6.269  14.787  0.00  0.00    +0.000 OA
BRANCH   8  11
ATOM     11  N   UNL     1       7.257   5.405  16.617  0.00  0.00    +0.000 NA
ATOM     12  C   UNL     1       7.455   4.596  17.844  0.00  0.00    +0.000 C 
ATOM     13  C   UNL     1       7.118   5.524  18.992  0.00  0.00    +0.000 C 
ATOM     14  C   UNL     1       7.620   6.874  18.521  0.00  0.00    +0.000 C 
ATOM     15  C   UNL     1       7.558   6.825  16.995  0.00  0.00    +0.000 C 
ENDBRANCH   8  11
ENDBRANCH   5   8
ENDBRANCH   1   2
BRANCH   1  16
ATOM     16  C   UNL     1       2.008   7.739  20.985  0.00  0.00    +0.000 C 
BRANCH  16  18
ATOM     17  N   UNL     1       0.994   9.446  19.541  0.00  0.00    +0.000 N 
ATOM     18  C   UNL     1       0.784   8.580  20.610  0.00  0.00    +0.000 C 
ATOM     19  O   UNL     1      -0.266   8.477  21.238  0.00  0.00    +0.000 OA
ATOM     20  H   UNL     1       1.741   9.170  18.914  0.00  0.00    +0.000 HD
BRANCH  17  27
ATOM     21  C   UNL     1      -2.754   9.974  16.331  0.00  0.00    +0.000 C 
ATOM     22  C   UNL     1      -1.880  10.532  17.417  0.00  0.00    +0.000 A 
ATOM     23  C   UNL     1      -2.117  11.808  17.935  0.00  0.00    +0.000 A 
ATOM     24  C   UNL     1      -1.326  12.300  18.974  0.00  0.00    +0.000 A 
ATOM     25  C   UNL     1      -0.290  11.525  19.528  0.00  0.00    +0.000 A 
ATOM     26  C   UNL     1       0.565  12.128  20.603  0.00  0.00    +0.000 C 
ATOM     27  C   UNL     1      -0.034  10.250  18.991  0.00  0.00    +0.000 A 
ATOM     28  C   UNL     1      -0.828   9.766  17.938  0.00  0.00    +0.000 A 
ENDBRANCH  17  27
ENDBRANCH  16  18
ENDBRANCH   1  16
TORSDOF 6
ENDMDL
